# total energy = -381156.652004179 ev
CRYSTAL
PRIMVEC
9.43477875388093 0.00000000000000 0.00000000000000
0.00000000000000 9.43477875388093 0.00000000000000
0.00000000000000 0.00000000000000 13.80875238836469
PRIMCOORD
 96 1
Ni 4.628419419218039 4.234687231756908 8.56316654270412 -1.0688842030207528 0.8411700806660932 0.6406335471674902
Ni 5.317884747098253 8.147563594585613 8.872633890572814 0.11753849523881693 -0.8455160163396148 0.39904986591959013
Ni 8.757427694017405 8.440220997126993 12.877186111714622 -1.8280188664506454 -0.22096369100470334 0.2170093343426456
Ni 8.812762671479772 7.417972152613761 2.2178098575678016 -2.1579772768892127 1.320059641722146 -2.020650800390191
Ni 5.466369295316965 4.208477416345065 2.2674934025493583 -1.054138926390778 -0.9822488251186954 1.6479539705428328
Ni 5.214083311115139 8.087681053758052 3.5943629490792075 0.2634827953138365 0.06794088681634751 -0.7178661436984087
Ni 2.6181228032181916 1.364061444425272 11.884848346323123 1.6061961698797564 -1.1703543319427971 -1.0723544209575402
Ni 5.685718466846819 2.39771693646655 9.263214861926116 0.47140559397418164 -1.3884121621546153 0.39175693180260274
Ni 2.371724120966325 2.0395632997318622 3.0001171824165893 -0.18866523598231377 -0.47547462183723266 0.6094056995014601
Ni 6.87374580905677 7.568588960833582 11.361634198555802 -1.130388333072821 0.16225614986116574 0.18952681265166071
Ni 2.9601052291480205 8.583799460387404 7.46527435943479 2.734278223416904 2.9641538721992564 0.5816254440643983
Ni 3.66516624632837 4.711030342092803 12.794693123574433 0.29944687211327137 -0.3670589148352904 -0.20912350383666564
Ni 3.2552439785048475 1.0684226517938487 9.15306287635563 0.4805471512641338 0.32629895930910907 -0.09568720369168036
Ni 0.8631850788642449 0.9623757384644345 8.805745083033651 0.31518536589445073 -0.24982149577666007 -0.15289193503744639
Ni 6.1940171728630276 5.946967490876309 8.47126896709002 0.6746888369799864 0.5723741006694594 0.3968279185676069
Ni 8.53046465602342 2.8636534858235896 9.062187087281883 0.2940745520577645 0.018409355745123136 0.04144644007024475
Ni 3.1793883572265123 7.559173051625152 1.9993692552331102 0.7377340862669294 -0.33146661955297757 -0.17117453539671812
Ni 1.9399697750783658 3.749079168672837 5.253788634073813 0.3734653325822665 -0.44521222340826555 0.11600611775469054
Ni 4.75811932291372 6.04762714553036 4.532763971221455 -0.9626955855771163 -0.4582358893614431 -0.21423691380383103
Ni 5.017670086765339 7.279941339267737 13.053344753009654 -0.6464339558993512 -0.24196111919197685 0.20044860177048704
Ni 1.242013146308786 8.20023796443598 0.378720510966609 -0.2927676603208829 -1.9050000090923902 0.4729009475727856
Ni 6.788634669809024 8.763494256763918 5.777264125212949 -0.724002852723766 -0.9762936359765251 0.20511798222169836
Ni 8.206729092226961 7.5689474824266885 9.409297315471013 -1.4587832556790101 2.3683385097877214 -0.4553349136645642
Ni 8.875664341512442 7.249712308101593 7.173356643548662 -0.8873177828667492 1.0062104781406156 -0.8733070704099541
P 2.414944842493197 7.057657951541668 4.657333242224206 1.0690214999295653 -1.1919287156794633 0.9051378417673057
Ni 2.7279247584964583 2.4509668278216408 7.052792436132062 0.5335278172262231 -0.2215337045755604 1.564648685455273
P 6.679002540548545 1.4366998061444143 12.806610192633718 0.41973413374181906 0.35440780173018316 0.7737421289304223
Ni 2.7868355171111263 4.376897652096255 3.2593075377193474 1.3279776110176418 2.341757159754767 1.770787138521686
P 3.3970203990209606 3.917933404247261 1.3938970453168738 0.31449990979165193 0.14697685510459205 -1.5781834867169144
P 4.057700216886224 3.628842348079416 10.652748322063731 -0.3691425368371965 0.5714631588194158 -0.26871550446768555
P 2.0885109319696737 1.466428794035961 5.322721958171562 0.35022615954866776 1.2483996541829985 -1.7121461889500253
Ni 0.5322573832144937 8.920932410031527 10.659363045456548 0.3675661934890121 0.023906631414268506 0.9437077316207039
Ni 7.538633538251652 1.4882608721003971 5.276572681315735 -0.7144697164223501 0.5122141433501114 0.0036753919690581866
Ni 0.5994056471697227 0.7594987471820743 13.01121374843025 0.5197549318118467 0.17622983843243842 -0.8899847881759511
Ni 8.816385626525902 2.7244527599105846 3.7880165006399626 2.9537234208945518 -1.124130267978251 -1.7511084291458359
Ni 0.44350441936308793 4.374227609705487 11.203620523783469 1.7180376147337961 -0.37333960563767965 0.3035642367157546
Ni 1.7634639339247464 2.913808769743444 13.215763525987814 -0.21088368106088198 1.8312949660987559 1.5375142911323263
Ni 8.987089078738455 6.6525285513312555 11.735381637634871 2.1549300054224565 0.6772167456081627 -0.558525110601509
Ni 8.04455468001884 4.251462268402788 0.9783393841364424 1.7255773747542669 0.25537559282566985 0.32383764225281003
Ni 0.24173507110785175 2.16413068377886 6.766675222231249 1.3538513934606105 0.5970569481281202 0.06207697183640277
Ni 1.0800274296759822 4.025084186692293 1.8429434537270881 -3.1259030005170163 -2.479885563329794 0.10718826235274444
Ni 8.6856101580509 2.682467994402053 12.612472636922268 1.2907310679613577 -0.8340640657489312 2.100201760641641
Ni 7.804694299451784 7.119663317591572 4.339400067368815 -1.3949250235724688 -1.6446377616854062 0.0629683733024206
Ni 6.040503887562058 4.702246563061692 10.571579976862283 -1.3280177202269579 0.9128141273656408 0.10357431974924097
Ni 7.217011364898768 6.573465105272493 13.787376201868767 0.18813815983425017 0.525831734133546 0.24422934640086325
Ni 7.9581038021863275 0.7608413162004707 11.211533472734482 0.460909065318232 -1.6489834402486119 -0.7538158223201405
Ni 8.022665993281807 0.10725645196721062 1.019227828352369 0.1224143352738795 0.4275852543551217 -1.3604246758027538
Ni 6.800852708310946 6.050495318275212 2.425590103374832 -0.42341003993150955 0.3127369043539582 -0.08144560617100167
Ni 2.5595139575240347 5.0567772447502515 9.735087774082698 1.172550825373484 2.010446606163679 2.932709537647046
Ni 4.34847066367441 2.2382125666491945 0.7447333184133437 -0.06973731659513796 -0.363714938063722 0.0012428712681656015
Ni 2.3666104708751727 9.023648846456558 3.916728582998848 -1.1865497107557372 -0.6068271401410065 -1.0156515689488572
Ni 0.9121421458808224 6.959281513348982 9.29092952455113 -0.2086725323421761 -1.8450529391147967 -0.838668140179846
Ni 1.6086958230479038 3.2023054348490345 9.523095843034543 -0.12587915389402837 -2.192213315253947 -1.753938185285147
Ni 1.9615565488948874 4.738438374407923 7.611798360625935 -1.711115433692666 -0.9664018307841097 -0.5066181373195726
Ni 2.2681962935674225 0.6222132813585596 0.9107674986146216 -0.5473184432524122 1.623667330081326 -0.31647143169572595
Ni 1.2756764369457387 9.15890583484539 6.111519467333455 -1.1806495432212183 0.062435640727402146 0.2841529220686784
P 8.995004858123098 8.609084667480182 4.97381629158327 -0.480285927182947 1.8528284692951573 0.3866224387895148
Ni 5.157399160289238 0.42170158911282607 7.293189655610901 0.15902890117311966 0.16948274951659198 -0.10804058305071071
P 0.7734725980123408 1.9567919856180764 10.945686881012337 -1.6731361262354154 -0.5494588866341826 0.6121238697635716
Ni 2.1348451304893135 6.622308954943878 12.492032968585379 0.22772543520856908 -0.08410592661198418 -0.6521315205047608
P 8.946717660398903 5.329206481617407 3.1403312035690587 -1.2548297260790582 -1.473766873572036 -0.04576872159468247
P 6.6503679869938495 0.37310870455661477 9.349740274510877 -0.017607171558801933 -0.20033701589328723 -0.010227334154963031
P 5.957694834333209 1.4808828751054148 3.491833321273744 -0.9054738849504858 1.047728394878744 1.0816201625301824
Ni 8.608773319780905 0.35407403839628615 7.198074820437607 -1.788900303182629 -1.845737366776331 0.645105724006231
Ni 5.066551675551788 2.692166946973462 6.932587693786445 0.4959010080123847 0.0864803403814317 -1.0826385764923678
Ni 2.6589942648323395 8.170763715571114 9.80261248571069 1.3006534692813922 1.4026231635476747 1.4490248907406658
Ni 8.213107002672752 5.45955738504794 10.026024272977166 -0.5957623976864127 -1.4556264552175835 -2.1502487978967033
Ni 3.9717210779920116 0.19652644169499106 2.172434232570783 2.5407500029153343 0.9918727213617047 0.4133418570622301
Ni 4.487161911534054 6.582588536339178 10.905103180150551 -0.4980522500274326 0.07433007817214295 -0.9741758183025738
Ni 2.2016339293735596 5.672198428875195 1.044565870206237 0.6724177815576227 1.5132870431538454 -2.3262773189516133
Ni 7.900589390829023 4.773932012125473 12.178573765820806 -2.2414018611634563 0.21017817035342512 2.379812314755276
Ni 4.766959710617426 2.39187680841042 12.238172319807513 0.4658530395870687 1.366529760259227 -0.9292331921536126
Ni 1.6990904384045868 6.986689545664102 6.864413869379355 -0.6390543756058285 -1.9592184041163225 -1.0040656638834708
Ni 6.42021599377697 5.790623771945551 6.167996996504381 0.7017106169844688 0.274856584368417 -0.8042919766928213
Ni 9.035706493719458 5.065683675905319 7.732901293910071 0.5878575410170392 0.6607951097170297 1.7236570178031023
Ni 7.219775755077196 9.286077217831794 3.0926355664734904 0.20251345471931573 -0.5630708209906625 1.2494108690563321
Ni 4.605200428675007 3.162301972881355 4.622438712958296 0.29952400520810996 0.4622437249692555 -0.31085074307483884
Ni 0.38932331534379727 6.033050412336948 5.10879684095426 0.5010427001143243 0.5783812260954878 -0.09201926792178991
Ni 4.741306547152775 9.349469496360294 10.788750657975077 -0.022185277847787597 0.22681757868231903 0.43774394005567835
Ni 7.210010759054424 3.9201222729209646 4.331156901160994 -2.529274912396199 2.264080019487262 0.4115012043090655
Ni 4.099835938855011 0.7226332926319539 4.584643932699728 1.811208736871842 1.1738093803709333 0.963656921049121
Ni 1.2017643800931914 6.6750682378031385 2.9389307551635717 2.429631295159932 -0.5194700535815763 0.28705184088302826
Ni 9.206740163188819 4.069021951405379 5.809107447025948 -2.0174803730820092 -0.8087507837951233 -1.0985038256593984
Ni 7.176422946647599 3.9111686678720665 7.318127662845091 -0.8615972381721935 -1.17985712922691 0.05977300629357449
Ni 4.896508657852853 0.33433082035063383 13.165858263705259 -0.5111394222286939 -1.6080576485685272 1.143992554119817
Ni 7.190235462760969 2.895486429379946 11.065836901641111 -1.468420007437826 -0.14019788450954562 -0.7664365964079445
Ni 0.19073726144419667 0.21424118230596154 2.880422861602211 0.5340582358083964 0.4357675330555979 -0.12375053758679977
Ni 5.970969568056917 4.42499615424513 0.13203972882963994 -0.9926810761956131 -0.01122106552680003 -1.8150782471295772
P 0.3889638502728141 5.42562992060554 13.367410612048879 -0.0064768659735952964 -0.6243895745048021 0.29345440197526235
Ni 3.8725898574980473 5.078788583611241 6.591662906556281 1.147497996169914 -0.1042536052044527 -1.979762032595629
P 0.049019336556432806 1.7874188372115243 0.9896177186732735 0.3820098797181679 0.9360998373664587 1.202684925754703
Ni 3.4386089038213212 6.605269744492551 8.368007200452318 1.6357062635237316 -0.9907375793159969 -0.12630698546006636
P 5.557046954036626 7.701326863291903 1.276309510600935 -0.05302051806108933 0.07272211025507476 0.9652805726954731
P 2.620179584989171 8.673448728221576 11.97935463826601 0.3687183048155844 -0.5944637334796471 0.10712115656023487
P 4.936134728669893 7.293121725203785 6.729336141787076 0.3103730321074719 0.2682979573142928 0.26987558621405777
Ni 6.670794283022158 2.1846418928160616 1.5806877388032687 0.36813080774323054 -0.06478794300966262 -0.44939232292788417
