# total energy = -340864.09932116 ev
CRYSTAL
PRIMVEC
9.26251487228760 0.00000000000000 0.00000000000000
0.00000000000000 9.26251487228760 0.00000000000000
0.00000000000000 0.00000000000000 13.55662678494502
PRIMCOORD
 96 1
Ni 1.430613912871986 8.250835013249224 9.384493632662501 -0.4405017053064736 -2.8964258727246635 -0.8749782874647898
Ni 3.504129705153314 8.546031355175712 9.861415880783742 1.2172260567936712 -2.8381273940940863 0.6256422159649806
Ni 5.122253964619584 3.144558886402566 11.720435916286641 1.2319363664206524 0.8453535226198217 -1.4107969576077186
Ni 8.058471108977828 6.08706527820882 3.118200548460294 -0.6757023658461654 1.167116798842106 1.1945944354370848
Ni 6.851741437734497 5.222381747996596 11.414395022206794 -0.44935864147647125 0.43505225215612814 0.19474460940717428
Ni 2.9106062913483055 1.1263588316168454 1.2805741430467448 -2.066422864418983 -0.9729067217821632 0.198657057087703
Ni 8.596502797508862 6.674910770532782 10.206580710497832 -0.19663951243704197 0.1461471601144451 -1.0426368392884493
Ni 7.568067270782096 8.854426780479837 2.442212966717679 -0.4301031356809689 -0.19402907139738843 1.3398792475512344
Ni 9.368663068872523 1.553638632466201 12.396125245057496 -0.49471598656534804 -0.024352460702435477 -0.6201179437126417
Ni 3.041976536643047 6.676846636094836 13.123614260762446 0.6449982518940892 1.1402899084572493 -1.6864402995434893
Ni 2.9249724515719637 2.0512301820310883 3.5819857720520623 3.0476435053834803 1.4764955853571087 -0.20535555215380116
Ni 7.407436741704934 3.3181198859324867 12.966669286264906 -0.6935959582971345 1.7459268849448963 2.1488483180047506
Ni 1.4511489078531918 2.833625532084074 5.257218991850369 -1.467434503596105 -1.9444037077009932 1.174426445129642
Ni 6.553896016617828 7.551570732188714 9.144608396974292 1.2490156905004424 2.3997789876851896 1.3319936741555705
Ni 3.0698103931692193 6.245991504590204 10.612737346685647 2.0980672307971413 0.5599788123289001 -0.19672281617946763
Ni 8.189767254155361 5.526044028314074 0.8121817446675829 -0.6760026706954035 0.36277108609321396 -1.8433950917963995
Ni 4.293629403943595 1.9395520428843143 6.709242281086612 -1.3599428510703289 -0.1341565634114722 0.2668234296512953
Ni 2.370944400238702 3.2791895368544495 7.4548024628756115 1.1272580149739553 -0.011001236206510086 0.5732881278432964
Ni 0.4002202905480052 7.746287315181456 1.9881061446847115 0.5192967612285055 -2.8292069516760048 0.6117968254414561
Ni 1.0416901851923066 5.931668069909457 11.68559496742701 -0.1829877259815623 0.39991632768494356 1.6722506383066686
Ni 1.5904756532331183 8.964141266520606 13.250165219684288 1.8959767225478574 -0.8685718697178137 0.30644567202860773
Ni 1.3294579903687165 2.7902028634003155 10.14712092394738 -0.19053108554645895 0.5537413160596206 -0.25554451430336633
Ni 5.247325699951665 2.5762758250214577 4.766157515114417 -0.8709303426476614 1.5782104833001078 -2.370193560718589
Ni 4.221826390369258 6.923081325576286 3.834694959274542 -0.5573105214681175 0.6402059727117684 -0.5115513129551319
P 6.473367714242275 0.8830825893149161 4.427906226335812 0.7692563252449268 -2.410099395774591 -1.2280442304550978
P 1.0705336558154348 6.398471020774512 3.6548669423317732 0.02736527938683029 -0.038284754512811485 0.5334288297545136
P 4.937096296746647 5.303688101602832 12.626005112419724 1.493237580702138 0.9101545782556067 0.22350522647963442
P 6.0632143029825665 3.2406019008184987 9.53251787929969 0.8601342804734219 0.6163625904352675 0.8047496330555302
P 2.260952038758405 0.431596132676709 6.057656794191984 0.3673754176344447 0.5680834437139055 0.9285137974890847
P 4.277846078978339 7.436437675077128 6.00623594410711 -0.1291007461551196 -0.25793564024336224 -0.4974729804851949
P 0.5792971175525797 0.49658471422232653 1.9770439234370552 1.0300942267367486 2.32490743518728 0.14548998614642042
P 8.835132962461863 2.8683599620252207 6.69683792146603 0.3630348812775619 0.1759552446148131 -1.3976899879121154
Ni 4.92588865401897 4.259849013011499 7.912040014860606 -0.11506252289449861 -1.2100678484823353 -0.24720539831005164
Ni 2.095625414753199 4.88320698650729 9.122959121480575 0.48791567581406303 0.39830064645839147 0.8939579138910861
Ni 8.680235929953652 9.040612587479034 0.3022923544005997 -0.47004753728439047 -0.8629632652817847 -1.156998993681814
Ni 5.4986269849471965 1.389321622557951 8.656909213056643 1.0649619851482113 -0.13823381880463934 -0.06175738371345493
Ni 0.9057479626658455 2.637232433939507 2.7764109790850178 -0.5659656260399544 -1.2162199841266603 -0.5909017271600017
Ni 8.080210230863662 7.191249649751238 12.471350757795367 -2.070225525994525 -1.4015152751954767 0.6153683448427982
Ni 3.969487703732817 3.1687896247295098 9.915587697719953 -2.7564205638418984 0.022035125423168503 -2.03386961307331
Ni 8.698297833523048 8.425822440035393 4.454774928835352 -0.726142267664272 -0.4856245657870411 -0.5437016724354313
Ni 2.9012974641240783 6.06934608768151 1.8443658110735968 -2.11384300557416 -1.593117225208611 1.4671809928244022
Ni 6.7744642780014335 1.9334850957879275 6.2942464271673755 1.0709125463046911 -2.160017190137377 1.788708755997113
Ni 7.128208975036721 0.41289511559639575 10.868605051404106 0.8297721232417968 0.01891020664094163 -1.2003146257503134
Ni 1.515440022045591 0.4029314285863448 4.056196882134965 -0.8059832483523152 -0.49536159056914686 -0.9972771802067276
Ni 5.092132266974623 3.4693211750949597 0.2629905784850588 0.4541565770857469 0.7800629289421275 3.5389815766155315
Ni 5.972589859637453 5.422479852001552 1.733594472111153 -0.5249853269728507 -0.5290237587082824 0.2261326368001525
Ni 5.824037649665158 7.930972594807194 11.455077839056795 -0.7864266663766262 -1.3836291389436752 0.6679841712663012
Ni 2.9197113432502113 3.2909807180051374 1.3380230376664708 -0.23409817150413234 2.4669572853039 0.170986330645312
Ni 0.2610611966832612 3.719649896052139 13.389947680785042 2.4914223603248 0.6033841758977286 0.5164970869961815
Ni 9.226474206465447 0.4759802503812384 6.2757964242341036 0.0832104113809083 -0.778132544688634 0.6259360930563155
Ni 1.8044304791559294 5.281948979717 6.12960152424048 -0.17003630802721686 0.05531419919127248 -0.1398415296113914
Ni 2.0695236484667587 0.9374035327370087 11.198451534388418 0.7020821413912747 -1.538072991849274 0.3665125554135172
Ni 7.908761084674162 2.926426666372166 10.884520830328873 0.6266115218567854 0.19490324647222565 -1.3952263568629715
Ni 6.552627052110646 0.3339951632964829 0.610468258107497 -1.8524371473940098 -0.5737912927319602 -1.2908938187914671
Ni 5.997700536856239 6.647299214358234 7.198379007278091 -0.23176103873052348 -1.2952544097530079 -1.938328705151507
Ni 3.554730822691576 6.007528064900921 7.718208002017033 -0.7317439301217656 2.5273998068606733 -0.2740415446662893
P 6.680570166984527 7.158117634844709 0.6710247263926242 1.1123749272145358 1.7584018774834558 0.009647293281776935
P 3.8281417301589786 8.617269355356342 12.096021622868921 -1.1911573847310775 -0.7189490923499424 0.8832688096083562
P 8.091288198386223 3.393007316885598 2.875279060469497 -0.47154391932425893 0.5553215160625469 -0.54156328593619
P 6.4264530775351 1.6267013480330712 12.409126110621601 0.5265742687265254 -1.3676268499781479 0.10475702720343248
P 2.223735254890798 2.5853438268647597 12.639995214548552 -1.0238374471937592 -0.976647419771518 0.9566213543585783
P 1.2581273650415783 6.817433083467295 7.555528604699075 0.030191178871399618 -0.34009241354877556 0.86268198659594
P 0.2861144463112113 8.295693371703882 11.631842742404485 1.1502207944177159 1.7715476708367943 -1.7535900579171089
P 5.023886059026258 6.212748339507865 9.41746262731117 -1.6326083413246981 -0.6360366718254271 0.07562077195910846
Ni 1.4126909470223545 7.6705014203072 5.367447547454265 0.745515015763929 -0.5099703416212572 1.5504148012440782
Ni 0.8233282547985631 1.5947364099725654 8.020723583020722 2.4284663283175534 0.9980721653041972 -1.048269869204511
Ni 4.517133882471559 1.2524216560165793 13.318382713837234 -1.1142078666582167 -0.7125401034998051 -0.7457127335970318
Ni 8.501719485085461 1.8540312451118863 4.607680520693605 -0.25720159029081513 0.638829404079216 -1.2855940038451086
Ni 5.320953428912244 1.5224424831217263 2.292100023026695 -0.11739014258641074 -0.6384931037857197 0.4288612928540678
Ni 4.650940169119506 5.2117298561479775 5.501916103899756 -0.5388392021368075 0.782693167476123 0.971534781135301
Ni 4.506463465593638 0.9427480036906197 10.83129749489292 1.9632635207199738 1.7212558645607776 1.3162814056266365
Ni 2.4077165834030625 4.675300582651563 3.848482212332514 0.8183430554692487 0.12866263017643648 -1.4468278830893468
Ni 6.912799934313706 5.15639559362307 8.891140609801898 1.0942332233085026 -0.5149824501238679 0.6333375277267093
Ni 3.0797583339043633 4.471330747522501 12.343362256599699 -1.3447959681265615 -0.8244689658613286 -0.5885365693619348
Ni 9.317626613145665 0.541636659233191 9.694533154317174 -2.8895785107855265 0.4115508266000784 2.606112587481544
Ni 4.534908648086775 7.278734100629673 1.2000513981799816 2.0863854235838386 2.2624265430442394 -0.2593132373171792
Ni 6.269416404142514 4.650819756429043 4.081832743934461 1.6273594342209328 0.11865229712828598 -1.5864282432242096
Ni 0.14205733469903317 4.489244450857481 8.126248633684854 -1.2181033171923021 0.03246120585249893 -1.767946069528465
Ni 8.440105237627193 7.539001499807346 7.315806389268724 -0.2883605323921227 -0.23584960697760027 -0.12390120423205113
Ni 4.08858511711502 9.020957531389671 7.757291182586812 -2.3640864193795865 -0.9294743616301411 -0.8627457499543398
Ni 5.839061448429035 8.956295916611232 6.438747213231336 1.9070687186959607 0.8982352011102015 -0.4266686560781232
Ni 9.294192451078704 4.370109987416675 4.418037016975201 -1.545392151218506 1.2125520483567698 1.2570480738866157
Ni 6.714813683649171 4.08906676787687 6.326348450444716 0.7359803368006164 1.6134443668017375 1.078412197115846
Ni 8.362142651809958 1.8774654071788464 1.1575475709495995 -0.5525043583287259 1.4885471172050042 0.8582530042903089
Ni 6.44218082741245 7.534157204644886 4.6407856743076445 -0.022936297081199205 -0.1563518685615888 -0.5584793449652382
Ni 7.926295024908454 2.3147116737926487 8.603265359455536 -1.0895520157827492 -0.028270050589286798 -0.3015047830835646
Ni 4.271621669132885 0.25384662402161884 4.498292075168551 0.03479293930946911 -0.9174282290988844 0.22160132458870224
Ni 0.5626051399000623 4.854317203310907 2.12940673193676 1.8542780572574902 -0.4973130578685629 -0.5395681098830319
P 3.0195612511876937 1.2439279300816377 9.122565464607908 -0.5600636587332225 1.1122769681840907 -0.9809241927700009
P 7.570595937281811 5.920858715311772 5.5664591584906615 0.5011815396850337 0.8697147250730054 -0.32259194277116704
P 7.2939709372305215 0.14216570612044957 8.177302688189549 0.8857080151774682 0.15722732918800664 -0.10814085607400084
P 0.1642169747500195 4.60782316341923 10.261837167899674 -1.1690332991385286 -0.044159725236349756 0.5088390562302914
P 3.3680911524744825 3.574747116852327 5.392609168503632 0.6453042131702822 -0.875970219064414 1.412737112053225
P 5.004721916213397 3.648254433122444 2.573766609802509 -1.2970086734399533 -0.22368031860491802 -0.39001860895525736
P 3.8346162279000082 8.943689634171259 2.3851530977132938 0.8124174340134332 -0.7751523790143876 1.3834846429460108
P 1.1777843129590437 6.275872376854242 0.46240140390291296 -0.9879607879018082 -0.6416077381553015 -0.623215608801359
