# total energy = -340893.8502998075 ev
CRYSTAL
PRIMVEC
9.02664355313593 0.00000000000000 0.00000000000000
0.00000000000000 9.02664355313593 0.00000000000000
0.00000000000000 0.00000000000000 13.21140526713128
PRIMCOORD
 96 1
Ni 6.095611072228256 2.105374314905009 11.347117247526372 1.2000911968855978 -0.5344806680577957 -0.15733531552078064
Ni 4.640128004751715 0.4146948314007632 6.016367974836351 -0.5273317157178402 -0.6853866830134647 -0.721397553890435
Ni 2.7660614278823816 1.5320921903139564 4.71434416441437 0.18715162755126477 -0.14712546486731437 0.7284169226310617
Ni 3.314754975755027 4.301998968299877 5.107199032022847 0.7238874101918242 -0.44855799995204687 -0.6284737718765048
Ni 5.1237755600278705 4.3771367482573 2.649203404630243 -0.16816608758769747 0.06211193883939625 0.0726336643063265
Ni 7.335935066775301 5.984132025799355 2.5683634940145907 -1.149795533954839 1.093548538536652 -1.2048827047369701
Ni 5.027361981492883 4.508736182904016 11.558156560391888 0.095320564380881 1.0316916531308555 0.23274859945477333
Ni 5.624122405659772 7.930556176447967 12.318142167146247 -0.9690845198225955 -0.48562148046324755 1.326214091359316
Ni 1.8926434090596724 6.519691807473293 0.2341402987457471 -0.24301192905399438 0.1487473167414535 0.5863673296247579
Ni 2.738196179596874 1.5792383489777742 0.26850563296918584 0.08034183158386164 0.3921783356107375 1.1268304405182334
Ni 0.41561284103815743 0.261828624819918 4.719444217955449 0.5712983511067774 -1.5370306666276883 1.4356153022029792
Ni 8.690292647843503 2.1453623453244446 1.4106215522662577 0.5096250424666965 1.3320733783535703 -0.004973799065507564
Ni 6.7805888826906635 0.6816009431531717 4.795740116265651 -0.06266061225401466 -0.7033139569158467 -0.395696376066325
Ni 0.9491515572468775 7.409637610426473 2.4858978849161977 -0.7209126438342165 -0.9606998953033262 0.5745299706701976
Ni 7.60796199334869 4.146397688758064 3.9086999898343713 0.14956184222294888 -2.4658074879701726 0.28984405891618464
Ni 7.537075762449406 3.5982096329178086 12.484143945254488 0.9876720530167956 0.8297613246085194 0.5595453243359073
Ni 7.9608495918176345 8.803062504283686 6.911678311983271 0.09158989369385517 1.193447723427151 0.26509847654038865
Ni 6.956653562900843 0.8502637757462093 0.379300459825673 -0.9128640067669699 -1.1551151463955398 -0.24792479297457948
Ni 1.9808969019289326 6.258487826379114 9.32425277227259 0.5117629147453058 1.5507176771964777 -1.6027346936937172
Ni 0.32361329114314863 4.839932757197361 1.2613470471084134 -1.8916858084819872 -0.052900447543457275 0.07414110208978844
Ni 6.41841286812655 1.8460388490019868 7.004356665464632 -0.048724718899212864 0.24473482528237206 1.2600223260235912
Ni 3.526167991658775 3.9795311582086987 0.2919297726844084 -0.7464989769437531 1.2311493517429828 0.20436002100975129
Ni 5.9250616711571915 5.538215840083752 4.8357046774121555 -0.17920614745194297 0.15261785544045328 0.5372137507182425
Ni 5.297384993223583 2.7373115685401914 9.176562443037682 0.661123439590726 -0.09961610643244136 -0.4637588760622013
P 0.1816945977209246 5.465343747628649 12.351699616782204 0.20421526790177089 -0.5724610039563109 0.3695251169875958
P 3.9511152846736235 6.200762441608845 12.732888450414592 0.5313706616739042 -0.7423163063209731 -0.7620060714404168
P 2.372165788285786 8.539610888974059 1.455659087023534 -0.07218346414278537 0.143161852233876 -2.0656564185666038
P 6.290794183234906 7.633949699799606 5.808592696237125 -1.2394604427118396 0.934072522523785 -0.7045992513861736
P 4.735133426910759 0.9648579168247146 12.585554673595388 -0.5705522169693723 0.5148125002049069 0.43900429482534076
P 3.9844687321679384 6.296264329156843 8.10448334749261 -0.07651294475607467 0.12798822981723118 1.3578844258794034
P 4.716412168425452 0.9441507967835892 3.6987438741811194 0.5630805911826754 0.4677757105310783 0.04848714896711004
P 0.10695308741032196 5.664381235382274 3.58001372508045 2.0698385749687516 -0.14713780616248853 0.19847810830767754
Ni 1.47717409165214 1.0436063541563527 2.70204898595926 -0.2091258178295108 0.5582538592179933 -0.7961166399708806
Ni 1.9993022278939956 6.449256908745785 4.825531650260303 -0.914664036090186 0.190435183398543 -1.3852643605542532
Ni 5.836374899403025 5.855737049572255 9.354176997925743 -0.3421634371451914 -0.37539571683575995 -0.9307241748768423
Ni 8.524139222125546 2.5993212703411137 10.228163695284891 0.47656039870224376 -0.5465013466677555 0.4553590820342803
Ni 2.340346870175513 5.1504492913798865 7.19999110864306 -0.0367667752063883 0.46484156760341877 -1.339706469418796
Ni 0.3588487937937734 9.170798931204091 9.372778202053357 1.0042356138024318 -0.7035654108050206 -0.10258495925277818
Ni 1.5741834286538725 1.2528168690618295 11.421457974868437 -0.7736009753668677 -0.779446121293735 -1.0117285797453672
Ni 4.216245855662261 6.6983561609929065 1.6930417560913262 0.468458852641032 0.05022778580730059 -0.7542223137299398
Ni 5.642455518477351 8.079929072019258 7.867946474914728 -0.3146487766646903 -0.03855729144790779 0.8941250355965698
Ni 5.39335626623023 2.74449677671488 4.963062492308512 -0.6611249822526226 0.7518805529706405 -0.5282328873758709
Ni 0.9525726551089466 7.445265772066544 6.8598771132997465 -0.8455764372639049 -0.41611016383598665 0.5866231543893059
Ni 4.96100712559824 4.621803918577572 7.214721688065515 1.729866231937608 0.03674157839540769 -0.6293422905243872
Ni 7.972114842825185 6.967702174465941 9.33616974693619 0.07516440114798023 1.4373415408654664 -0.7278780194084561
Ni 4.4804827889507814 0.42283957177264964 10.435649218629838 -0.25880544444282527 -0.6894809076874965 -0.7385648096983409
Ni 7.983190534320592 7.302942685018407 4.557287789950748 0.8147517385735646 0.07947048472250184 0.18229404234864735
Ni 7.60395416366331 6.480922373917655 6.992321441772029 -0.803103612811675 -1.684444095049067 -0.044244571640672185
Ni 2.3420438791413942 5.261720725009771 2.354576470887296 0.37749245146378857 -0.2726842593074465 1.254093362133666
Ni 2.3698910741400305 5.265114742941533 11.339296563653821 -0.08543313006383996 -1.3621930805570863 1.1796468129883166
Ni 1.1928980099367246 3.2920981007318257 3.8389303547280633 -0.8672621497674547 0.47728802089688765 -0.02011605402358471
Ni 3.6150894561422655 2.5679807643329235 2.441559915025176 0.3597713800349417 -0.4635493311545565 0.46132584114067643
Ni 1.1285109623110283 3.4538826310269832 8.180317081658913 -1.4125849027460768 -0.7792262919734452 0.23188933677827162
Ni 3.686102060049647 2.7709809485547496 7.090244275089438 -1.095389705510449 -0.8426055275610391 -0.4359523953728944
Ni 4.0264426241431925 6.691170952818218 5.940099156456455 0.8693190322964836 1.3011455784264623 0.14445151757957703
Ni 0.584884972063094 7.137935643016763 11.052502951084234 0.805903029933683 1.2651917860396726 1.0666884809210146
P 0.25630612436605554 5.701796672422581 8.035519791645095 1.0218970356379369 -0.6441307616874713 0.023303450612630835
P 8.422535323615124 1.7181222848769704 8.137234717869775 0.4032047686282282 0.23073696834138324 -1.0554409330316534
P 1.8639477095780954 3.178335313513733 10.2633594807044 -0.8318434039485288 1.6102639121912268 1.085214821859976
P 3.9679860812546446 5.882690606870773 3.7317335479449816 -0.08639600819774151 0.9181861903108316 0.44570227567080656
P 6.78314342278292 4.083987476044751 10.360462694797862 0.2542592198330395 -0.1275061479744901 0.2664601327746056
P 6.113312320005347 7.935367377399109 10.189058470593451 0.5294672740036043 -1.2168900136104912 0.017702302375769512
P 2.3387672075742936 8.52524047262468 5.6793185249394025 1.0308521879486958 0.22419788167128488 -0.8506268552036189
P 6.931794186879369 3.9635720526146665 1.6004825543033143 1.4056295544741664 0.13266892312235215 -0.2986310610801953
Ni 5.5223831074978165 2.7609974809150444 0.45434526535570974 -1.1146338984520416 0.32266547632157977 0.00040803407169607143
Ni 1.2982479654728951 0.97022876966886 7.07550015570183 -0.24351792215613546 1.2633467624111339 -0.3276238487681196
Ni 7.111478551107199 0.6903946991880733 9.45392321321713 -1.9195210855267006 -0.03146721737034581 -0.42422148008921134
Ni 2.6231696622978062 1.5659511298406614 9.146876520771228 -0.2811442171493416 -1.3146878358872713 -0.5497820743015563
Ni 6.48772846306805 1.990257531171586 2.5589171116592992 -0.4683374965718193 -0.14733218156148173 0.9376630680885206
Ni 4.0334563260926055 6.88572219878438 10.50570951165477 -0.07442160944468473 0.788389703640268 0.4412082444551949
Ni 8.128095241391293 6.961482817138855 13.613692068896258 0.564457416925544 0.5110471196252037 -0.13086452292376172
Ni 7.477870008155708 4.167330474885079 8.299629449261174 0.3286846859324662 -0.3856773012674261 -0.7432622151740103
Ni 2.8784972985154496 8.510527043824753 12.44462800828673 1.1268610366458527 -1.1559777515061511 -0.5498535509694401
Ni 0.08910199735220092 4.960754379582044 10.141061099453662 0.09775591329525099 -1.370190496940266 0.11277475530158641
Ni 8.422165231234267 2.4773352109532456 5.7995958407249235 1.3182999787185619 -0.16635140297646187 0.24524056127419697
Ni 3.739395362893067 2.654528221592867 11.18935950286781 -0.8280394568214062 -0.3770425084105635 0.9487936307840436
Ni 1.1284748557372861 3.2504040347030734 12.53679094042792 -0.6279047867469122 1.3472793966700474 0.3693119725355253
Ni 3.088953490215031 8.359078020263288 7.797820287392716 -0.11499438866072455 -0.40486467282915434 0.9241089835531697
Ni 5.579160694707355 7.6947802499117 3.5885745937147147 0.21212115301240886 0.43082021635265155 0.09157626684710035
Ni 3.199737485099395 8.284869984579725 3.396573374519092 -0.22980442922478486 -0.22548908967888262 2.034533986130186
Ni 3.633666288332604 4.309265416265486 9.30731608119449 -0.8064519604586177 0.7599566451105557 0.06985918688498292
Ni 7.221964666758191 6.027505047507118 11.419555158432225 -0.17495662814696966 -0.051952224697575045 0.41073912933206036
Ni 0.4351789933490308 8.89756243441034 0.2737122009028045 0.9658215328006076 0.5233403351702599 0.053787735244417045
Ni 4.487108345232466 0.09768543259505454 1.5126794909414871 1.0092212399424814 1.229412057336902 -0.5651858104511363
Ni 6.176877943078409 5.635477923101679 0.37208997704936486 -1.5869550622619575 -0.19677398113237726 -0.03539406322857775
Ni 7.797503452208129 -0.4265296636090977 11.54350451276732 0.4363786842770356 0.5497530208358339 -0.09677812276301397
Ni 0.17566931322770266 5.014526094527548 5.668842202568117 0.002769335215021037 -0.7145105969626145 0.9291858838554448
Ni 8.087367026210142 8.774393884732415 2.4970746748180814 -0.6286334373828206 0.7229903522988516 0.17187233279469108
P 8.408697479228442 1.703688682023544 3.6854539470509753 -0.3241942542612804 1.067591195240942 -1.282519735795159
P 1.7254880259203695 3.2781880431976607 1.6350961212212303 0.7513622185733253 -1.4793011731267038 -0.9598267486697535
P 4.445558705498683 1.043795913668499 8.139691770212927 1.501479508995956 -0.22353967926199567 -0.39041018796672117
P 8.569335625807287 1.5624036589704948 12.33856675324784 0.196201653568675 0.119854030745871 -0.5190360513679513
P 6.41353848067136 7.936883853496279 1.4071860117746917 -0.36941635932387346 -1.2587329177882065 0.23098148025202156
P 1.6882260418184665 3.1325070447915038 6.0334906147692235 0.2337798689327651 -0.1913407259319479 -0.03706579450404584
P 6.898404632811312 3.9818780855019384 6.166092909501629 -0.775380950085426 0.555515634351224 -0.6491539259336756
P 2.2659221950494977 8.417254737205333 10.226433287738299 0.1754893607219881 0.003664850446096914 -0.08408921444143583
