# total energy = -381174.23595186067 ev
CRYSTAL
PRIMVEC
9.18938763140426 0.00000000000000 0.00000000000000

0.00000000000000 9.18938763140426 0.00000000000000

0.00000000000000 0.00000000000000 13.44959767610138

PRIMCOORD
 96 1
Ni 3.226835095417629 0.8354210155747996 8.331635506040742 -0.35648139642976023 -0.3739872665240075 1.8848438458594894
Ni 6.822596536922182 9.111718948110651 6.321458794922959 -2.8147537523651525 -0.12149799410719721 -0.004774538570507906
Ni 1.274393469043287 3.7223544458060824 11.433448982445427 -0.08328754447574688 0.2487200351823652 0.23118588295334377
Ni 1.492384122937078 2.293946839706057 9.212638641188486 0.7841388987837141 1.9281908453865568 -0.409318851945766
Ni 4.819208945402104 5.066697533660579 9.127906054460617 1.6934136455375286 -0.8830191554913955 -0.28519524729026363
Ni 0.2922629606567613 1.58277093988756 11.076080129209116 -0.5512141787623926 -0.5864457482711771 1.1104548273736874
Ni 6.992388852578349 4.688986132977817 12.413830750361672 0.7100916419593125 -0.6959981399807239 0.2040121507520293
Ni 1.4149911001273021 2.1739334369637544 13.398704290962485 -0.45721233319293514 0.7095517102954425 0.6154362219662561
Ni 6.049732277792117 8.400304124213188 10.508721821908086 1.0357869062461518 -0.003440393140116655 -0.6163196530124739
Ni 4.255072437412059 2.7725577168138194 9.345587025990516 -0.8549848750619984 0.2550462345107092 -1.2365604954562253
Ni 4.306459493165118 9.120742926785455 3.965533211255513 1.0421611852036117 1.3848627542404601 1.2923066399785936
Ni 4.160954729074641 2.2090460871841477 4.867637937269807 -0.9348448819134351 0.2314558487852788 1.1705600201957003
Ni 4.238853168205308 0.13086423168243408 6.4900629227556506 0.7295440942569694 -1.262475158439458 -1.7332400335058473
Ni 8.561734097105534 3.979335671509643 1.2996201760270674 0.5655704474840646 0.8676730120526283 -2.01513398433702
Ni 4.625634494501138 5.140074794066192 13.457802161894799 -0.23888170893570476 -0.1857712022639704 -0.7595545245761306
Ni 1.8702057962716716 7.692436403949608 7.331684937118391 -1.2441205671916702 1.0485583469792072 -0.6591812282626904
Ni 4.94233755055862 0.6837262799615651 13.460088481542753 0.2610258491329117 0.43800979212255536 -1.1799718004279034
Ni 6.153572358265931 8.586931398048826 1.6852215849483094 -0.4687414168784572 0.09125333629004283 -0.11212889418747139
Ni 7.170120799166318 1.76284618032693 1.0555794460158274 -0.6826268608801405 0.6014453070038028 -0.12527468754081003
Ni 5.118066210638334 6.173513329471965 11.237528480876765 0.03497163097917848 -0.005817378012725465 0.19829016066658756
Ni 2.7318487295130227 6.788853105462018 13.349546580653934 0.8786002004880933 -0.28998032738373286 -0.4534271551188901
Ni 3.9496355706166018 8.390324449222518 11.313075355707145 -0.9952074421618925 0.5807744089180126 0.06773596989439302
Ni 3.925697215781709 8.0034052821119 2.142252104092823 -1.0412677268550647 -0.28021579179780126 -1.4922821587674042
Ni 7.620814316585633 8.182230765830523 8.280029742861553 -0.90293929145409 -0.11455421579951239 0.9198604926894609
P 7.240392046545368 0.7933372958811816 3.0666024997364096 -0.10373475658650522 0.6468085656299506 0.638073756860114
Ni 3.0630250711232723 7.662515757752905 5.127080999925486 -0.2839073817167756 0.5888456159619214 -0.8526760244231636
P 2.0251572508689697 0.4051150736014322 10.553334461083685 0.5646294237270341 0.2960779556410385 -0.16065743791547815
Ni 0.5326481522598169 3.038930496698286 6.702445293365091 -0.6835884534624614 -0.027675354428081368 1.685970301885606
P 8.440507695193094 2.8318108883974618 12.79231589748478 0.6406446029110838 0.669967520244917 -0.14265225958730918
P 5.517602406995903 0.09035097833863688 8.250574998618832 0.6907834285490039 -0.03182820025419035 0.8250130112902566
P 7.681574547744294 8.307702664838441 0.19186430585882625 0.682348153297457 -0.2039131632803198 -0.40431188564947784
Ni 5.213939092017388 2.901255090887782 12.707166112557488 1.2472786532046776 0.1990362948039927 -0.8621140299076121
Ni 1.5991556180720568 3.099993977649481 2.6810295779168904 -0.3294593593149616 0.4487217792234207 -0.08596380575632936
Ni 8.507231838938258 8.747451621563568 4.529340739167597 -0.13700148905943502 0.5597543550229198 0.10575101568558562
Ni 2.750383724408216 5.420176519103568 8.762923793554167 -2.0172348327301064 1.1489534976695182 0.7952008130248305
Ni 0.21835455364483217 6.695332707322017 8.73648224952272 -0.2431173442836071 2.1905904349385437 -0.7487399504591299
Ni 0.29588633620816174 6.496713282599802 0.3948771768177262 -1.2338973468017653 0.8128056705907872 -0.4485510579735114
Ni 0.4887816913616042 4.4228155196217065 4.497491240502623 -0.3628078528684203 0.6556942981553545 -0.993308939587599
Ni 1.4862548013728272 7.697343536956069 11.828948280807232 -2.0866659309387354 1.3941256675996248 -0.24894269271613256
Ni 2.7093439191519275 9.198577040202553 13.189455501542565 1.2586670975472776 0.05517176007613724 1.7568985534650519
Ni 7.949187894961855 6.013810961458298 3.2651456525411096 1.5691602001723814 -1.49357748054006 0.34624146386930693
Ni 7.302006890755716 5.882384339251529 9.745739830259572 0.13337571938138965 0.7458744559858768 0.926910714668023
Ni 7.2271685177133485 6.852011766797994 5.8443476258800935 0.20960044347308418 -0.16496686392410945 -2.185125040948598
Ni 0.5751224209286683 4.680302161646157 9.007747459393403 -0.24702722086097453 -3.0466762563742043 -0.1432721525594952
Ni 3.7916516180939617 3.4018837408110536 2.997081106389808 0.9437303573285231 0.7411109731589623 0.33461236427081076
Ni 0.5961982815097917 0.2906676829602787 8.684472153286817 0.1112878863434148 -1.3978895055174314 0.35879924592965945
Ni 1.3145327143096255 5.19988851829664 6.462934931466559 1.3144800907518392 1.9975255272266372 1.5551281475593477
Ni 3.6111996127608377 4.231483279307963 10.98514746263207 -0.7418946454025223 0.04043368253501423 1.5865220884895967
Ni 3.7242566490501603 6.6288199194928605 6.976387371858963 1.7293003321318088 -1.7907453268111673 0.5930370283354497
Ni 7.207475659973934 7.045494323822435 11.999650345841 0.350646534915538 -0.08468879569864769 0.9459420202678611
Ni 4.587875300636809 7.3209370293199685 8.985931853106251 -0.4478871991372674 1.812300427274124 0.5322121837385931
Ni 5.289145040565859 2.0918997733894407 7.264423214195552 0.445998980975619 -0.05864300645418933 0.004741371339727319
Ni -0.02324179925082947 1.5872921186126145 2.112702709157283 0.8018489144689674 -1.4903443183147431 0.023614811205462556
Ni 0.521329583488171 0.10460096177144618 13.237578486801437 -2.8316600412021877 -0.983295264105339 0.764843797999528
Ni 2.988554273587007 3.674735038990568 7.400734914878417 -0.5123187872487758 -1.6224766522073348 -0.5271496816140212
Ni 7.0307361672524396 6.156641613741884 1.0099853802389354 -0.29449544164526703 0.28600385923448807 -0.337114047646742
P 5.056258389287284 5.986160094011776 1.9382348330634993 2.081930730246595 0.578747608295971 0.7893489822297437
Ni 7.551333356544702 0.9761978397180394 9.791118864365394 -0.44471420072592444 0.9225071862836887 -0.7315392703101272
P 1.8884467307619832 2.7385477931117315 5.1337791445854295 1.802128886057761 0.8262047176055126 -1.7707244036045504
Ni 1.4901878592881188 7.561726553979737 2.1767637683607397 0.2490427086291066 0.41736511928901027 -0.22562150149168886
P 2.436492620972413 0.900047222118888 1.7915400432720174 -0.08258820441587712 0.46821948293671617 -0.22597682794857854
P 2.1911359706493276 5.840866685837308 11.164201762103243 0.5555007219528885 -0.9233371383841518 -0.42872656704841655
P 8.32514412260298 2.4646948516780887 8.38909215233831 1.0615825271530168 -0.24883162105956505 -0.32417497098757075
Ni 1.7751415810060418 0.15072617415465564 3.773378520746866 -0.02773757512458449 0.4741705583138284 -0.03424092346074103
Ni 5.392158076150944 1.4817979483613406 10.683526948528717 0.7020857409357005 -0.49086190292658044 1.2070259763322182
Ni 3.0561330303838594 5.745866796285246 1.7826502296569404 -1.179603104234575 -1.6669500520293614 2.266725427529909
Ni 8.18557570293605 4.9769264056828195 6.80674760003783 0.3919749613506797 -0.6865081982124177 -0.4722211478969416
Ni 8.777004692254168 0.7945208890108301 6.637174910746559 1.0827558187965223 1.2718288317402162 0.2570972035024669
Ni 8.549990059685575 8.216727727078196 10.522185193757839 0.9511855280549876 -0.5000808504216872 0.5495797284827632
Ni 2.0972571863908773 0.9950452737934194 6.270337312473059 -0.8398459625380311 -0.8125549880325618 0.03404346273795428
Ni 6.471139216762754 1.692060327239337 4.985200530325175 0.29975617582357406 0.6629373528710132 -1.0395489443917452
Ni 1.592943592018933 4.5440511109217985 0.4215659153770272 0.8122050608923108 -0.6021307631066017 -0.8227535258321185
Ni 0.9645732643375636 6.986930356312733 4.459765128433845 -0.6888057359973427 -0.7614396574139853 0.35514647966842067
Ni 0.015969317862601397 5.783276793418777 11.275833524367654 -0.45281497545618793 0.09583478501313818 -0.05540573046381426
Ni 9.098835426621775 2.1289054374662593 4.434507177532046 0.013710407607557033 -1.5370391512681205 0.8614293451357616
Ni 6.266261819049152 6.20665026134706 7.770989127481135 -0.9931014515624833 0.6085464368249583 -1.1525471285580473
Ni 5.072183598089152 7.5965910907335115 13.295276813994269 0.10473311594403253 -1.0786415395178326 -0.4215603883172804
Ni 5.895708951347726 3.7249090955734916 1.505010341571682 -0.272793274081485 0.6998627651424528 0.11239474625434837
Ni 6.111291985676549 7.262869288743506 3.6443025439016186 -1.0012909293518113 0.8147648511996871 0.0779555907398722
Ni 8.292540175211734 8.175274399377543 2.2911927802265883 1.7778520157882673 -0.33876675275881657 -0.4111808448551692
Ni 5.093613250094899 1.3945447126003783 2.1975565958021646 -0.8242632776084257 0.8924900710963082 1.4134300243551916
Ni 7.6656493389424245 3.424351793621538 3.168092853787468 -1.5015229606393818 -0.556381581895945 1.5293289271080566
Ni 8.068153707511767 3.620462515514608 10.29056943479161 -0.21228236118062152 -0.9441368487383225 1.397989264320089
Ni 3.1958392908655773 1.830029793454723 11.776078057887052 0.03930342558531296 0.23409817150413234 -0.9729985101650211
Ni 3.2461971352015513 5.276132867649847 5.0076079331771535 -0.7865667914989164 -1.0255649714078272 -1.1018809696617475
Ni 6.7698310730212405 4.04855013930865 8.334433674580943 -0.48533223135760284 -1.9413546364620244 -0.02047652268679699
Ni 4.931714618432273 4.322375512579335 6.37798731306762 1.8310103449788013 0.2579883478581686 -0.23238298858523848
Ni 5.504479961428062 4.795463567707914 3.815032177098345 0.4872250775049416 -0.18793350002261183 0.2828514296484354
P 5.821403562789207 3.8822865485110625 10.752065996335261 0.12190448551699651 -0.2179380168045021 -0.4826680542618784
Ni 3.609968234815396 2.820443615871257 0.8415926083222522 -1.2851319766070255 -0.32254129203888965 -0.2802415028294141
P 7.043720772005493 3.8391883204206034 5.249580132027804 0.13967543634717233 0.06665816344918198 0.34055161257338123
Ni 2.2298416714418687 7.63305458093883 9.703145180612472 0.33389785470228944 -0.20381031915386835 -1.507523915417823
P 0.8736819500049567 5.386975261514905 2.4180899532594164 -0.5131027166026517 0.15626239417157603 0.39078942568301084
P 5.163415838703669 6.3639817673463694 5.3669139093306235 -1.0256912125730462 0.3368919043336069 0.18099126437682378
P 8.914983347857207 7.803784214135556 6.553451318782941 2.274497872386476 -0.00868364381692698 0.35734760108479746
Ni 7.408144318142668 0.9603001990791279 12.415176076714006 -0.7425921856901792 -1.2053113076339566 -1.9408887525691991
