# total energy = -340855.92363502685 ev
CRYSTAL
PRIMVEC
9.44495470013484 0.00000000000000 0.00000000000000
0.00000000000000 9.44495470013484 0.00000000000000
0.00000000000000 0.00000000000000 13.82364591429413
PRIMCOORD
 96 1
Ni 1.8315467533764984 6.154417580734675 12.891434922560379 -0.7647995750251538 -0.022359855752438908 -0.5447416836641715
Ni 6.0615547847116265 3.88181977102291 4.499873059110654 3.4550602552105274 1.0181393683677176 -0.7627156959129315
Ni 9.607124718344727 5.370354099341526 10.919809099401796 -0.07893081016894793 -0.13346905042614432 1.7606837315390969
Ni 2.4147916048833493 3.1855471449017547 2.3349656800310297 0.8455419844815438 1.107186955255693 -0.9375355413717209
Ni 6.272281172228943 2.9593688112601795 8.015199302838813 0.09722009539643901 1.6029491236973685 -0.13754810559152442
Ni 3.6568409466464815 2.8540764546628488 7.739983708144341 1.3370641466999424 1.0794797191484118 0.08918205558331092
Ni 3.4784351946042333 5.481011190290067 8.877684244299026 -0.012410200738894756 -0.08842152326820256 -0.49013350940098815
Ni 3.181551929002879 7.99861112864686 4.832704767342535 1.2703615031660702 -0.8320030694548446 -1.2817386346547603
Ni 5.808826683004469 5.936503582581319 10.69946019188974 -0.7535165459121668 0.4470533903820624 0.6118785865219849
Ni 3.5394496028943983 1.281397023641898 0.9195353022024864 1.7667839308995636 0.1356963970947663 -0.43659002895689325
Ni 0.2721025375779946 1.5534022781850025 6.159816316923322 1.3284494084477378 0.6197489904089971 0.9472411986952588
Ni 0.8046695393756028 3.887618973296928 3.9751963725894552 -1.5073539654988621 -1.5664569423086054 -1.0419794082101088
Ni 8.708748948478535 3.023972302390942 7.814521402779685 0.3854153058552911 0.0156742162021472 1.0086692240937531
Ni 4.0356780854264365 8.664565449719806 6.903431779198416 -0.7971679640535303 0.7999033607068224 0.7193147032194773
Ni 1.3408057896086372 8.403431338201775 10.563808916938372 0.6275049802053322 -0.39443319308318525 0.8566360375121763
Ni 8.92152489119693 7.827496881743931 9.159948608793334 1.0213200800885445 -1.0828746037625736 -1.7510582926341909
Ni 7.345294157154756 4.9606697380421165 12.491254074824678 -1.4591658358294095 0.39241796242536936 -2.0775212883249896
Ni 1.0725596270933166 1.3776977832280464 10.152003218781072 0.6328155937849682 0.33844022265733326 -0.5985821265233948
Ni 0.9301287635551565 8.086845896796506 2.351817368463121 -1.5083104158748604 0.5068996731157334 0.991691458588834
Ni 2.6059291560548767 7.415026258765637 1.1591556955775855 0.4092941693554177 -1.791329738559728 -1.330552827943986
Ni 6.353422779290987 5.067917200292089 2.164271733618645 0.590328628265351 0.317749269966885 1.2103406425277479
Ni 4.329860093942499 6.133534785575302 13.15265970564491 0.5949123909812916 -1.1499654838738003 1.4664117187585455
Ni 5.112846850483469 2.090187396815798 5.76911914834616 -0.8445983896213519 -0.5185300582658101 0.5609573741920855
Ni 1.5774869130363833 0.4093065631056629 4.2577931994942615 -0.833229742773094 0.9379613160552298 -2.3480208812762915
P 4.220223058117076 4.331909649143578 5.194193413065621 -3.096912269711621 -1.9707737130540899 -3.2822612968365092
P 7.526561730514639 9.16499693715728 12.185516164057374 -1.7474752032686227 0.33831989502938503 1.0362849289284926
P 9.352894868817426 3.2101701421792255 10.099707448307106 0.1273894198909677 -1.1713002407958344 0.8522217104945645
P 6.887034393094306 8.200166465010964 9.370164968749092 -1.1299219349593637 -0.07976719002731425 -0.7753069023143808
P 8.927909680671258 6.191366244083147 13.020215937358453 3.064373930764284 -0.529086750735734 0.5587999615294506
P 5.028626188142385 2.3046162066318368 9.887569984536144 1.1608713321530264 -0.038661164015623736 -1.030357507700464
P 6.418715752125338 7.1425676463900345 5.83380008810664 -0.1695411135583532 -0.540823579556688 -0.09093811904246919
P 0.4785314706414377 6.917192133910173 4.115064819878525 -0.024428822466325672 -0.053753539572371944 -0.0557227474836008
Ni 0.8546947427051473 5.322213164503296 1.8806104603029565 -0.016273540349042943 0.21354657260502577 0.4254211568242673
Ni 8.236491761339753 0.5474815299912614 9.546361545853404 1.0640587566076514 -0.09914842276740343 0.7283081649673393
Ni 4.20418552479251 8.535273462864687 13.63377814941803 0.29112858205556313 0.43563152169836583 -0.5974616397657065
Ni 3.972283548515665 4.096040791832388 10.687129803341318 1.378682079351045 -0.030568102594844132 -0.07073516173203302
Ni 4.198527996841146 5.443136921366914 2.2825461806486125 -2.152503655369151 1.3002477492025415 0.5542668495457874
Ni 1.262280435038292 2.64111161284758 0.11144952265992504 0.8629642937230492 -0.6674092725994376 -0.17396006856165525
Ni 8.434155776308263 0.6492424179725407 4.626497790717918 -1.412227005186026 -1.1069594126259195 -1.1859023069797254
Ni 3.643986363104235 7.290872327345479 11.332265554947826 -1.223921466535976 0.1530739691412654 -1.4996961918432883
Ni 9.10742993738506 1.0129619620297037 12.017642481161312 1.1900189002512602 1.096031452859506 0.5189247226010676
Ni 8.633963796026286 7.3516978365387695 6.048260066273663 1.8891810397822626 1.5072673193223267 -1.5018862575160716
Ni 4.79590250079414 3.5580561639364454 1.1547373457017125 0.11632133500226419 0.2492316847114611 -1.1764010523575095
Ni 5.5458035805177035 8.607565147238205 11.070155779594442 0.7576020288354501 0.25096255135963874 -0.10943103564033412
Ni 0.18309611661761904 8.283508746551586 12.935006388245236 0.9171554350534721 0.3786875002131543 0.877953825153346
Ni 7.20869177525063 7.243118635655839 13.5029097995995 -1.5033916384170043 -0.7257414326814275 -0.9623991373826198
Ni 8.73651711571895 0.3428934186268513 1.2147033640042288 2.5187022790866753 -0.010209593543150158 0.7954630655472816
Ni 4.616656147770805 5.163594592858554 6.872743231920335 1.3785807778864902 1.2591486651693864 2.1060566767605216
Ni 7.916307792139043 0.11264525394313477 7.415183045016041 -1.8818089156879076 -0.1480361496070418 -2.985799218383174
Ni 6.813713208642827 9.173251827690656 0.6037205691124622 -3.1212287349697987 1.525743009529011 0.3890539310491429
Ni 1.7292862272839884 3.556828319806767 8.943732813520871 -0.1171039788045596 0.4281213293642498 0.21208772867131215
Ni 3.4416943202623234 1.7460699120412058 11.14943389706583 -2.2007642901477515 -1.0937015191747486 -0.7001859528098264
Ni 5.1320673335903555 7.022503380417191 8.196634051899428 1.1174932222777076 1.4865984781190655 0.5200063857010205
Ni 8.25250095979979 6.808556263298179 1.790038065829499 -0.10427108870594945 2.070340454305834 1.4952556395734315
Ni 7.742586737699259 4.4936450558867325 10.163323941656705 -2.406111871881753 -0.6753524387059143 -1.8631663608860558
Ni 1.478088208261508 7.530925299652418 8.097560253571176 1.4819751204144413 -0.4828207777896588 0.6349817481983516
P 3.630508412542305 0.9238809259260631 4.358872161735827 2.2099909509523425 -1.8715774677678865 -0.26320871571684346
P 2.1316507485795473 0.2031099759313743 12.48665060383387 -0.17324710165503068 -0.47956524696683867 -0.6840697639742542
P 7.595406006370213 8.734089762324125 3.071808165187722 0.4510445138193265 -0.07198934585410828 -0.7740360060217573
P 7.249050067297669 2.1686655266119246 5.656774243967054 0.7629800053179118 0.5802725295809297 1.1341958797443692
P 3.9856198247549397 8.650237453221944 9.15968603904868 -0.5484641268210813 0.21107754223924297 0.5423335884433113
P 0.3757920853383532 9.660772061856823 8.142556018446461 2.2561049717015855 -0.6278088845989962 0.12946507147307382
P 2.6650073486020873 5.059492300571527 0.7737146443709301 0.483252980231071 -0.6837458049759321 -0.23257659265328331
P 8.152006640263046 4.137400249092857 2.9478922466296256 1.1192001776664853 -0.06226980457349921 0.5558012839124428
Ni 5.863682980736556 0.6470322985391199 2.9575553799301937 0.13686599192283525 -0.587065127022731 1.0765201222994556
Ni 7.106667373029213 1.7902345208902475 10.725628383779636 -2.029194576195144 2.390188258672961 1.8226002665382355
Ni 2.0035204911702014 3.6165015445091293 11.567931345729876 -2.988588351092537 0.18324457918737472 -0.21288374221004627
Ni 2.64457791127521 2.6276053274211195 5.043266812645572 -0.6656498667061697 1.4083811490773746 1.0123896103681338
Ni 7.5563038933173825 6.4918197026154125 7.681288980763784 -2.130905874593717 -0.09278802776701439 0.7890227092385766
Ni 8.969864170086877 3.350040478459264 12.71805860897239 1.028149958526184 0.003078124704691473 -1.4212420642004424
Ni 6.869098423846159 2.87051067609085 13.486598362584466 -0.8918953749351026 -0.2637332207617458 -0.055002324377808505
Ni 2.3922370527166446 5.605032892342413 4.017317093210325 1.026540447947219 0.5812832302336312 -0.26052474112677715
Ni 3.972670791664256 8.599376371388734 2.562074341724707 -0.24342381978043237 0.8324820659737922 -0.08225190412238093
Ni 5.528538203063458 0.8197408538196611 8.284662920033483 -0.7885254578871839 -1.4384175475384646 0.24706912984250354
Ni 5.917632562803648 9.184699112961194 5.539079717164489 0.35374008623919717 0.502513885343212 -0.5699102125099992
Ni 2.248333720718355 1.1336401500673872 7.734619918288616 -0.20133691791271136 -0.7891219538206022 -0.12299823280180752
Ni 7.737099218935081 6.179418376205892 4.186891812473734 0.1365983400837454 -0.7993747418968621 -0.4661841976742423
Ni 0.0023329038463886544 5.529426028818764 8.324019102371608 1.315231624205883 -0.9278720501400278 0.21318456127991672
Ni 5.454688101140735 7.0482503273210595 3.6104180490943163 0.5320951985447545 0.5130934606312711 0.6380539593657721
Ni 8.260123038358637 7.399800991557626 11.207921779935312 -1.4920080791704111 -0.8749960280766027 0.5051397530018333
Ni 5.23036097864852 1.2018516139484352 12.289497560922403 1.2150149080749657 -0.2846684282525162 1.4829379985483426
Ni 0.34498830961117927 2.258836510504526 2.1769619749466123 -1.1248085249921984 -0.2794339193264542 1.0564256655424258
Ni 1.5418227635466524 8.69037851130758 6.087754144952506 -1.663906380107031 0.024403625655345068 1.836634376033798
Ni 4.514348396904077 2.7217715272125966 3.3295912067272155 -0.5416676727245381 -0.6433892555357564 -0.0630043687466786
Ni 7.980429590572778 4.437570358979812 5.97375070650285 -0.19923838351246978 -0.5156491371735894 0.1783898221982347
Ni 0.7632978036738367 5.310076397529168 5.665040468446241 -2.2701233974678643 0.6462742903930353 1.1142652022587134
Ni 8.079167148508596 4.811987258892925 0.804343688433496 1.8321349455015479 -1.8398366850211798 -0.6235971605104937
Ni 3.513390972480688 2.9769269823145783 13.161589910449607 0.7607719419229994 1.1498685532846198 -0.30189019144744134
P 5.353664864132746 4.214423855843058 12.425564413886892 -0.777528592556048 0.2668725377216759 0.14940860447453624
P 5.988384719537646 1.8707149811132342 1.296747908749329 -0.31085819927400654 -1.0789050775918645 -0.3888634123048916
P 1.8755319080835104 5.900716648678619 10.066462151752841 1.19976826632854 1.7517450342885703 -0.009273711992442093
P 5.665943406129297 7.079919260911914 1.3365064461637945 -0.8685955238668976 0.39362586669054145 -0.2844995067748197
P 6.19730712067982 5.238426970085022 8.683433636011022 -0.4991763363295468 -2.4440929791112165 0.2726667758059497
P 1.3017225664654946 3.6037886352895376 6.78562674642418 0.027979258821745363 -1.7839619853407471 0.32455292315227974
P 2.296701334472834 6.36555010131027 6.42194025970897 2.953507962449636 2.1483947754071 0.41709849589118486
P 1.8914466569951092 0.507166684736503 1.753598485547102 -2.2030332886875863 -0.15483260370358495 1.1900980902286278
