# total energy = -340858.84431666817 ev
CRYSTAL
PRIMVEC
9.39195405801598 0.00000000000000 0.00000000000000
0.00000000000000 9.39195405801598 0.00000000000000
0.00000000000000 0.00000000000000 13.74607411717136
PRIMCOORD
 96 1
Ni 2.75380545270714 5.656830271233921 1.2226436379949803 -1.696991592696774 0.9627552351704581 -0.584642119403535
Ni 5.123357889693047 6.4114080348320694 11.048792411356363 -0.4769283235646237 0.5519474573839914 -0.7823419547842912
Ni 3.4287394460289455 2.060829515670611 10.527252507425878 0.736399426615906 -0.45697784858462587 0.27491212019670075
Ni 3.3556982194441423 0.38643288825438693 0.9726579972584889 1.796062368148707 -1.7878500075412433 0.1370678235209962
Ni 5.729580347243421 4.82893891438375 12.552365361070084 0.14307700582955357 0.35182281461182635 0.31942614344867565
Ni 5.166992908172279 8.302271358204214 1.8856310657753341 -0.018209066808858962 1.5640989835993904 -2.1374411046090738
Ni 1.8065705358449997 3.6383584682928274 3.294466435871778 -0.46467470300825137 0.24866141403028785 -0.2768049663440394
Ni 4.929583093898055 5.413907379937029 0.995793197650201 1.7951617107113083 0.27852297747641064 0.05630664501152883
Ni 8.57986934382425 2.7644841044529187 10.72475590897555 0.5740813131685533 0.058413921162518756 -0.07925014118157964
Ni 4.065795688699278 1.9445946924465507 6.920351450001396 -1.3088239209073267 -1.5780577597723275 -0.40478651129305127
Ni 1.7151304712918765 7.399075313845114 5.075572566722644 0.42670028064700705 -0.4663137812735711 0.6557328647027739
Ni 2.3570987059261856 1.8163381680487023 13.0557186851936 0.3310521577233782 -0.822436508812332 -0.9070767106612313
Ni 6.624079442159609 7.811804734221758 5.504257977821279 0.5845924971125221 -1.3082906741116758 0.49283419616160284
Ni 4.685026002597851 2.5041485303621194 12.508144284658629 1.0037309062518711 0.9411155454134954 -0.17560300348171692
Ni 0.47592318314838655 2.768015479172719 5.099518292748183 0.4352512555408117 -2.7815785511647646 0.5373952706014293
Ni 5.563596343458771 4.530716197687435 8.68378004495437 -1.0663102716459893 -0.8382161402440919 1.9007371200509782
Ni 6.268687901209508 9.211421901425958 3.8252160899358705 -0.4568858030914518 0.3659957636780987 -1.0246054357080354
Ni 0.4489457343580834 6.464416223445241 1.7193728169326576 -0.22096420522533558 -0.3016953018278159 -1.91534509977214
Ni 1.5522552042951363 4.7840923338330965 9.731753060871235 -0.8973530556155642 -0.03148212976868126 0.1783142317652929
Ni 4.808624117790857 1.6024645906037842 2.868311217192064 -0.17438764301737708 -0.8916624329886902 -0.773573464563042
Ni 9.236714433661122 9.508414272142767 5.035819242848979 0.666226565145246 -0.96069963819301 -0.06290718104718199
Ni 2.227020142444185 7.071380645364935 9.758874206558382 2.4562445268720863 -0.19670584689860315 -2.669374323654667
Ni 2.859239528782876 3.165436014460867 8.426274266616431 -0.48578808794809875 0.5844073776849096 0.9141760407101739
Ni 7.751236022604759 1.5117758823740226 4.272279676703932 -1.4904589895157365 0.9046027951994421 -0.2393151969286975
P 6.773270632117124 8.473139178090715 8.188646559008433 0.1613236107445673 -0.08495053400046661 1.6607354385782174
P 0.5269966292289006 8.949686926182897 8.68525082495735 -0.22633523972926178 -0.11839055882646708 1.9249659106913557
P 2.7019712583492224 2.032935412165807 2.074213989375896 -1.0463353711859593 0.4047777695423029 1.1070817971363967
P 3.38736788847384 6.924283861158791 6.86790959621696 0.30361411611708355 1.3773803298204859 -1.6566910933055146
P 7.535549798029731 7.183304561683707 3.558102342612944 1.9287246064028394 0.1449287143263117 -0.1693436528355664
P 3.913523937815979 8.831714591461061 10.16711896887996 0.1029629114174872 -0.08155256406251116 -0.4229007043952588
P 2.0697049122403217 6.224921395373687 3.210382149724366 -0.11509569012527922 -1.2223965452510175 0.5432360456529226
P 7.327292609101943 6.520580108616531 13.097190736656955 0.07040914585118198 -1.351951091114104 -1.5232410690427638
Ni 0.4814428345388827 7.453999461082857 10.75411703570172 -3.5035324917793016 0.6095219133643502 1.6594617140721162
Ni 1.4150481476952412 3.506457865726675 11.91322786138404 -1.9646390609112616 0.5577293541730911 -0.4928897319898866
Ni 2.3517359001681912 0.8425700418224463 5.053221594493442 0.5922387008038703 0.21616755516764058 -0.18110773535003005
Ni 7.442898171405187 2.842052252885976 8.329103231706867 -2.0137782416400736 0.6131862495898149 -0.0974790054847805
Ni 7.766188013439659 8.36333784338544 12.044392134753299 -0.593653835983842 1.1992645872192442 -1.3087735272853653
Ni 0.9291253510783142 8.552294566756874 3.1578031734109158 -0.14371849606829443 -0.19178346989632133 -0.22341086699361526
Ni 5.17498546106204 9.03811217348853 7.015143502952117 -0.3561193851046512 -0.09430909239723112 -0.6000736234672569
Ni 3.7729827375311666 4.681194085348706 6.901106396973891 -0.8476137794089079 1.5827451379456676 -0.471892046692297
Ni 3.2478879789957755 4.484526567708773 12.469916214121387 0.9898947716997275 2.1361388408578827 -0.23274474280003146
Ni 1.462543259285745 4.667293993366515 5.632275007391056 0.7334418866494787 0.48487586054647464 -0.6007040579624042
Ni 7.530327871582367 2.266926555168735 1.7037436662113294 -0.9385097323595322 0.4436698186218101 -0.9354406065159051
Ni 3.1298123327794785 8.992965050408532 8.07249156739373 0.02246218565825809 -0.05756905666372021 1.3806793122867318
Ni 4.307591545511126 8.073934171534583 4.974965015829103 -1.093104509020698 -0.1301960361018274 -0.05986350912485174
Ni 3.1227214074777523 7.928490371239835 2.80400638625715 0.7032820752366469 0.6071750103987286 -0.1779229098641452
Ni 6.1212811825199775 8.882910132944122 10.583762016505913 -1.112173352726691 -0.391837407331551 -1.6114815866484116
Ni 6.118585691709918 3.477042265667063 3.6403317178370562 -0.31766056690782063 0.320352511917687 -0.8408242672909003
Ni 5.352643663720922 1.3048993106904108 8.866987953256682 0.061719331386667894 -0.19610909385486872 0.6284976831359048
Ni 0.07851110061887617 5.98800935466369 3.865231449327308 -1.636805153014865 -0.5466548415264844 2.0746791908905045
Ni 4.188914814236139 9.60496355969475 12.29589081928596 -0.28245265154812 -0.19326185421406072 -0.05696201920734061
Ni 0.9241588857808931 3.3530027286340824 1.0201399601133339 -0.08146823187882098 0.6661671726622205 0.5333560675350492
Ni 3.825821870971581 4.964211228450989 3.4919426007547307 0.4578610225205276 2.403232493451429 -0.951172158318549
Ni 1.1594085506254526 0.5390061208624337 0.8537286224197723 -1.7162818083849538 -0.11347178136861102 1.930123286522579
Ni 3.8867662607502593 3.061006877467628 4.381369101292823 -0.7170639595120877 -2.357461200753585 2.789599621697028
Ni 8.127327430263476 0.43451124019090026 0.33131714515418687 -1.023397274332547 -1.3299275356551612 0.7050155129879858
P 3.4019254172389735 7.610403671744645 0.12557981749587213 1.2301885304916105 0.3522133651820257 2.1571689220553045
P 7.348321194202029 2.3480730380918025 6.215383866044014 1.303722595125019 -0.6379500867980561 1.2344239087291966
P 8.903750878963368 0.5538679489385288 2.582406048221861 -1.1648346876761488 -0.3170589287680798 -1.2522923043691851
P 5.576153386012955 3.0522441843464216 10.22760127451977 0.19344851630357005 -0.5230924808255121 0.5690157257201878
P 5.644902489600554 5.199019471455573 4.956944673608677 -0.3355649579920672 0.14409644823300347 0.1233944397989617
P 5.450761407597923 3.2833426055044073 0.9556679523964716 1.6834357083892102 -0.0987190485394687 0.3663752585047045
P 1.3594759556285987 2.3929665784126666 10.07989964847332 -1.2965767281088574 0.46399027534671705 -0.6762808640574547
P 9.12521315527424 5.8414103440217735 9.099049049703977 0.718454412101711 -0.5112582071947452 0.341680841081818
Ni 1.2906423244546217 8.971617138871018 6.738875418024433 0.3525522365786831 -0.3202509533428162 0.11842321183661542
Ni 3.3527021861047377 3.4660912472540657 0.6274999294325747 0.2910763886613891 -0.6796333254694553 1.862039189260148
Ni 7.15116529495191 3.0781565855483595 12.769470709900862 -1.6664635993112462 -4.3822069971487565 -1.7084476570525158
Ni 7.41908017595462 6.510408622389021 10.207669669651793 -0.5125262752738915 0.701220821832244 -0.2175713774937027
Ni 8.032844372600739 4.647890216315698 13.692409580851697 2.271563986569133 2.002957753985802 2.72242980871875
Ni 5.648771974665866 6.571897745502137 3.1242081538026043 -1.1143431066845002 -1.4624493916766876 1.1465736845834318
Ni 7.724365642090535 4.921994395032101 2.461083603493237 0.1726053543059737 0.1050025675553353 -0.0641870762008701
Ni 5.613862081491672 1.1146464976611772 0.5844462729085431 0.5380925537787701 -0.6401519795453813 -0.020838534011906044
Ni 8.004593374842337 3.9757550252984153 4.992203008277831 -0.9579465009279049 2.366965797809911 0.5646222246381825
Ni 5.560168280233434 3.446283616179442 6.3782469235005 2.1027016442453594 0.6914858539326673 -0.47963158142839973
Ni 5.5651084480595365 7.5955268165420815 13.123555830043717 -1.3769522411441317 0.8895860100756358 0.45297386963155534
Ni 8.913114657143264 4.994218521615248 11.51158094677698 0.15380339110812222 0.944835931687876 -0.46628241381500335
Ni 8.449386926318443 7.911199783848474 6.919925055287889 0.6808998508867047 0.5922150466547864 0.995778484174014
Ni 4.308878243214883 6.7554259194372825 8.753225092336482 1.4949738466669542 -0.044834125595555045 -0.013493149390428375
Ni 2.985720973866782 7.651615566081035 11.85224966057081 -0.7316544557317528 -1.0295422108880203 -0.4459200481085675
Ni -0.1707166094264242 7.590154618830045 13.452114558295762 2.39475350944614 -1.2686347502829505 1.0082277656809604
Ni 7.310856689528404 7.316999027471886 1.312523698981724 0.3465805923762805 0.13119850922441276 1.04838813994993
Ni 0.23504585944184764 3.4322520368406613 8.337475219539925 1.0147380559956523 -0.1911599773797095 -0.20996245479819323
Ni 1.7682231874914252 0.25094362004877774 10.527252507425878 -0.2611801153225889 -0.4866386088738522 0.21246156707096314
Ni 7.962864923033635 0.9119747038021784 9.46830968918793 -0.13633737311287486 -2.0127551996921977 0.1619599587769856
Ni 6.267241540287037 5.795577608296708 7.070458355478008 0.6703141049510585 1.4682662554687809 -1.7991150389321013
Ni 9.034364783825763 1.1668751540888598 7.381394021165605 0.07159339596727024 0.7387399018236245 -1.1722026980054456
Ni 9.28845470847862 2.1762566308470577 13.142470286288946 -0.35870694332616937 0.1809141312819852 -0.9827671595160106
Ni 1.4981105892428812 6.12379822620324 7.381312311165439 -0.9530007268868554 0.514456916637701 1.8506065219431742
P 0.4850418313277854 0.10682032849233798 12.629879036169697 0.15255820584711147 -0.008300292335579254 -1.5983139389182022
P 8.797077064954086 2.97614118074392 3.15674470019038 2.0832890440467025 3.0323539262142614 -0.5059519644904834
P 9.06979123447227 6.078453872088359 6.102074636504043 0.27905313894826783 -1.184054198027393 -1.1730694168811153
P 1.1119134390349488 5.70593140696561 12.929488944478019 0.029806541838471246 -0.17728913293488824 0.7734991596816807
P 4.766895665982155 0.9585146536666084 5.1629017729915745 -0.2684956751473957 -0.6350714796986805 -1.4027386060796163
P 3.419929793137529 5.169613263350003 10.530798909272145 1.3231634774584504 1.485723788823596 -1.5600983470804293
P 1.8211656324263015 2.2925008460251606 6.747741422640101 -0.2747732806259913 -0.16853992598734843 -0.19664259776083554
P 6.283489620779735 0.7973214856387942 12.27650864372944 1.266987958708147 0.27750122108011566 0.4794168943144324
