# total energy = -340854.0991291539 ev
CRYSTAL
PRIMVEC
9.41918571255339 0.00000000000000 0.00000000000000

0.00000000000000 9.41918571255339 0.00000000000000

0.00000000000000 0.00000000000000 13.78593039620033

PRIMCOORD
 96 1
Ni 4.505281197876045 8.744310279190701 10.100799208443972 1.4850005375043265 0.9662699331919359 0.6004968270476045
Ni 7.499093955936877 1.3999923794089435 13.223587931653684 -2.584162565573014 0.7622361851733518 0.42648019421640093
Ni 3.127179005571806 6.902642872446697 8.857418684444324 -0.4739964946298095 0.4096762352851847 -0.5302941407802738
Ni 2.162268223647109 2.218397150048543 13.702814425826235 -0.7501473723296177 3.96804598661934 -0.32867697262298234
Ni 7.44236220166337 5.374069191761369 11.983019976444686 -0.16712787613117022 1.9464181670278609 -2.3297547359772524
Ni 2.2235211869611757 0.5299148990285114 11.564658375143555 0.28056520471742 1.8171520989394707 2.678877378049096
Ni 2.423820166643419 5.397165034610222 11.943288910082225 -3.0343334185381354 -2.2967947361114636 1.022647026430084
Ni 1.8795890475716892 9.268082927353904 6.733709780483328 0.6773720402391044 0.0644056199695794 -0.8598673999652803
Ni 8.315125091830183 3.556882248134888 13.616928408589525 -0.39427764134192744 2.604311529717063 -1.2412275619145914
Ni 0.6831217188791374 6.571219411402755 0.6631662324763721 1.0973661125105296 0.43556930100186275 0.16533633144838622
Ni 6.123082822813896 9.130901909714957 1.2565052170769686 1.8937897421988676 1.265412386690911 0.309967312028621
Ni 3.082532066296291 0.33219206658083633 2.485244559133607 1.395751633238822 -2.7194632698912584 0.7621418256873326
Ni 6.817342728548159 5.338747246132006 2.93786468002102 0.7641395728436517 0.15693756586172972 0.37774467668391076
Ni 0.05354053422571397 1.4890790358789487 12.28031396074371 0.8102186265899014 2.1146973831546547 0.702828532638996
Ni 0.7561175807575047 4.555221719403216 6.290244165984496 -1.526206579428991 -0.10546228080057321 0.0004309168898315159
Ni 2.9673448468025616 4.890346920349114 6.9642791966106605 0.864823201308659 -0.029975720426483856 1.2551662834828705
Ni 4.136067964601436 9.123884616516591 5.664335521757976 -0.08420388564242917 -0.3671414472467677 -0.1359895028551529
Ni 3.8537938135025662 8.483963991938541 12.32710282280219 0.7054222615081013 -0.6233824733965264 1.2432546196469492
Ni 8.33856944454258 9.391408323120638 6.438731973899039 1.0586933785306798 0.32707928911855927 1.5709692283566623
Ni 4.714801560163929 4.751065424343409 11.595593806085027 1.3696929884785574 0.9896572017676246 -1.1021110833946826
Ni 9.072408767752732 3.994751924527479 2.1206486105916675 0.9828419786180039 0.7385067027668959 -2.1811107775828824
Ni 4.5714792335782235 7.705920431171426 0.8555408513964865 -1.9022353018630593 0.7159905239422507 0.35148034367074305
Ni 2.2531445253623352 0.18640756490512728 0.23305984877384034 -0.25477832556130314 -3.582530407740759 0.6565175653875983
Ni 0.564275145818206 3.831112414815765 9.169890744259925 0.2214192904848832 0.834089519670228 -0.813651049310218
P 7.900049844350408 3.2389093839866083 6.838497277265223 -1.244387704810128 2.0809141160566225 1.1876444864818128
P 4.35248317067617 8.689396427718918 7.937290478066359 0.49333376150584074 0.18490499760893314 -0.9608541614930033
P 1.1164372190819156 4.666782552478996 13.438786178961667 -1.1978131994846983 -0.6810407473399432 0.9450372490654048
P 5.80951813748016 0.14874495167872473 12.748800699607834 -1.0909596947635534 -1.3983039673470308 0.7547756151302485
P 4.713473455008264 8.18451866567105 3.2048147582280473 0.35753991960126164 0.8193175035673761 0.3593276076293037
P 4.192027345663849 3.740038310205014 0.9508347511117584 0.629976067453644 -0.32725849500890086 -1.5976765624445193
P 0.2284237256701676 1.3732513117711405 8.085337468099448 0.5477794420492308 0.24943351630962204 -0.06731893696163245
P 2.5328566580048886 7.587238693856766 1.4943810953975538 -0.6960948134595882 -0.34996493546748114 -0.019750186043733728
Ni 4.16799900345038 2.497223879253987 5.640499330928732 -1.3648294897386688 -0.6785766020701668 -0.6492829953123721
Ni 9.387951482041712 2.313022287593232 5.6268236154995925 -0.3424429160588231 -0.8827077948985637 2.6119217379641535
Ni 8.948866730719471 7.096169457753604 12.518175710286043 0.22086958862900025 0.6085888600271196 -0.9709740235358246
Ni 3.8976777987524875 2.354673925879377 2.769220757052537 0.36491024392340377 1.6741380851373684 0.8075583061489189
Ni 9.150870582977424 6.369498134709836 10.200830016547776 -0.663836981867147 -1.2211284771718713 -0.9865147994839009
Ni 6.1640374413729555 7.090442592968897 13.101238363504871 0.3100591004114789 1.0622852096469964 -0.9046727292054291
Ni 3.1255777440366086 4.548684804665408 9.76161057087287 0.02285067934592839 -0.7255228889127182 -1.0858395999281687
Ni 6.675838304764179 0.6613841225795521 10.8749206203684 -0.4125692405622637 0.24059020698637917 -0.7246695397734875
Ni 8.052367493089724 0.6121886586255249 2.5378384652164536 0.6549728466082978 1.9721230279931328 -0.5314740200209879
Ni 7.738953514724008 5.469749278082189 5.930665817559026 0.34815847838636166 -0.8329993719298429 -1.3643358379317019
Ni 4.7603150645055505 2.8368326124984393 7.918169531498997 -0.34011375370501423 -0.6768416216569311 1.5877148232461171
Ni 0.5687699811393613 8.717832948746931 8.522131473507805 -0.3988688602570356 -0.04712317874004788 0.7005484783555678
Ni 1.555606743073667 7.624387961473355 10.39723793069949 0.7489749492880713 0.5323330255871735 1.8573338133646786
Ni 2.561943102832482 4.637630173352895 4.720150715610039 1.57021692357167 1.2749208404019783 -0.8346304797753625
Ni 7.900520803625466 5.930677120581628 0.48615147935300523 -0.6722288054752681 -0.045798289281037255 1.526180611287062
Ni 0.4557821414601536 0.40226327136109236 4.447037664329601 0.10133463178544484 -0.5596743937146039 -0.46389720141227847
Ni 5.401902884917307 6.849207833098595 9.443431426562114 0.5127910988995039 -1.806218225635786 -0.8654554355760192
Ni 2.4274088763193626 2.0704688417527692 8.095787112494438 -0.4687159629571605 0.859382747019378 -0.34606251508928143
Ni 0.8995011320489671 8.678818682401111 2.4872574390752056 -1.196088760594424 -0.6724879726739257 -0.8042572668001439
Ni 8.669917552102511 1.9549142740244942 10.02071729331308 0.7221948529807498 -0.35260134464906373 -0.25579442553064335
Ni 2.6285367443257077 0.2889768435014979 9.593352834509936 -1.8051108515042202 -1.101898453163244 -5.02771766990289
Ni 7.61139890466725 5.517636417170103 8.365068439113003 -0.40329501434918935 1.1054141796259864 -0.789049448711454
Ni 6.128753172485596 4.483767778191388 13.451358907768622 -2.0662359452191574 -1.0881533356630098 2.9067825333686392
Ni 4.4366718506855705 6.070608540386914 2.562639180641018 -0.45370843380473475 -0.3305875593821339 0.3114804062390377
P 7.428581933275167 1.3134394838387518 5.02404754894538 0.7045172331953286 -0.4781048603712282 -0.29901184145838183
P 5.969333457878403 2.2093547319674256 1.8433308349035102 1.4792700627784523 0.02947975462667181 0.6953741332434799
P 7.3579003652744355 7.487734418222474 6.570084399549865 -0.39195542096665403 -0.06908862726754553 0.28415035096551705
P 7.087918251254584 7.195541864790879 10.586629493571387 1.5720876582318217 0.2304042675923129 1.9818538821276512
P 3.625557529623872 6.620321625420321 11.086451978760781 2.476670913047238 3.3084338414668184 -1.98449851883935
P 5.306354667193504 4.761370013281681 8.695461441263117 0.03023925850051566 0.172034055183536 -0.7554199335824667
P 2.1753797298647286 1.4969063790304158 4.970145317996422 1.6242877372741444 0.05845145926867353 0.5153706867012221
P 4.711778001618055 4.778032552433239 4.266166696662058 -0.5961856012667603 0.9437637816696198 0.7818462460947954
Ni 0.49579672530619673 7.179227835502863 4.9163523495992765 -0.7227149871502779 0.08191766071141375 -1.55069428015771
Ni 4.113226439761115 5.734946445867449 13.727161136509642 -0.654539358615305 -0.7497113132334636 0.09900135566657789
Ni 2.530822113936637 4.269839237088962 2.0760092066645535 -0.5821134394444103 -0.4596199141931632 -0.24789316840569564
Ni 8.88961063473165 9.189385632491682 10.852876900540027 -0.9901107443652754 -1.6344405094374301 -2.490847461657936
Ni 1.1505440897816288 5.897757067255061 2.8354621210080198 0.538784180529156 0.865823360438399 0.1834122151134906
Ni 8.66375740478475 8.996188718677317 0.28183427513596554 0.15438960262889542 -0.840253739499411 1.4548363552161203
Ni 1.1287575137174375 3.130155468190174 3.9507445479474925 -0.1737214701882879 1.6434000326235632 0.5352242310920395
Ni 7.859603861808411 8.486667298177373 4.260472799026604 0.8826728278955702 0.7332259139839308 1.7951002613457536
Ni 4.029536976583276 2.7005181599256 12.233331063463908 -0.14835393795777674 -0.7363883708723125 -0.13841096781245196
Ni 4.514323615957163 1.3921367787009735 0.5614870669098615 -0.875538530843634 -0.651632212270839 -1.459064791475171
Ni 7.831120244852893 7.90824453573642 8.708696338810801 -0.9917097134212791 1.1318296935050378 -0.39295146633133615
Ni 5.948451123622323 3.1954021661567342 4.008300480952353 -2.2174900875428647 0.07727630528466047 0.2129883861087106
Ni 9.310846029529186 4.229007067941417 11.541746206411974 -1.1362815586288044 1.2107515048129212 -0.19827961914362627
Ni 5.787100475987391 1.0017586356052492 3.7316448740049273 -0.7613414412732243 -2.6196383898821205 -0.25671102380764177
Ni 2.601126914517322 7.473643316712733 3.8750039354140866 1.342053629494734 0.8047779151903044 -1.2428699826140208
Ni 7.291344400523213 3.632113282732682 9.387349596088187 -1.0178010111916922 -1.2396604745377875 0.702342594141513
Ni 6.106184804024809 7.281859280723542 4.814929385878397 -2.1740333019108107 -1.4230932584765683 -0.06392996588474152
Ni 1.5382377650095216 1.8745592025140678 2.300361960361118 -1.7410806125961886 -0.5670676008548815 -1.7782106846792667
Ni 4.724013523584066 6.515448414050366 7.01251672939922 0.5684220580002468 0.853664099368046 -0.16636297294068766
Ni 1.5516789427196818 3.067131698001889 11.295116137086607 3.6988802819881137 -1.7856853957897567 -0.7144746015183566
Ni 5.662409298322989 4.248316398218803 6.2821794593584 0.35031974770373864 0.6658776664462598 -0.2036246855056235
Ni 7.984134913319296 3.115339089396844 3.8176269669337484 2.5266287330226036 -0.9156922202443843 0.7551913625114284
Ni 0.08801475315997263 6.780014496407048 7.045492355920244 -1.7316516059728049 2.1434088921567342 0.13535212638147012
Ni 6.371937703754638 0.7807186094494437 7.973024042102122 -0.5903021459027897 -0.21162698698480975 0.2397972787714386
P 2.4606774395094724 7.072386014363166 5.897937915616684 0.611191073536657 -0.3236774625258619 1.3985338239696496
P 1.299687473007053 5.814661012763796 8.225664493695783 1.523847592278511 -2.5835822675895117 2.9279031173973378
P 8.98084486549592 5.137666474053166 3.9159481928690942 -0.951392244749155 0.2741035082524763 1.8318642083386643
P 7.706947122391054 7.883170663932323 2.3529134801092098 0.1357244221192243 -1.3306263614943987 -3.0253584687330353
P -0.08984490090284872 2.1549212589562017 0.8008097321234255 1.3007210892945342 -2.9289737247536975 1.0789122766807162
P 3.8203839625299394 1.8365998849443785 10.22844330076299 0.6187729996489731 1.459150923431074 -0.5836972389917625
P 0.6786052194313293 8.955676801836812 12.466850568490205 0.9872097686683966 -2.7631874502520866 1.7487389004723948
P 6.764077234539079 3.369930254307794 11.710472076294318 0.09733810903154204 -1.6531882223585785 -0.7132163036312232
