# total energy = -340853.79626209766 ev
CRYSTAL
PRIMVEC
9.35549893531804 0.00000000000000 0.00000000000000
0.00000000000000 9.35549893531804 0.00000000000000
0.00000000000000 0.00000000000000 13.69271836016220
PRIMCOORD
 96 1
Ni 3.263160637623315 3.853707802523992 0.7901439299309587 1.1900494963788795 -2.255326698774664 1.7807658470009524
Ni 3.5633037573157176 6.94367944221246 11.210133150683383 1.2547137693264843 -0.019070643478205866 -0.062353365426241
Ni 6.932031845927408 1.9786225551120649 5.245228823025971 -0.12122134340704284 -1.742934635085792 -0.2930301699536502
Ni 3.5924648477739565 5.762379291432576 7.100208167485122 1.065933605032861 -1.4773846728302813 -1.4430295923891794
Ni 8.712860440671143 0.8854998537344876 6.221902692500197 -1.605064113157842 -2.0713799513139426 0.7820791880412079
Ni 2.821777549163498 5.2599889938363535 9.270504315503926 0.627310604806339 1.1952935183866382 2.5558866014464563
Ni 7.776393699352956 8.165198883297117 7.720803324151527 1.6278998801054352 -1.6581671636304087 -0.8108053523313068
Ni 4.976021531956685 4.960968534026847 10.67955379897753 -0.01974787205088857 -0.05624082477059991 1.1847203708564822
Ni 1.0085227948021005 5.835398961315974 10.575338217598143 -0.21366304357823204 0.7463261988113147 0.24085657327388843
Ni 4.342719736515697 0.38028232433317044 2.1730616335303394 -3.2481466145409867 1.1805251018282121 0.46700026581763443
Ni 1.043830448119198 1.9954905198525863 6.720441331148182 1.5117888613417643 1.6321167464002602 1.8209912701799027
Ni 7.277296537413229 4.082056822705158 4.507013525978394 -1.1184123916578674 0.4637239090592078 0.7604179010176904
Ni 3.216476697492866 0.16053007220528534 11.322330843830166 0.5437939750389216 0.272457230898305 2.802958302392121
Ni 1.3579319723556147 4.068173262153337 13.53905926905567 -1.4570395335150261 1.217528932746071 -1.2360629869945163
Ni 1.8059855316196423 6.514046860526961 12.926967325452305 -0.16037487367805284 -0.11077212304926083 -1.6265531362695536
Ni 2.139976846781377 3.8771246165814106 7.855348497817268 -0.4067444063503705 -1.5228731441803838 -1.7646560859232836
Ni 2.698069785567318 7.751854225412641 7.918238968907232 -1.7362695643607906 -0.653987599876893 -2.183659255036349
Ni 4.0750776204331505 7.240071006796184 1.9851021737361831 1.0144328660504078 0.2617015350436977 2.2847326627406073
Ni 9.005163652181318 6.80299144788747 12.380737159428971 -0.48079654827077845 -1.5898642654889523 -1.1516009625946941
Ni 0.2487533635528112 7.74074924807099 0.5789968658054759 0.15767238714522525 0.852884283779228 0.4889346039968805
Ni 0.7159679203681765 7.836287604105489 6.402208418542706 -0.28669702864677077 1.3135940886024604 -1.617612125026182
Ni 5.72965375584614 0.6995883126767153 10.256626303442632 -2.7767217372930952 -0.7842322298284687 0.7158457708342705
Ni 6.497964757704468 5.282872544449395 8.093218609355299 -0.13692358463364804 -0.10326295915640925 0.9957412031781754
Ni 2.739935643700337 0.5881746103481555 6.50276787090346 1.0278062020335201 -1.3445370580382199 0.8656341272457285
P 7.922489172113898 6.642189130660582 9.481263126419908 2.4371646274225 -1.9764975029117444 0.014382751084233295
P 8.551103862543794 3.029076696540353 3.048519294612317 0.23005151223858444 0.025841900763768393 -0.913667990725504
P 5.205231258048073 3.0201796169683974 13.32270025642384 0.9242218549819503 1.7208784266167005 5.3005081157708975
P 0.1856196494882192 4.4188080100790135 7.1163389189025406 0.6979244104691593 0.7802650176506046 -0.1166954305122313
P 9.062176063234416 1.8802494828732514 12.520005924552 -2.8155140275699444 0.2772214850561678 -0.8853974259155848
P 8.39221006711783 9.321996982132784 4.405371642380546 -0.8385187590861752 -0.8707943312904293 -1.0949623881650432
P 3.8260435919096154 3.481190542380857 6.531413473365469 0.17638436173243172 -0.8205578037323803 -0.5191412094872477
P 6.065750058288306 6.3101344037968445 2.8849599118230156 0.4133315726495849 -0.8147111151436163 -1.2725739374363567
Ni 1.736034465416161 2.176996556419892 12.55479902542277 2.238577504340783 -1.7691053799438887 -1.0625009252022282
Ni 3.638681012953199 1.793982426371673 9.444361296069097 0.6640120739924307 0.5069845195200559 -1.16392940225306
Ni 0.9403960509083258 3.4040638084258608 9.908584899846446 -1.7843191115698498 -0.36191388029924126 -2.0294357456716727
Ni 6.472779754331487 8.227815238265674 5.472678779750916 1.9036573790215667 0.14536117387803996 -0.5028928659491855
Ni 0.7144803960233383 9.253009532328788 12.439259548024566 -1.0645241262798442 -1.0498402990154243 -1.7629182772965701
Ni 6.100356049178593 9.18758652765299 3.138877510837151 3.2078368591783466 -0.9975687433052175 1.2052544862540921
Ni 0.7700427047276953 5.577570763709749 1.3890305866617525 -2.341227512503542 0.9599488760699144 0.7480316115381955
Ni 1.87744283316601 6.152166802774271 3.489863089976233 -0.07111877032369687 2.1670267886859906 -0.8905913114116984
Ni 4.770724461370997 6.7247514095486025 4.424336174452377 -1.1975789719867054 0.26496632183789853 1.6550738694170657
Ni 4.160483971024509 0.8710830297382905 13.651079207720993 0.7096442700092488 2.3047936951565404 -0.942714514469499
Ni 8.869752159305941 5.490134269830153 3.545414172081761 0.5071992066340233 -0.06544563119831955 -0.05357253390981741
Ni 6.724695276554457 6.54940129133918 11.7246912103104 -0.3692939748133962 -0.347841204256259 0.007119898874232899
Ni 1.3854652059836534 3.820804512456098 2.7987227929183143 -0.35674313473157915 -0.9077125444730174 0.273581060090103
Ni 0.3077482048491244 3.209067142265748 5.0152453971652875 -0.6942004246503528 0.9375152296567468 -0.7467810269605462
Ni 5.318470218236242 5.2350752999350725 0.8095519126565335 0.8492903957803825 0.6415941113085467 0.10345810588635085
Ni 6.77041560028542 1.401762485283702 12.978396374687797 0.02141060446529216 0.33572822304280886 0.026440453579715754
Ni 8.236010655410817 8.495373154857003 10.953024390952113 0.5944948438278987 0.8455036750444407 -1.9864936948925078
Ni 3.8058824915125973 8.56395831820296 9.446551418390646 2.8492471581563317 0.7566676899466388 -0.4225363790773045
Ni 8.656633891536073 3.032079811727101 0.5936559972263982 -0.503869370929842 0.43380218179911095 0.6179193933994261
Ni 7.921460067221243 3.2142500887251204 7.011520843385999 -1.102971888733081 -0.4774916522672615 0.25425947694335566
Ni 2.7265853465928913 4.57273403552316 4.813496867359454 0.07748096509629883 -1.0810887155067446 2.5609318771798475
Ni 5.590556196355253 2.6819502607487284 7.956222294945234 -0.13681816940403532 -0.08334719406908872 -0.36909291454618376
Ni 1.6085657912122777 1.2025371335646788 10.288270343341877 -1.9786253478880247 -0.3799000324640167 -0.6352568562366091
Ni 6.250633430003326 2.2206493148665207 1.7874887744990189 -0.5433242344913546 -0.8647252422782141 -0.28303783462762866
P 2.208421677641972 3.8860965401455587 11.347648695289289 1.9334083850317545 2.200329259492862 1.27276831283535
P 9.142914019812729 1.0682389450731746 9.10549389481598 0.3065048074013173 2.629103391949762 0.9645915170482484
P 0.8557680778357764 8.905003679628894 8.321024075043162 1.9051115949695896 -2.421448245128507 -1.8047814931892594
P 7.057161645375258 0.2280066089168823 1.2155450194078405 0.43774651115883967 0.2313411775842855 -0.22962162379001747
P 3.0578355005405538 8.437462615897587 3.70837199628381 0.5763210011323494 0.415524980756478 0.5034999034055652
P 4.735819094511936 6.244440089649346 9.060115982349302 -0.9076490382249337 1.438168664752452 0.4290037319692031
P 5.065029749672337 8.78894871423446 12.138129423185116 0.6566067826672949 0.16396310524994342 -1.2171998315414265
P 1.7067891754667046 7.936615975640347 10.924982218177162 -0.5743085986880109 -0.12524769095761654 0.024349632488958065
Ni 4.5694970328608076 2.4716386426861012 11.617887897900937 -1.9320012202715826 -0.9037538169355855 -3.4265652330946277
Ni 7.556801426258383 1.7252101530452328 10.500781439225078 3.060453512663955 1.7483504067847244 2.1798193124649683
Ni 9.272758990768745 0.9293406577115016 2.16162827817294 -1.8017902717714191 1.1556643340307904 0.44082206476036984
Ni 7.518771322725262 7.45207597018218 1.6743181094537258 -3.6737073822669117 -1.541240848054294 -2.186291036232241
Ni 8.083862174781258 6.3057747412515965 5.996247120488081 0.607883863540295 -0.6627943995352457 0.10935441676612781
Ni 3.203051556393227 8.212257043388531 0.09864905946002549 -0.7614298872219726 -0.8780037045546749 -0.9491875237883524
Ni 7.276557452990323 0.8508994761436147 8.370947824485672 -2.337278298047807 1.0472542834558027 -1.4383334724650907
Ni 6.978023479130073 4.058686786142861 12.44446307658179 -3.0724327965130183 -0.5860202306979843 0.49729557436706606
Ni 4.969772058608561 2.5273132173787474 4.283876454303575 -0.4322921729124878 0.9894774816566507 -0.940482796925503
Ni 1.5976572793501325 8.78535620260919 2.021154524775602 2.626809196598947 -0.10811283104954283 1.4204843600988117
Ni 4.798790958443411 0.32788872314828915 5.111888637634538 -1.240037398261232 0.26422918656155786 0.12176127507091289
Ni 2.6891165730012183 2.115493505835207 4.654524485741688 0.046912091170506307 0.9008433281570098 -0.18336593525658743
Ni 3.7958346855606733 5.180186587160454 12.926884997060892 -0.16759273158273072 0.8799749693484328 -3.8468220721091364
Ni 9.0675180531772 7.739430122708586 2.8789901678957133 3.016424656578515 1.0171556642982096 4.15164820625645
Ni 1.2628707467713463 0.3495120880427799 4.552870439995109 -0.4821448347685568 -1.0285921882699254 -0.3404238287462653
Ni 5.435563644022356 7.335581296333611 7.345499996399003 -0.3415314599881473 0.9325206046556327 -0.14046579345895163
Ni 7.770396824478484 4.169006830635499 9.590804793393737 1.6242129181721512 0.354603462680757 0.5561121302846423
Ni 3.9916172136388135 4.726295196505364 2.9774951526707665 1.1017025351023542 -0.2085457769563247 -1.028987366825815
Ni 0.5410126042175724 6.401818294233399 8.195297394757572 -0.8386704541726911 -0.8106451726043588 0.604362737760914
Ni 6.422624924063083 7.929271908906398 9.664443797312533 -3.129650897595223 0.5144150076561721 -0.3124476552483135
Ni 7.660909419398994 8.43009983816559 13.080612685925727 -0.3464304399516614 1.6185958290956899 1.2381129275450096
Ni 8.977377820079628 4.4248984399437274 11.836861772510014 1.8887660637320312 -0.8194985092299305 -0.2926817854752959
Ni 7.027270825993136 4.4038766336364885 1.9910578844149494 1.5286851228764704 0.9064077096186647 1.214883524703424
Ni 5.618613337928644 7.722842822938788 0.13600743816321423 -0.6074503755473023 -0.2554216155722569 0.6911757788914161
P 5.963232499981799 3.239491225092246 10.093080953901865 -0.05964959334183276 -1.6731680079146152 -1.0339416255072968
P 5.171785349036779 0.26467922954160167 7.624229314375055 -0.8307637977311046 0.03565760130260956 -0.18333919578371005
P 2.36461173384996 6.643545678019083 5.615862821215547 -0.3243950574181768 0.4697132938734233 -0.35713162841924945
P 2.7555312605735756 6.022686696280197 1.0134026230930908 0.6411745072726248 -0.7592832731926149 0.4897100487103244
P 6.153485928136674 5.343608444114101 6.094287136961635 -0.4866766612006393 0.5879243896992327 -2.279010158434533
P 3.109889497110859 2.580508584829998 2.39669174000373 1.3865558256721668 -1.38698597123105 2.4220794509546026
P 1.8657578148848615 0.6006501682968438 0.25367248493970307 1.658287748368673 -0.2016518780499688 2.367661281215039
P 8.017653308187432 5.379318383889236 0.17366238618546814 0.38745547621377147 -0.11248036398961919 -0.17838596554349279
