# total energy = -340862.0226795023 ev
CRYSTAL
PRIMVEC
9.38901523504749 0.00000000000000 0.00000000000000

0.00000000000000 9.38901523504749 0.00000000000000

0.00000000000000 0.00000000000000 13.74177285269817

PRIMCOORD
 96 1
Ni 4.48099190597458 8.794699731840144 1.4125575885858055 0.15586670139505412 -0.15151793750805517 1.121506714312475
Ni 6.420133339277352 2.50543048351859 3.573905084093666 -1.2517410598514056 2.0318736656892042 -0.4720897645253998
Ni 0.8311850857856511 8.759894653265517 9.351413864567316 -0.47750656466559693 0.8917791610722124 0.3874343931678489
Ni 9.096472062691795 8.330441107540286 12.109896141243576 0.39158466789079655 0.3811706716463242 0.9112766076751918
Ni 1.3042092944818577 1.1309162447780852 1.3704328339235665 0.33529139261570645 -0.855861621239997 0.38878216544499494
Ni 2.52289405140335 8.192638534505544 6.331494465444204 0.2235286235184021 -0.7825149900270458 0.5691797621018777
Ni 4.806593556875438 5.354414414602372 9.664204204511854 0.11816275908637712 0.7365500932611573 -1.3621403729422799
Ni 3.4587253426816793 2.6419843175594235 0.9140806991483106 -0.6651808974895511 0.20628911971166408 0.4726824038040762
Ni 6.929834796137553 5.450679985313363 0.4507112145681786 0.03607720533853141 -0.8621783074866441 0.9803307821603762
Ni 5.180144907339451 1.6192295254869495 7.949780394924478 -0.7976916977674843 0.0407373298183621 1.3498268456822495
Ni 7.818439342007094 0.9403943525643476 12.223938872940055 -1.502329258590761 -0.15593329296693145 -1.3074244694566386
Ni 8.950397767449271 7.165386404251994 0.9115278259720385 0.35409129893102886 0.0009855038417208833 0.6617358763637442
Ni 0.3493661867466192 4.439595738875705 1.0829534005939407 -0.676069519377597 3.487527374600297 -2.1007864295005176
Ni 3.1869415257138565 0.2869771210275641 9.40734234907051 -0.1359015711270369 1.8368210381233077 -0.17025048092055195
Ni 3.443139577795281 2.6195633497589896 12.269891529014453 -1.3042432435151796 1.5905628342178735 -1.3375647404854447
Ni 4.000433951648947 5.182351325862525 13.337558674300233 -0.14971430864041313 -1.5488497707498037 -0.42095257952995246
Ni 0.6119412578104783 6.590975856068263 10.89663447938135 -0.9937190305418241 -0.93259516664731 -2.6810461035656403
Ni 8.423598914288991 7.181131782393253 8.67728352705711 -0.7607639715031994 0.3603974436547148 0.09171690619002269
Ni 4.025164617137365 2.671127820093991 3.9217784174565877 -0.7325931654959383 -0.6958099352293178 0.8601638481597766
Ni 3.607278337882042 0.5567732835216215 12.973800066472675 0.07598509727706268 -1.3908889058298821 1.2953973630887754
Ni 5.563460833394943 1.4369793554809933 10.359469214768618 1.0105281316793628 0.0687160744194752 0.6981730361448557
Ni 8.407722089937847 1.673695201454419 3.579113170709621 1.727234964962348 -1.179583049629917 -0.1575456317593738
Ni 3.7377199231632097 0.4392246936272025 5.229514225969368 1.4343824582371425 -0.4805862320321852 -2.8103736210195853
Ni 0.39510665108220294 3.8487544144563133 11.208971329901786 0.19606024289480428 1.14996882630791 1.0880790307816488
P 1.0240974212163025 3.984003175413286 7.126744035250216 -0.46558178820355295 1.1487766057720217 0.6411536813370184
P 4.56570898824565 5.930223926019881 4.96108228735362 -0.4719213572683357 -1.1146380122170998 2.4807509966538825
P 0.09434645604666682 2.8623257213871387 2.1519340690770754 -0.36877846862955843 -4.2553215134774005 1.6346896493337588
P 6.961072049015292 0.1360627885567623 5.701557282598931 0.5220018188644946 -1.0689600505640107 0.09877844102249439
P 1.5181661681151444 3.7491745214532135 13.23569067834363 1.5848326166023157 -0.694208652180469 -1.7489954965678913
P 9.481966240225388 8.789009988755108 2.6605586059177146 -0.7767423492093267 0.7813106853062995 -0.7498504099144891
P 7.8919365513629565 0.21311655679151992 9.657223471865446 0.923195470599965 -0.12971652536224756 -0.7623413432926484
P 1.8894641549811244 8.407233861158273 -0.18299659669780466 0.0855593712290591 0.1490908161238013 -0.24441729404195325
Ni 7.621044690819355 7.743862395927176 3.7005628963331354 0.6189177527569534 -0.42722067192685137 -0.363824981279025
Ni 2.500904978292539 7.895203928580105 11.106471453236233 -0.6636621468521796 -0.08982071760857434 0.4521567730468987
Ni 8.54308351907472 6.81231249548511 6.183454110462395 -2.3485183897380004 -0.31830411402909053 -1.1329162417009973
Ni 3.0834182464141984 3.679123080599345 7.96687497452006 0.5630602794677012 -0.07320136388433844 0.6787738056826373
Ni 3.817930278238213 7.471449514954902 9.097396880668489 -0.43531193357541803 -0.7438746519470285 -0.27235490099248577
Ni 2.957699335673909 1.58544784954643 6.89685775878183 -0.6628337374136132 0.39224801250640834 1.5630278620223985
Ni 4.435361293114401 4.748250217716351 3.11954717610267 -0.2973902466945588 1.070064853592415 -0.029475640861613753
Ni 2.2673062852963937 8.393460176165293 2.467458490187227 0.12057136852786979 0.07721305614689283 -0.280447191082317
Ni 6.034676717803729 2.1232412392621147 5.949129646607383 2.2306541357286487 -0.11503938296604704 -1.535272289175685
Ni 1.7801572424465129 3.8247748701672397 3.05421840978968 1.165143220055503 0.24911701351046775 -0.06795682765594747
Ni 1.1276958126358956 6.474627182289797 6.9865923306645215 1.2665097335201478 -0.7441096507759701 -0.1722842235211291
Ni 6.190740924997535 0.1708819506538767 3.5725314712003646 -1.1245061632604312 0.20100267450174414 0.6995987128477887
Ni 4.481799361263875 7.450042560773583 3.6331187849424924 2.337480129645968 2.920856237852886 -1.9048290307321645
Ni 1.6806900176233148 1.4800655452783935 3.898334985923546 0.26318017647175324 -0.590040407600971 -0.8038250643587317
Ni 8.113479749109622 5.19126150108975 2.9201404590021856 -0.25879490291986396 0.1017750617569731 -0.5874024557574915
Ni 7.558889411573595 5.235324148446298 10.633356171094606 1.2681742657067643 -0.04935181096025049 -0.7883930460743777
Ni 7.435358141326398 2.85438261470407 1.223708818843608 0.7542904479637138 0.6581859542289569 1.4923811462391137
Ni 2.632698581732527 6.40161820171351 3.9792185333734613 -2.3698703730512154 -1.3343868569780954 0.1976764383419886
Ni 4.659805696493535 7.442625238930057 13.423856866695925 -2.4311922118891482 -0.2795833004201249 -1.0806356871297258
Ni 0.7632696458424187 7.92704207841732 4.547674568249388 -0.19195290559465006 0.09772865960174136 0.7441204494092475
Ni 8.924831479626581 8.945205642158802 6.87609395212745 0.18786896533326355 1.0857038456812529 -0.14695422939677275
Ni 7.769316015569963 1.6628415001238908 7.727204405528712 0.23815460096169305 -0.2011929361356793 0.49653555627258994
Ni 5.698362200797219 1.4065495578925487 1.392700760779634 -2.44748709239443 0.8461577636886719 0.03997191240724729
Ni 5.247473533845696 3.917350557986452 11.275880267437895 0.08803842889717095 -1.4363573225753263 -0.102474658927159
P 1.351896101625243 0.537041329614841 5.859093687343454 -0.05587727078359409 -2.510042289418832 -1.1897664179208218
P 4.433483490116039 3.3359545826488177 6.191314593813535 -1.67939984775694 0.7862047801738073 0.39563595514203476
P 0.9185066808154483 1.7634823518210645 7.861544309834478 -0.5134305322557158 -0.37284595383071273 1.0118836172659929
P 8.389676403123595 6.271073337267432 12.330368991281176 -0.6223902846865862 0.22029957505814315 1.384610529020338
P 3.8402761339187124 6.222607241879727 11.41457573579836 0.18048912792942465 0.02422339132373893 0.39139723447033886
P 5.147255187823153 4.085535983534682 1.2465184918647028 0.10618784611268808 0.9242647924047438 1.8870529376956664
P 5.813631137851628 0.30094140302487793 12.911150925038346 -0.3084339061032301 -0.3842601092049253 0.5482113873803268
P 7.471458903969894 2.752652637267847 10.77551430818405 0.604132624027979 0.6603526228629724 0.8320357224649928
Ni 1.5719840020481792 0.5690916711908717 11.683736261977472 -0.5819982540227848 0.806274811450805 0.2333373820787078
Ni 9.294157773344283 2.046260705344293 13.457001967419998 2.166589958258888 0.3593096099071747 0.7208918178986101
Ni 6.671946721357603 5.748377483658573 4.776749633822481 0.7776890293933123 -1.3953346003060614 -0.4077288817508269
Ni 6.037202362836524 4.7331526816095275 7.089078123807585 -1.8664344901143661 0.5695001215557741 -0.5051886039618977
Ni 7.3684707985247675 0.04890456238782254 1.36254512242895 2.6110645321701806 -1.3247495909986475 0.29222927131890963
Ni 6.8395594169913325 7.7086254226629265 13.471059200665733 1.5570862997269828 1.4934363269765054 -0.6412655243245343
Ni 6.49096406837554 3.776524722124346 9.18230737664839 0.20641690353877998 -1.651245496809911 -1.2526311757658426
Ni 0.335457299937757 5.280278752227067 8.941909158995177 -0.01675870751557759 -1.9328543123004969 -0.3598929932144705
Ni 1.3230906036303804 6.162799216381919 12.911975280554628 0.41320456015341744 -0.49057162537967125 1.4372677502047375
Ni 2.4654145016235107 4.810837391651734 10.046169990211524 0.11548007004789144 -0.0040775125034833 0.9783435765270182
Ni 5.869167161528163 7.431715203509577 6.136388856111467 -0.22970904129750114 1.5074943477314682 0.8601484215408088
Ni 0.41935659900304073 4.9284254154091185 4.634123923786446 -0.7733317808658811 0.7476235774664994 0.9846985722107686
Ni 3.727927180526756 5.936232895614636 7.205100059864336 0.18989448040372456 0.24048787708056008 -0.6972278986227669
Ni 2.57055269150176 6.055811390550285 1.214354543207271 -0.15581810754530584 0.5677661695838028 1.3132942979738544
Ni 7.843939906724842 3.5901809415819628 12.867919205508572 -0.33199935212799603 1.616492666709758 -2.5276494609776337
Ni 0.15308788944140503 2.0824835251826825 9.899394335549111 -0.9649273031211124 -1.6132916432739568 -0.412853861682218
Ni 5.730482021084189 8.371367823889571 8.772183934988293 1.1111364268217443 2.5838764017911626 -1.8035424785758358
Ni 6.8463570638454 8.002219921456716 10.645572218500444 1.5677000706870872 -0.4936687762477563 1.473195317339282
Ni 5.968005322346911 6.0242079660878645 12.01962639550635 -0.4880707133346884 0.31730678311282773 -0.054611002476660786
Ni 8.24506679421979 4.4727952958867325 7.014666424391522 1.2682187457914544 -0.48697799449114204 -0.5046041922133375
Ni 2.470531514794045 4.397946068372051 5.622858558937609 1.4184948404726085 -0.2837556866302597 -0.5801182633912526
Ni 9.669370979461846 2.2778032040572334 5.739100197945168 -1.71120747918584 2.1073969928384995 0.1834600376322905
Ni 5.618658852531774 3.0892300466941265 13.370250285600203 0.2774302586328642 -1.9444661855078125 -1.5867570873185382
Ni 4.605818860290647 8.712470738541901 11.126108578091598 1.2382142290095643 -0.03701745776461367 0.6377690811355017
P 3.809001324981005 0.7161452406970427 3.022296697719037 -0.03916561445586803 -0.332551367976724 -0.706125715333029
P 1.8918959098640022 6.846272562710475 9.003664466202286 -1.8189014775304093 -0.35689714381094023 -0.37285700957430623
P 7.880256616713149 3.7356073947900534 4.882533787932167 -0.6700266556176268 -0.10244971922649454 -0.4581543853912303
P 6.377873382799231 6.39081144545794 8.592015309606019 0.835496941540716 -1.1950410360561998 -0.45838449912416546
P 4.32943442597684 9.086012699990924 7.177163045756216 0.7106089479153633 -0.4913234159440312 1.0928139743634728
P 0.86032671051722 5.921595421242411 2.6418829161975124 0.05860032614171198 0.59695667510483 0.5326346159879923
P 3.766900981757744 2.5397003882386837 9.825284962415783 -0.2297936305915075 0.5252900026974631 0.5351594392923751
P 6.38550665198757 7.094771622498617 1.8835988373157428 0.12910948790586796 0.8878998806224644 0.2922125591483613
