# total energy = -381174.5683693913 ev
CRYSTAL
PRIMVEC
9.18484591096441 0.00000000000000 0.00000000000000
0.00000000000000 9.18484591096441 0.00000000000000
0.00000000000000 0.00000000000000 13.44295040915543
PRIMCOORD
 96 1
Ni 3.881249442677568 8.817222274444765 6.844370684912179 0.16128967218283832 0.1578906738036184 0.7122683378956572
Ni 3.761598457423586 4.8880646764678355 10.37752733341253 0.9844257781653563 1.093160044848982 0.05784725002577134
Ni 9.01832447158424 4.725649049520252 2.6692723099375653 -1.592521500606141 0.6564373469689663 -0.02992558391483878
Ni 7.072827189588571 3.456147228007262 2.0364189883077666 -0.13926354562073434 0.04820304206778795 0.05269861594529634
Ni 6.752597543401413 5.836647988364324 7.823299808598076 2.4196047641618654 -0.32920147766788466 -0.3200066985424941
Ni 6.130627345470658 3.550503148135777 8.575405493177412 1.1055075106707413 0.9664864200781161 -1.1369559589880096
Ni 5.873901722623183 7.258930533659822 5.126670435669878 0.04599857821730143 -0.3553678516506073 0.31009406741447243
Ni 1.6098922040655796 7.482655005818916 2.9039194006323177 -0.8307717681509048 -0.6596733374077607 1.693885700077941
Ni 8.990430095118718 3.4088085331428246 0.5544505600402904 0.34501453344074134 -0.17361734051025585 0.0631933448290331
Ni 6.56854241992674 7.398512634136124 11.756867969491944 -0.8858717944488421 -0.7675388283331878 -1.6613229356505708
Ni 5.996684740269244 6.924124537307771 9.358484314509143 -2.8938671108585514 2.0081930342428125 3.1056110830371995
Ni 3.5449922407010344 1.1380483095029335 0.3041974979749196 -0.5306062727040539 -2.348605035914536 1.3969479675397685
Ni 7.033874258870666 2.508932458123734 12.923030173273217 -0.15685529056056854 -0.8136230242857599 0.016646864528061654
Ni 7.042333501782997 1.8818922253530166 3.98256839434988 -0.23529476291539478 -0.74528515914131 -1.7161478539102508
Ni 0.5342833942828504 8.878016768295698 10.76324584810045 -0.05009897353892017 0.5206980124514065 0.6961356939998528
Ni 5.345580211700151 0.47467558249953146 12.325706590359776 -0.6943696032383655 0.5882115819223482 -0.2716205939296225
Ni 6.77395230971104 8.288276194012463 0.30470909388177814 0.6333961488787866 0.6269393375098492 2.0837544137188955
Ni 0.9290746995775008 8.064983409602423 5.293645420035139 0.1052563354373542 -0.6945932892133972 -0.8110102692532614
Ni 0.32573871665275517 2.4624479539116817 3.285860188273721 0.1632935899867446 0.8919100302231221 -1.2822289440276176
Ni 5.771003895970818 4.018167937893743 11.354762771546818 -1.0203803418830943 -0.05623311146111605 0.7435648340160935
Ni 6.694485024502055 8.806126980809482 2.8999800203010495 0.09396610723551559 0.6250596039886333 -0.7958978390918552
Ni 2.3399496664830823 6.809185377910493 7.036335797524852 -0.662561200478517 0.6215852722867876 -0.6516550950889745
Ni 8.793552927012545 3.640312569630629 9.280797970886152 0.10065097545485892 0.8479385097381783 -1.5239918311658593
Ni 5.637171508918098 4.767182921886761 6.226344459735555 0.14527761302529818 0.29920750240895566 0.10753458994856964
P 2.760248206839438 8.352533374701558 1.4703229623732932 0.891278053066078 -0.3506156816776026 -2.4252177394732684
Ni 1.798677523088406 5.117474568130438 9.318088444527909 0.05820129093108042 -0.4744487516758797 -1.1719250188640267
P 8.805024799322535 0.17653089785710405 3.4089977409647507 0.6759713032368359 -0.8071649273652421 -1.0389881867922688
Ni 3.5323906323669236 6.114397723075342 1.6655147112890074 0.6219151448223805 0.0658040429790028 0.03658551243351764
P 3.745460683485515 4.667665118461036 7.911861928043533 0.16113386333126445 0.20602712429952905 0.314696084962858
P 7.345865098442884 0.36672884615236934 11.678334783093147 0.6366156842573488 0.19060950419287817 -1.2318042117181622
P 0.09035408284631942 5.698057851226277 10.417358335381705 -0.03874112532393974 0.8747049791987452 1.228842043766045
Ni 3.255568567074087 4.8462093345009665 5.7178916070839145 -0.4627204074953579 -0.1837621422537416 0.7873550917281665
Ni 0.2804877372215127 1.3954811654712014 8.773662225111416 2.080486798711217 -1.471893567808723 1.0916520928448876
Ni 9.279265938619295 6.536799593102625 8.423285159802498 -0.6794368931879331 1.4223574087518085 -0.17861196551136982
Ni 1.8817636375128728 2.792514569869855 10.10066944722137 -0.5751670900335641 -0.6944678193791265 1.2502976425366594
Ni 8.187766427248484 7.038154396978317 3.3928526191501005 0.642326618599197 -0.5355145086389487 0.09265458751294366
Ni 3.297947445247256 8.992533424789645 10.988536336455583 -0.961557615317931 -1.0234715792139084 0.012529499925578422
Ni 8.117015560632115 6.501465491600201 6.153255131397711 0.3073848960134255 0.4277428629789085 -1.2982942250205964
Ni 5.928588294067277 6.543752521316124 2.175768712187236 0.8464608967513874 0.8207704339638188 0.7731795715587328
Ni 7.864616000120914 8.373484007799304 9.383703145415097 -0.19849276359569687 0.5410896887338811 0.5613103866561301
Ni 4.679302317994067 2.9294881741603778 13.233912401966478 0.02045852496466799 1.2076065314260362 -0.7806434840359459
Ni 4.399109414320314 5.8013414413990745 4.009037282758948 -0.07686518588917084 -0.008662560771004435 -1.2534241039807832
Ni 8.832542597113349 8.832671184953492 7.081893550803295 0.31011000825407237 0.10795445109480763 1.3904798433169214
Ni 1.6670678687010323 3.101198864981227 5.2841280828953385 0.7400431940160803 0.6902452966573467 -1.89357839751901
Ni 5.622034883164004 1.4129507420393346 1.4207312248526185 0.5592123664765208 -0.03722160335561977 0.7546236629334165
Ni 6.363995905640552 8.34178710520381 7.450297712815826 0.29774968691650655 0.40897483834278603 -1.0063089513916927
Ni 4.3572265178162715 7.5776171257652525 13.591091764019012 0.43949074754345596 0.71536497454311 -1.4001448772105112
Ni 1.6940437605940966 8.843692999822977 12.946609509217334 1.794451057797529 -2.1367008840089396 0.06923543725805495
Ni 2.229749887479683 0.5420096865063594 4.005326605086221 0.5070693659243783 1.3170434806036415 0.37412353499155565
Ni 3.971003755098073 2.5226546176362428 6.183891184312017 0.15616520647207943 -0.49130259000842486 0.20665318791930215
Ni 5.588675523492364 5.140216246144475 0.5047936101149713 0.6931532143327611 -0.44192995311256794 -1.5984080412939052
Ni 4.387325257255689 8.673672320615449 2.756893901180825 0.056309987445638504 0.383393647439572 0.10837945444736818
Ni 8.969139622729164 6.9778834393336835 12.320221400493061 0.350770462087912 -0.0927188650919758 0.006203300597234478
Ni 6.58170430385005 2.54025278204452 6.142634694286389 -0.24653896837064634 -1.2666843114247992 1.391810646313203
Ni 4.088891249972939 2.930526061727254 9.284521507342893 0.6173527222626787 -0.7485036660786076 0.30865682074731354
Ni 4.731628384086947 3.8535479479722627 2.293595587080319 -0.6724712605033772 0.4319023936732368 -1.5772627746748578
P 4.098636371286708 2.0964042972503654 3.5129114115542537 0.47826452587754414 -1.657033307136282 0.38979338031832866
Ni 7.2934104445098615 1.3395270853171164 8.227825213391627 0.18219068400156366 -0.05007969026521053 0.15311742078469112
P 1.8900942925850583 3.9579429044777337 0.3366989930558854 1.3664719104380982 0.12321240569514265 0.41406819370529335
Ni 5.3422461127021315 3.609148388087161 4.400764523519881 0.35592398126439345 -1.0453624657497287 -0.13141139656616724
P 1.6716694764090423 8.557529946428252 9.028581188804868 -1.8763934010992909 1.1014266557331482 -0.931721248682789
P 4.380317219967842 6.934282976679147 11.131300067490876 0.44379091758070666 0.09471558380703042 0.15164957798991302
P 6.674765160731401 5.499821325952867 4.016108695482295 0.11220474173072935 -0.05926058543353021 0.10928473987045695
Ni 7.997272726920888 3.9185766557022235 4.885625181443389 0.6954641218541249 0.7535463707088377 -0.5305851896581313
Ni 3.2107097805552836 7.2764827738394775 9.108015408569246 1.9150527653427019 -0.7553736537255636 1.1776513798248427
Ni 1.1885374064508984 5.876914352020842 1.0461989337726538 -0.9430191901941113 0.6906733853337008 -1.689538993073471
Ni 0.8418021324717748 5.056973989342691 6.770380323208754 -0.3312043670305264 -1.1721605319136006 -0.995848161069685
Ni 2.1917154413342357 6.553332315406851 11.392322361168306 -0.7935599349872978 0.8788686236581316 -3.5224113309616756e-05
Ni 7.66538751150925 4.843508989857942 12.486027153997584 0.2781928478305015 -0.25085276525465183 -0.06905108916139076
Ni 7.240524102827783 5.228546907477671 10.177415262642164 0.09192002333976429 0.15636883784245328 -0.25081342737628415
Ni 1.788362941339713 2.0409094593825094 12.680250820173928 -0.8749235229674545 0.8518617560519844 -0.9140297449402969
Ni 8.830549485591117 2.3722068446677747 11.153548519289505 -0.6622380128111434 -1.4025223763037522 0.6594421952335611
Ni 4.686889000562563 6.585938517729078 7.346975546290985 -0.9981654963489519 -0.14275021861775414 -0.6217909605396904
Ni 0.9409047808707478 4.249166807866697 11.822052819599222 0.3506681321820928 0.779873695749457 -0.05960974124283283
Ni 2.1255937369630513 3.07204616465144 7.795942745607443 0.5735876613615865 1.1690849783120705 -0.30625309640182735
Ni 9.336579375940616 2.5994491127393786 6.8213562169801225 -3.2070611573545866 2.1468266595890317 2.4341116995287884
Ni 9.078071893022573 8.125153333944086 1.1635546260800662 -0.32195790873159386 -1.0533195158132762 0.857251302498672
Ni 2.5484272947393882 2.81551342356418 2.2318789347186385 -0.5085924874371242 -0.8173691215917537 -0.9287063731158651
Ni 2.046392812280078 4.915279374349739 2.8898583203125727 1.0267206822788253 -0.5765781114484779 1.6544714599463761
Ni 3.1165100028040866 0.9680276302954051 8.569168064445856 -0.7845183936103198 -0.43575981974611405 0.5230809108612863
Ni 5.234792602570379 0.08244960461575387 9.541093743266769 0.4623475975369714 -0.45451318909421723 -0.3345504006846238
Ni 3.625313716562405 7.9159776574127125 4.814028390535788 -1.6066800514947104 -1.2429478870398079 0.18316616054095552
Ni 6.242875345070638 2.0544479219805263 10.316039383709393 0.8001607281332671 -0.7644974704037028 1.2451163554460365
Ni 7.546030441318454 8.7752567143292 5.155397877642618 -0.09606772695955068 0.17250945215805774 0.317177456623815
Ni 8.95755753227048 0.6451830585304621 13.043009057519566 -0.9526160898539272 0.9520625313433022 -2.030212733047013
Ni 3.5489968334369473 5.085492935317483 12.7212923848096 -0.30508170180154554 -0.12969981319169924 0.8003252787355895
Ni 1.4601057399892807 0.7845704402774022 1.7515087478698732 -1.0267268529264124 0.22536901916125054 -0.38348877825653954
Ni 9.025332508872086 1.3739518870928074 5.145181573743177 0.14684675728463098 -1.3472200041870217 -0.15528640341155192
P 7.810700955717683 4.154397569680576 7.116979661471155 0.6783698853759994 -0.2259611442192947 0.21890295182093267
Ni 1.748399677592106 1.1081516366694557 6.458006475569822 1.4828449246139042 -2.2250984960177425 0.38981754868804475
P 1.6231183819089616 5.914241565045497 4.673791410559325 -0.3606499259851531 1.000015405073497 1.5548386413433868
Ni 8.280900762895632 1.2927119266589797 1.5267289369370267 -1.9487349880864957 0.41276464440252136 1.9132540215710663
P 3.529451481735061 1.8747280456878515 11.241317986548928 0.9764342753194473 0.701524726225908 0.6905720838691463
P 7.9055620423610495 6.077143988816484 0.7453970732621081 -0.07591259216791443 0.9707462237957346 1.0355251679443327
P 5.311743240050833 1.2590310973869787 7.60607453327369 -1.3108874883045747 -0.05063376299646763 -0.4801062070719732
Ni 5.15539879612719 0.573938047214112 5.086045863030102 0.4041954146762717 0.6228317430993789 -0.8036548573294546
