# total energy = -340871.08281697315 ev
CRYSTAL
PRIMVEC
9.22856208673687 0.00000000000000 0.00000000000000

0.00000000000000 9.22856208673687 0.00000000000000

0.00000000000000 0.00000000000000 13.50693345128970

PRIMCOORD
 96 1
Ni 7.692394120050066 7.429721556653158 6.601918612340931 2.166747566882675 1.1188206828398795 0.6379863393526303
Ni 1.2870706435271437 4.074391715371108 5.823514315302391 -1.7494012166467419 -0.6891083548394261 -0.08097046630679604
Ni 0.44028454695031155 4.626342786734127 3.542018115672712 -1.3259256135846196 0.7771714663269454 -0.5784383045856684
Ni 6.268334700530802 6.50315546347337 5.068395526185118 -0.4393297964855595 0.38720273677301703 -3.1706134560505137
Ni 0.42346364678857373 4.7820470866896 1.1065221315096672 0.21751172790036086 0.9891000437125741 0.3894642791136841
Ni 2.6015778022135825 5.368337637671772 7.076255630628706 0.8414014799506091 0.9908288534782226 1.8998642305277214
Ni 4.633245751193984 3.370353940400561 12.63142735397251 -0.20198997811567793 1.2449127240756626 -0.040773325262620105
Ni 0.9963524798715425 8.953301789989386 11.462523834009843 -0.758807619107777 -0.5962365091093539 -0.8135803439732828
Ni 4.126127034571581 5.2610648316806365 5.059359841021155 -0.3751632891099797 3.5054225097131626 1.149543565845033
Ni 8.093024458460864 5.959491640887022 13.146177168605416 -0.8530604043457761 0.6987613045481579 -0.8148954632402805
Ni 3.673373777351601 7.7799178031212906 3.5406126056630383 -0.3460820554733072 0.5152938107166996 0.15642437367073705
Ni 4.723694888454746 3.791905429119506 3.579162155317732 -0.5230788539787572 0.23184742779674264 -0.5939960498146093
Ni 1.8803287589039555 6.373992508152318 4.866575178499235 0.13246452042102994 0.45799523410554677 -0.05679978259786347
Ni 4.0741240870698565 1.6624516359992165 10.978651865347839 0.16327070716860914 0.3590108477198333 -0.3963856888238657
Ni 4.089572700045524 7.503254739562428 1.0733149964616717 -1.3011252667114883 0.9628195127494901 0.3206947257484541
Ni 5.234514258484105 3.9442874467146205 7.6966420271902685 -0.6545748398389307 0.07365516359230541 1.2569686267989322
Ni 5.183424938631479 7.725035544240589 12.461442777004763 0.6371332473237156 -0.09860026357341728 -0.33889710768909376
Ni 2.34729400177658 1.3599578270885664 12.633305366362325 -0.6375790766118826 -0.46399824576651705 -0.6210304282245821
Ni 7.199256675027505 8.941332344929982 0.9535107259785073 1.1933405084253255 0.6297405544040703 -0.8900526652994091
Ni 4.6526072745051845 0.5546984143037943 13.489631027594442 0.0930263690300656 0.3478293771817171 0.8183823933476163
Ni 7.762328163735614 0.5660864599501345 7.789219270874083 -0.4226266247982657 -0.9868112476783972 -0.4913653249255603
Ni 8.42278866841279 7.088560072492779 1.8478839030864203 1.3219663718265555 -0.9490844225515848 -0.7282791115016167
Ni 2.1717759789664135 7.694009118419685 13.04590145840768 0.12661937449416258 0.729339177335015 0.2733864275807937
Ni 7.112572791108482 4.6470424515515845 3.6652821740917054 -0.6621256556029951 -0.8884272138808441 -0.2657569360599939
P 6.298696669879635 2.627768461487743 11.540742357903431 1.1940164514464275 0.2433469437959099 -0.49409275115905227
P 4.153175950122167 1.788163109090341 8.311761683354451 -0.4442925398074736 0.17645918083442513 -0.3355086508328351
P 9.19703734393225 6.6716874647646724 10.677663234917674 -1.1882936900300372 0.03761138259487071 0.2725531330462209
P 2.487761945684964 4.282634219430807 3.9967961194200883 0.6615618126797251 -0.21485732099664934 -0.3288656915950207
P 7.320270810003567 0.419286799576634 5.240919803446118 0.5346830138765888 0.025520769978923788 0.4771592086285072
P 3.732390432058527 5.093132686926623 9.064084218151754 -0.8015552944879486 0.0015974263941069264 0.5474236013717088
P 6.700065293259402 7.84906741902731 8.760935181331144 -0.865824903100296 1.6228944564710437 -0.7251729617724672
P 3.9347451134907017 7.235607981187095 6.032223784604962 -0.7177010788754543 0.06152367043609404 -0.7679406917572968
Ni 1.9521823435088224 6.679420999814618 10.059828535780108 1.7282790899561462 -0.17452853947061556 -0.30001971389760584
Ni 8.618212699698773 2.4333872577204287 4.8697894866828815 -1.355928330594297 0.05072915092375134 -0.39156846994088046
Ni 5.8059837387142315 6.199175856062671 7.1698452475762195 -1.3425092289749136 -1.0281273328183649 2.3681374495205088
Ni 0.9385355382391909 5.527428819922388 12.292997524197315 -0.10697871744509962 0.46059744761508414 -1.6368331780393228
Ni 5.326919850912634 2.2640616000874854 1.9924484057163683 -0.9937755948113725 -1.2511347937259745 -2.047955401742415
Ni 1.5478513516910692 8.582368964455348 6.738257697560358 0.24981044003306654 -0.61022922384402 0.8440186058584819
Ni 7.723734316982782 6.034888993342938 8.914805765994942 1.3676217077718251 -0.8041762770505635 -0.5976709275630353
Ni 0.5613069876322743 4.6264904437279215 9.086640669666167 0.84191544347255 -0.3383816015052559 0.3785417186639094
Ni 6.149886105821906 1.8014522385317753 9.309762384419217 0.22482343107042574 1.2074250115428498 0.3709502794698966
Ni 2.5608060148022926 0.23243425678037696 1.3619853421845967 1.650867287534886 2.4579198576919796 -0.6570256153722684
Ni 4.8692477700869015 6.859008818516225 9.671463879272514 0.33224746358306007 -0.7903571117792839 0.6684590540201907
Ni 8.54296300423665 2.3761148012526907 9.476586178863567 1.2111806219305399 -1.3137229008708406 0.856673318508015
Ni 7.833858748666557 9.100395841494262 10.2663499130059 0.2733434901580002 -0.38999315503396065 -1.1600488362517312
Ni 2.690827226399771 6.063940506871853 2.312940679314261 -0.8591523761761268 -1.5628399143813083 1.6022143024138729
Ni 3.765991626708709 6.1001533845997615 11.779288691370656 -0.8442476911501525 -1.4904587324054202 0.34595555719777193
Ni 6.782845495405003 2.1933062143739592 0.23055347582192953 -0.2505537459569943 -0.41417360893490607 -0.2164290363591434
Ni 1.3769199242506196 2.4228851540368503 3.695713357656379 -0.1840925290099668 -0.42548209196918985 0.28770695796852386
Ni 4.757000769117341 9.123051961479485 9.152068406472374 0.11705512784449518 0.16497483434390944 1.055552518908853
Ni 7.127024719376043 4.496266203763977 1.2118052595094309 -0.2898291465178492 -0.6422001203236617 -0.1954580905344311
Ni 7.127910661338804 8.300953191408752 3.282509103367835 -0.20765463260062303 0.4360724658905264 1.25077046840802
Ni 1.400803442996753 8.0786463586902 2.5091962040465443 -1.36246844570566 -1.3028162812606658 2.137087835034713
Ni 2.4192583291267926 0.5320358343250926 9.736918378908845 -0.8813975607275724 0.16072068705324577 -1.485915850229744
Ni 2.3051840728590354 2.9115559749971514 7.806764613161622 -0.10146627226730268 -0.0681396330907149 2.6339884879562057
Ni 3.5137011956879225 1.7531499444370062 3.6282193457932714 1.0379777432498833 -1.2919639119271942 0.06549885303375816
P 7.735297705309252 2.8298186003702175 2.479265208548347 1.5519777748558239 -0.6463773916298029 -0.9374987745965144
P 2.4491127275594593 5.710689606344612 0.3042140128883468 0.40905608520268266 -0.6381035816567849 -0.4890685584715834
P 7.384953801847327 8.46290522791412 12.352023407466353 1.0747843705552715 -1.788490726449036 0.7992598135855525
P 2.101509707044829 0.22966199672189994 4.508992390916572 -0.21641540951238858 -0.03719177855894885 -0.3332067421725358
P 5.798877745887909 3.9795959253555426 5.547432651156591 1.2698259423775744 -0.5571742530005694 0.07611339532481085
P 3.4136635823926804 8.461004144119027 11.17255687531017 0.14788085497610015 -0.17662116033358613 0.2877738066507173
P 0.4912225183842985 9.24683466508918 0.8287258005234384 -0.5532237529932537 0.06692067308194927 -0.10586568688657898
P 5.3854935346381785 -0.13440293288830696 2.03379328683482 -1.216781770167401 0.2699295793804448 1.1541604957917542
Ni 7.9135473825046025 4.8450597087910685 5.941713738834259 0.3277637167800936 0.4426344353787603 0.49489596378663797
Ni 8.352420882307973 1.2269281042425413 12.141626034153477 1.0717263004552382 0.0742352044654915 0.07638516092895876
Ni 3.698816923094681 0.4758624996049073 6.237366414651205 -2.4665875606693066 1.7892008651421831 -0.27248242770928555
Ni 5.759923985212704 1.9189964341536847 6.6773418047707604 0.7686706279447859 -0.9327309208942258 -0.8677213487920604
Ni 8.97469359696525 0.7310793076714434 3.0498930439138494 -0.36082450388980436 0.2584714581421742 -0.5582201777665806
Ni 8.48737937463543 3.420049747374258 12.851266469182283 1.4808916575422755 0.9061876231880587 0.6805254982664215
Ni 5.356737335096852 8.531205816105826 6.9677000545039895 2.913442718997634 -0.27645246810062707 1.9123510501408227
Ni 6.173760396005928 6.673828491174681 1.0706230248935702 1.0104054900585695 0.21266802665481438 -0.15730214829000005
Ni 6.052035661747234 0.5284736093498192 11.549738360250313 -1.4463247182006833 1.0668887698572787 -0.94102889923696
Ni 8.077280531497609 4.258926043364804 10.804250498553236 -0.24435995844145658 0.9587612835197165 -0.5105164439327143
Ni 4.273414885880811 4.427338073348648 1.3893369545724599 -0.07331834907817696 0.4319340182421207 -1.5409341154471525
Ni 0.5767722120197435 2.4175602736981645 1.2690832531144356 -0.5625967095677213 -1.438650489484877 0.4466291583604501
Ni 1.2151432304253802 1.6833912434315876 6.2553445765018 0.47997456659011534 -0.2975314002581134 -2.4486762276065246
Ni 3.286604739233188 7.566359647285017 8.109198436418543 -0.7604158441351613 -0.1562816774452857 -0.4979424639224457
Ni 6.909876652878159 6.710225940144832 11.027654607306918 0.35061259635380904 -0.13613219908060428 0.7824070036942719
Ni 0.18797012166803323 8.05836197916779 8.848743104115421 0.5368656233502045 -0.42447524797123026 -0.6322859465337433
Ni 1.8716539105185748 3.605719188507743 13.118569002190835 1.2304649240814485 -0.2945126680364476 0.6568232695534753
Ni 8.350612084134 2.8156435289660213 7.1669271762363715 0.8167255744704838 -0.23568531348559407 -0.2983078734128217
Ni 0.25089691814185866 8.231157576154885 4.9209406379016585 -1.6660249691119309 -0.014335442786065635 -1.3366327155894786
Ni 5.310576067412093 8.796739233757487 4.763058397287728 0.8056798581792834 1.1409342269094676 -1.1917091434694895
Ni 5.683649919356138 4.35070409356971 10.226626490250545 -0.8055448752633159 0.3160104328989074 0.1283445847153854
Ni 2.7057682684592725 3.8894790163308155 10.874053496656792 0.6582726004054922 0.5303337357689576 -1.4530255272596266
Ni 3.640381667800818 3.2813998302019596 6.068273316783487 -0.06707236816846512 -1.8077223209851383 -1.5060450168794515
Ni 6.315501881485782 2.2039928892997795 3.890483083888613 1.0086833651611402 -1.6031969780421162 3.507793323938185
P 5.889742168443717 5.356875763528534 12.825494786628013 -0.40671226756085443 0.3888880948952399 -0.5801275193626332
P 0.8920309680438603 2.791538524729197 11.23878195988286 -1.182161094769738 -0.4242762445865468 0.2826894501492745
P 0.43725481000890676 5.920030309295653 7.401205299726747 -0.38610873237788984 0.9163463088886153 -1.375962880647669
P 7.240102290935692 3.9657807678737185 8.529412706487443 0.0003237018880058941 -0.2741821840092117 0.8821822614123968
P 0.6641482380971746 1.01885171430086 8.115587369968754 -0.16559884108115352 -0.3427946429712871 1.4672383284248989
P 8.285698378237438 6.42887476703302 3.9123510846694622 1.0828854023958512 0.8875538101369553 0.7922512434782034
P 3.552156614009073 2.321767798974492 0.7095056980219703 -1.1225379837904668 -0.10060032472258158 0.760525116019516
P 5.140862810170441 6.029933255488737 2.8015542831894673 -0.5645769732225437 -0.3956750359100863 1.0031454660620467
