# total energy = -381159.6763275869 ev
CRYSTAL
PRIMVEC
9.35379174482935 0.00000000000000 0.00000000000000

0.00000000000000 9.35379174482935 0.00000000000000

0.00000000000000 0.00000000000000 13.69021971432681

PRIMCOORD
 96 1
Ni 4.599203353723395 0.8504720146464794 6.763502430773809 -1.064532096699644 -0.5792410029926217 1.1431134939489733
Ni 2.5342228390508716 8.869882828388935 2.7903820424654495 -2.8253199579167734 1.2209395010895165 0.7406047229465053
Ni 0.9230218953693465 5.813886769657939 12.481236896611486 -0.09296903342956891 0.6985628153841066 -0.23642810518888957
Ni 1.1268419562160685 7.193842334646445 1.19534538656366 -0.141522259747924 0.21337662268606478 -1.826828702797286
Ni 5.676133476369259 3.4439539315116905 9.513156192554966 0.08338858882998541 -0.2776655145721218 -0.17088914294581536
Ni 4.756515425871763 7.606569048374275 7.287564523331486 -0.12626867602296318 -0.0832885729170114 -1.1988005030986322
Ni 7.597018826845942 6.066261428870398 2.7564296486324045 2.537718672288178 0.1624916629107395 -1.1151949131618342
Ni 8.942103455636975 7.856932642328563 8.535359427207403 -1.341911961710547 0.8194324318786855 -2.544357260650618
Ni 6.77731798140784 1.7158408782704526 2.5881090987987334 -0.8033188141462745 -0.2941725110882095 -0.4453328081465298
Ni 3.812512039894972 4.823918850292095 8.705131685543716 0.45148854333528055 -0.03589311435218335 0.19853775790101938
Ni 8.431648324153993 0.2982260117195402 6.697502075138246 3.6885411048456347 -1.1522272833247835 1.6944158615497982
Ni 4.455978092174113 0.37059723501714664 1.9304851471020774 1.5535158087669052 0.2967981216365146 -0.05575848581754268
Ni 2.8534771103373493 1.9160868552327717 1.0963719791068218 -0.1691734458062893 0.20955904871218745 0.12395468317780588
Ni 6.676053830315068 3.3458887772481933 0.16059057620878045 4.726352754831298 3.0734828350440875 1.8595860997339653
Ni 4.959633016946911 4.033214759739232 12.625230104475632 -1.4011661193861742 1.3580520618055194 -0.9210367723857493
Ni 5.783365346693251 1.3897489851061984 0.007815093131166734 -0.34027779008670433 -3.745921442537316 0.6916576036238411
Ni 1.8867159486715945 6.473974510140651 3.136155249163262 0.21532140511726144 -0.31102609231043854 1.68507478665453
Ni 4.886402180173835 1.1681950701991781 4.432222266889584 -0.015944953365030604 0.5683107292333631 -0.9446479840467861
Ni 5.80285864900965 6.864878827369362 11.970290691053835 0.4099845105542229 -0.35309602489729514 -0.7708534945287175
Ni 5.684654780788759 5.9105956240961595 3.6062094826783975 -4.646190643358411 1.0075942458620195 1.0122528276799534
Ni 8.092470476123788 7.745875071118099 10.651374230477945 -0.8951303369326324 0.7812227535781835 1.4268324138040267
Ni 9.094139989154609 5.504575579159528 7.110083805091649 -2.711382292655337 -2.0814699885600922 2.641313303752393
Ni 5.843893734068212 4.111066369710148 2.3421502054494305 2.201230431150893 -2.5487834147427715 0.7170570175335522
Ni 0.6254225877070034 0.30594195465658325 1.09315614545213 1.7628092625225316 -1.5676903004950742 0.10932742018293429
P 4.701711559138662 5.099238361031486 10.7178544356379 -0.33303422115041353 0.8598599437661126 -0.27903745521898393
Ni 6.869265755769742 4.763390462917134 11.37636699756491 -0.1807261836408952 -0.11119146997486658 0.12004789192423194
P 6.106997192588209 7.837682538601524 2.8528363755923043 0.06685408151007195 0.29123142618201453 1.1025594837860109
Ni 0.9171121696478969 2.0465067756730564 5.3656081636824275 0.1443461023499643 0.2500061009836404 0.5210726221820059
P 2.7412222537638815 8.58459217548578 0.5292543824405146 0.2100367596795544 0.6893166141954904 -0.14927542133078164
P 6.331357245064769 0.9636182875878704 10.253221659907116 0.17292674220113444 -0.3110998829711675 -0.3088738218541261
P 1.711210751280713 1.0407309479988083 7.176892328347239 -1.395047408082946 -0.062153076489976825 -0.08041870756838408
Ni 6.643876786184352 0.7850328865248248 5.86564317099052 -2.262861059478497 1.5624185105731738 -0.883954008600839
Ni 2.862989916698087 2.4591399514819003 8.112085377734866 0.6037163624261668 1.032346513106035 0.6120788754582491
Ni 8.21797030202548 3.6226113567723544 6.05455422293028 -0.3588064450185111 -1.6680839085234884 0.33085546833153984
Ni 7.984658670702091 2.5519576284903596 10.07377009771427 1.2002323504491523 1.527800149168356 -0.06402406826044457
Ni 1.566245684438317 5.164312691269101 8.704255235242831 -0.8270678369367562 0.14241957475121278 -2.287006546376448
Ni 8.366396271870308 1.5932126664815889 4.3880443077531375 -1.475350158898756 0.3672517475723868 -0.7930040624838279
Ni 7.483772468331238 8.233600488287813 4.783239209325675 -1.2869199217453837 0.4388531139594571 -1.5764742173352915
Ni 6.800955013535258 8.629574560725493 1.101772858548995 -0.02997957708122579 -0.2250265482201673 -1.054694798894248
Ni 7.283620029287903 1.9471601519194692 7.9946503912080304 -0.31568441701805633 0.4098194457312684 -0.777650719956209
Ni 4.036797262036344 7.343559127773262 2.0544228897567263 0.5761034858049046 -1.2876511434844533 -1.068113129182683
Ni 4.857742161796941 8.58586429118397 13.130440564841145 -1.9878183272412024 -0.21602563027313762 1.4511540212685266
Ni 3.2018871509713382 6.491204194817621 -0.04910834284612623 0.5441654994457273 -0.10101195833870345 0.30786800629743105
Ni 5.654030466113188 5.930060865036864 0.8934470761447827 0.369195501562319 0.5384774479220146 -0.7043585961302773
Ni -0.3210043657506799 5.180999856015961 0.7014838819085538 -0.07875366116113533 0.4316149443398051 0.284808039154174
Ni 4.430713500256362 3.9221291271530725 4.615438730321559 2.0840367208460044 -0.4554202742895189 -0.5169568002414193
Ni 2.4863220707388374 9.025688940041649 10.050647524141267 -1.1170972723908699 -0.15835630058612726 0.4661435742442939
Ni 1.5416826269129502 4.207906177234947 6.051419767265106 0.3700416516126982 1.148781233757712 0.3917332776535189
Ni 3.460912356223606 7.24521335975281 11.571905211064731 -0.9815723678769611 0.384929367357808 -0.5233999847636018
Ni 0.368335488136098 9.18768726193115 4.661889660889331 1.5474554615054383 -1.3763218066489844 0.16336763775778962
Ni 3.51642711114099 5.815729466661937 5.420478442338008 -0.09212288337918974 0.7307957072758834 0.5597620683324037
Ni 6.902780392141939 -0.17738811570004223 12.276567511460383 -0.5285609601392509 0.3524923298750252 -0.9762517269949961
Ni 9.052749460003906 5.1422190348049295 10.268910775058409 -1.8418706847320732 -3.17216177437424 -0.09452609350404366
Ni 5.1649206877425025 3.095992872888827 7.115834516350825 -0.10569445141603732 0.1719983168495941 -0.5616716266502907
Ni 0.37745730599548016 3.1410500884637287 7.817238891028241 -0.40212696218301713 -0.2915067913305883 0.6217927603119033
Ni 4.480513088323784 7.849159641260941 9.626373554314785 0.4735923172128552 -0.7316274591485593 -0.4500687801696184
P 6.849519901072084 3.155052714935729 4.398106181698315 -1.0937953644401357 0.41960532147343865 -0.49904058208263086
Ni 0.26552141372575044 2.673472739043306 0.57861060077195 -0.3240453873882419 0.04270396662642968 0.03448132160632126
P 2.272952723742973 7.571305252917064 5.026679126516721 -0.23136894549842732 -0.1379581965457495 -1.048304579097188
Ni 4.288648108902488 0.9163778969838675 9.411369164495069 0.7820503916858015 0.4841896331127275 -1.7195116281761613
P 4.805332865789848 2.9594275111712514 0.8264196741587689 -3.7151975310908982 0.6925569755096589 1.9927296484998906
P 1.0800075201804589 2.867161707884802 11.351150109985841 -0.2635031070288107 -0.33910639548642246 -0.5342960628508153
P 7.477252875378008 4.199777732075182 8.519752625424816 1.03710793905042 0.30403577703553447 -0.7467892544906622
Ni 2.393607285441261 5.271488438841703 10.719893562271764 1.1813283144557978 -1.1764897554165739 1.7377150385580653
Ni 8.843439658691976 0.6882398479595185 11.382185991504944 0.25649530825240985 0.4937927034201302 0.3904515827276179
Ni 9.117982804703795 6.681815766124521 5.2899144735024874 -1.0862178092031938 0.6551265985773427 -3.7636283728987765
Ni 3.1132786803171886 2.4853305687976 5.738556941982848 1.0211097638499513 0.5339883018024093 1.0259089850108074
Ni 0.7178212148384111 6.9062319413524715 10.08924033413514 3.402895143171198 2.2465918900048276 1.772061120138103
Ni 3.801586810957566 4.823544698616156 2.364889273554597 -2.009183680290856 0.5735038433985284 -0.04993570848817852
Ni 3.518082732307018 2.868583484253368 10.367904760857423 -1.0169936847990484 1.4774533212846879 0.3199894721513134
Ni 1.020002945151812 8.47222507340953 12.08523289203973 3.036706803866318 -0.5340795759646351 -0.8867781083131954
Ni 8.259248585673403 3.7873877548556973 2.3766217347328404 -0.20482873311605365 -1.3570174498934178 0.17010469937130704
Ni 2.267518170649965 4.484750356053788 0.45931795117407836 -1.2665393012065025 -0.18087067963855946 1.147179950708863
Ni 0.9303468498050337 1.9479832856065342 2.780593299243707 -0.9659076647565107 0.4168920363073336 0.6412765800681278
Ni 9.381572660402512 4.581562102202891 4.22652677076722 0.6372543462826122 0.01464063273131027 -0.3636033521865222
Ni 1.634397412210526 1.2589642667818735 12.848312428978861 -1.3151740314950704 -2.1085347059873687 -1.0035748402899813
Ni 2.9128830426844945 2.923621195783931 12.627763111321736 0.781279574958048 1.5903280924992482 -0.4902888040319298
Ni 2.7525777571286167 0.26483952229635244 5.327275389103332 -0.2649868906631888 -0.17802343999775147 -0.3041507053468439
Ni 5.557873485396978 5.403722994910289 7.357986416397452 1.217788871275677 0.20865299195815035 -0.6139560378763039
Ni 6.0853244567594675 9.22641196039079 8.269906296162512 1.673735193271995 -0.7222010236283368 0.476556799157818
Ni 6.991005357328252 5.447470679619406 5.232182869905167 0.735671804421262 -0.04377637375500203 1.2075167999257075
Ni 0.44977988957521453 1.2818810569331105 9.348298416482107 1.340240487545395 -0.4708319808588988 -0.7814842347696863
Ni 8.650947975213484 7.89581635525048 13.118338628882912 -1.7435660980222036 -1.509153737711762 1.6929953270531874
Ni 6.686857459957794 2.338981140754231 11.88897069504697 -0.28865055282871577 -0.4289561665607193 -1.2527653873508617
Ni 6.8354143828892004 6.22709052677259 9.469812591655863 -0.6490523673588047 -0.3274760103363457 -0.8872172527331429
Ni 4.345837192569698 8.114143211952529 4.187523329309004 0.7677239477608004 0.2407922956948563 1.5881850780143163
Ni 8.958977696221803 7.98594014019218 2.812108094908012 -0.15898082154400361 0.3883545909892731 -0.4715665450320782
Ni 8.685426052151222 3.8187136039236536 12.388622196887225 1.0350973363782947 -0.36313721118338105 -0.5468093648264777
P 8.082134536075984 0.9430118840355541 1.007944036636312 -1.082693083879387 1.7530311000898453 -0.2641003742931774
Ni 4.1612962322049 1.0872099399422763 11.652827670915913 0.5231318187038797 -0.8775825578568563 1.2209878378289487
P 1.680146808385914 4.366827101589852 2.758702620063731 -0.5138647915796569 -1.6222550231148318 -0.555014012124457
Ni 1.203421450488794 7.000433979561904 6.760805732569482 3.6440615343760205 1.6358690143538408 1.7431511219719722
P 7.142854815007918 7.340650098492839 6.649462870706114 -0.3189139796989475 -0.33547676915363517 1.6976798770130503
P 7.39746503048411 6.011158240796546 13.220207034932324 0.3217578769056459 -0.3218257540291038 -0.11137119008584047
P 2.2012465550493476 7.421289138449498 8.60638370447163 0.9149391441284437 -0.26715330218688826 0.5643939106774603
Ni 3.043677114800717 2.2541983709865527 3.436874981802933 0.3862360019843735 0.5876742213616395 -0.12626327670632448
