# total energy = -340897.71600138134 ev
CRYSTAL
PRIMVEC
8.99775101123686 0.00000000000000 0.00000000000000
0.00000000000000 8.99775101123686 0.00000000000000
0.00000000000000 0.00000000000000 13.16911811156354
PRIMCOORD
 96 1
Ni 6.387710304470684 1.956632912850529 11.412555575690787 1.5056051011285554 0.2690548900849753 -0.3619282784769444
Ni 4.599902191553083 0.23547833896949585 6.004143382267373 -0.2721911217211119 -0.0470370467841448 -0.21868955025854594
Ni 2.8162060507918176 1.7113722191143605 4.927264662827383 0.2895668939953981 -1.1679074130642015 -0.8412554412910479
Ni 3.333243810134449 4.281021900041973 4.921562788088936 0.49652321497741586 0.42673936141505864 -1.250402286435324
Ni 5.041601782700948 4.492954924484769 2.741916120575636 0.31457858554838725 0.5022367204224254 -0.5883856456063673
Ni 7.517692849883287 6.207179430630987 2.6072485825680607 -1.105892661924302 -0.6285894715187627 -0.8305262277990018
Ni 5.061018929119711 4.589212863496785 11.550501894122366 0.5299827801874422 -0.0749625695498193 -0.7662540480834932
Ni 5.686173663146245 8.056982047174762 12.308884526014213 0.3469143215666155 -0.998821641875712 0.5737213587259732
Ni 1.8802420078017332 6.673388895200868 0.4237481783489427 -0.018729715199019357 0.12481857383999793 -0.23163145513119462
Ni 2.848750915757836 1.5211417698161702 0.3102775418860026 -0.17587759729934227 0.12290490175705285 0.9796797788399385
Ni 0.5787443349403512 9.13982537567916 4.609231059674943 0.23080458835452508 -0.15927418441470637 0.3731490868934283
Ni 8.454124775919606 2.4189463512854132 1.4803936553645234 1.10443304665964 0.8666358290373655 -0.22137403906924458
Ni 6.729984748293557 0.7895229479440697 4.678869152681439 -0.18288205364163343 -0.9500853530122734 0.4034397674571697
Ni 0.8400552167125669 7.542976529881769 2.6295171162435924 0.401944670968882 -0.5390834569371297 -0.2240546712252012
Ni 7.574225718719751 3.8388814191005407 3.8727084635682614 0.4292983803914865 -0.3994028783836347 -0.4574442466980831
Ni 7.58186480922463 3.8089818928959294 12.67189158743584 0.6764906660754155 -0.08499758518831814 -0.4585215389226619
Ni 7.809516904470753 8.691107538837766 6.9050422902673905 0.22162420740683766 0.18385187375407047 -0.02205209470403299
Ni 6.914618596538702 0.8480524177028342 0.5914527582961719 -0.04815470532835577 -0.793606214844201 -2.247106367747401
Ni 1.8343084895126753 6.210625569221527 9.108657166599182 0.15493416227845577 0.6658588973931823 0.28474736111956767
Ni 0.11107093630080653 4.951768237823778 1.2332407346163687 0.45432549856344334 -0.9327298924529613 0.30613045478103407
Ni 6.197668807941167 1.973062805974098 7.0472427453193545 0.49412360439698766 -0.04391598465665985 -0.30960890024793775
Ni 3.3721770782317564 4.458808459860484 0.40953713059463553 0.33221583901417623 0.3149994751358898 -0.22138740880568322
Ni 6.185602823998829 5.61050257816858 4.5799424807557045 -1.160828137619917 0.8729080351993224 1.4812102172239587
Ni 5.333227886768852 2.6979846018594116 9.310105111930863 -0.5725188537774398 0.4686804817335347 -0.05045944220213245
P 0.3151282293903378 5.516350112864623 12.307462881373727 -0.307719910755341 -0.5764567553792653 0.42038642261383724
P 4.132747963139842 6.260473109147361 12.479806701679399 -0.7919486246361199 0.5122421683745694 0.6664049997046394
P 2.5243190119481276 8.560424204923903 1.4545818073888483 -0.47849695360332434 -0.21669411709507194 -0.6813356528725427
P 6.244511099070027 7.565695850876847 5.819353872931845 0.1286690579343397 0.6025814774907751 -1.2286394408369354
P 4.842652512791181 1.098715361072842 12.432411048870854 -1.596014087140432 0.31632230771237135 1.3980291164190892
P 3.939557253799124 6.095121441057642 8.163918516942008 -0.3810171767875954 -0.5365185244234308 -0.5710312134883198
P 4.730459556954499 0.9762019849663166 3.8224020383470814 -0.27371707144733504 0.6804666200040281 -0.6225779752173599
P 0.30572018106065335 5.460105172056611 3.454075506599794 0.7884408685931776 0.16590017437165622 0.8986463205056912
Ni 1.4147073745485375 1.1773557038439226 2.506912862853087 0.3120200807925917 -0.38142829618308505 -0.34793453530101365
Ni 1.8388253604590235 6.3824646157023155 4.721603070754319 0.2885883321322127 0.05537641988777559 -0.4970500340151633
Ni 5.848439102680989 5.5561291695455095 9.14994244677891 0.8496189827643947 -0.4195377014602968 0.2896591965988882
Ni 8.69890858885865 2.2453347478794634 10.085582570736983 -0.18990759302984714 -0.25209589363313356 0.5493411301093959
Ni 2.2991323004456294 5.133648774296847 6.904055236994853 -0.038345946768050095 0.34970885359261705 0.3398563862785695
Ni 0.5487440339257817 9.00584886493987 9.093342094810776 0.27024171130422486 -0.6460457193219971 0.6296433667045737
Ni 1.4766748849220421 0.9466173800428255 11.475450754180963 -0.36312821232231657 0.4905824240129486 -0.8377625976464411
Ni 4.124784953602953 6.716011241162723 1.547134472584717 0.24002893516627047 1.1690615812733027 0.17047468111621608
Ni 5.532123170173285 7.6965321465558265 7.876435877158552 -0.07807488992655585 0.638001765971598 0.8403794664439979
Ni 5.269541805975523 2.9355522185853657 4.832842264996752 -0.21620020817778896 -0.4921793361864234 -0.39631858303135614
Ni 0.7912172244364947 7.182031752963932 6.82361804337121 -0.7061133740378548 1.0562570011750454 0.1670682265378284
Ni 4.8031163953843015 4.498038653737132 6.922820946249242 1.2641977975575196 0.5866663489224154 0.125458521416842
Ni 8.20349242490262 7.055658341725966 9.117493857747403 -0.4483967917838343 -0.11064279656024817 0.06553253448517102
Ni 4.5878272098598565 0.326222456236647 10.357103200443108 -0.5920258134621158 -0.22003475143253073 -0.40991123411412633
Ni 8.139347458813946 7.228703086825901 4.6369387337629595 0.052562090367432056 0.03362514425361306 0.9520792435138505
Ni 7.29615022749089 6.030472600919174 6.963461087690218 -0.8480590944764427 -0.5719670950390279 0.047222423322073506
Ni 2.389163795842361 5.224454076270044 2.4923212102361694 -0.9195625018330679 -0.35448467771470565 0.6245844641244276
Ni 2.314239524188495 5.408485075205617 11.403376070233687 0.0409792706258391 -1.0958941559506934 0.0807372672500674
Ni 1.0603219580288832 3.1803900180297444 3.6579987332010777 -0.19095274646490984 1.44913750505913 0.09136672193945555
Ni 3.7107714419409707 2.6544534830577544 2.6557896490647916 -0.6213268764190784 -0.8833631690943755 -0.08230332618560665
Ni 1.1969528052804688 3.4841450902962103 8.279464034759984 -0.6573336335309905 -0.6539251220700738 -0.633930938336334
Ni 3.403039363781505 2.7428203945399945 7.116025152216293 -0.09451760886361141 -0.9412230175256371 0.5513602174219536
Ni 4.017837686534639 6.820358158224075 5.88812368297754 0.5460766004255112 -0.4538066499454958 -0.25989044997688787
Ni 0.7051762315590968 7.281672846310265 11.209764266151359 0.09765204072753504 0.7168999231303975 -0.203203795918121
P 0.16690378011809584 5.472720018803185 7.898507360089611 0.10167735983684424 -1.0392581526242037 1.1242346547665993
P 8.44530698004825 1.493176760052724 7.991178795597216 -0.7112830911642524 0.9612645095575446 -0.5017099013846779
P 1.7662225085345558 3.224290044617857 10.367690853914358 0.4132588104301206 0.02020012909695876 0.4295652608996279
P 3.973937659946527 6.13624116262101 3.7425317030294556 0.16280148084167445 0.038027129976050636 0.13108075269962585
P 6.832712070194864 3.895594242954788 10.478140045628724 0.7211124185498483 0.7695771989194552 -0.9501851118149313
P 6.367033472927441 7.659380433134569 10.18126915256754 -0.6510655411340917 -0.24383545339655424 -0.45839555486775896
P 2.291835124474537 8.30307953174362 5.743236499510079 0.31564070826431445 1.1968372087246741 -0.09006908617395457
P 6.941323921177669 4.154792452818233 1.6916392516393883 -0.08452578775822217 -0.8146560935359647 -0.29138877769548527
Ni 5.295113414002458 3.0548084088700227 0.41831803568734693 -0.07026387852256931 -0.6214371767446975 -0.11163369971860776
Ni 1.4564119499196997 0.9458435734663596 7.056369164046208 -0.4470603323605979 0.8240131092708325 -0.9588582141088969
Ni 6.703090470885918 0.6394143696356419 9.233132052399538 0.8005582206820019 -0.2291673098614182 -1.0088898247449916
Ni 2.581895619887732 1.5251547667127263 9.2090459730444 0.5684691091880985 -0.4437274113326229 0.1670584563458155
Ni 6.221782780324061 2.068609922665872 2.4426608235288296 0.14852928719337646 0.5147255969180554 1.7133813469087071
Ni 4.075261332709128 6.7642031949249555 10.294405072697405 0.21902379366951313 1.0193773545398765 0.2435441474083806
Ni 8.215027541542499 7.102248695829932 0.25942675273602994 -0.6530128946684496 0.16029234126657554 0.2181370201891856
Ni 7.550822568657099 3.7326359766015798 8.253586503202817 0.24154228648700335 -0.12725340853373568 -0.41369949751196494
Ni 3.190566474285362 8.444839097002014 12.2961104190769 0.30076713358659174 -1.2125772451677506 0.06788457965711535
Ni 0.010434691706135247 4.685155881227681 10.203023914667302 0.001921385392428949 0.39822017092944323 0.24294945124717512
Ni 8.43485159351507 2.099733142991406 5.684608054491535 0.7441543879709764 1.2669267664529082 1.4546838887986562
Ni 3.5419736352607103 2.86773617013392 11.61753243892119 -0.14801943743649346 -0.795927663888526 -0.8374211551466223
Ni 1.2325659032996834 3.2168309091307608 12.63480735714625 -0.9745655975418248 0.6773884952993366 -0.7187997112562717
Ni 3.0094147556343134 8.126669627811147 7.849228478019971 0.2083971671936024 0.5420191425266858 0.8957432879262832
Ni 5.599363362567826 7.8809770420323 3.465861660489478 -0.6471268682013178 -0.25473230281471615 0.941292951531624
Ni 3.0811898144769803 8.433834847664597 3.6184392216418857 0.42061962167056594 -0.28386213030113694 0.2895296129995595
Ni 3.523285306663967 4.255873186306828 9.390924709967292 -0.2577674900966141 0.054894338045034484 -0.16799870877189776
Ni 7.224330179893777 6.024822013360793 11.399675295292983 0.07881948140206425 -0.1404835340707645 -0.422445362025395
Ni 0.4702899445981064 -0.008203249485628615 0.3967054380516335 0.7537512876307921 0.5840903606651231 0.2874583322928275
Ni 4.710088648941487 0.39249539041060505 1.4001139223814416 -0.572573104054143 -1.0364155409690863 0.7528614288266711
Ni 6.06710244478886 5.650263639347688 0.4307925175200501 -0.1862471134591244 0.8143632448858942 -0.09448984094946952
Ni 7.924436178826844 8.831301495441451 11.255210106342226 0.3325487968735628 0.41576486468142587 0.5569467103707957
Ni 0.056973758630032234 4.834500550485621 5.75292887676786 -0.273858996341838 -0.7867169439235354 -0.6816030476013165
Ni 7.830175740512218 8.772870101167378 2.5138924182177926 0.6142735691167227 0.6200978891079836 0.9713949131233272
P 8.36246468761194 1.7279910650066015 3.5399248473832534 -0.022504865970735435 -0.98114607897282 -0.2764609527410593
P 1.9301345364820128 3.2222025664115765 1.504150417037119 -0.49294243960469303 -0.34587790988230116 0.8049519788743233
P 4.529638754859791 0.9979045601109215 8.128756206242338 0.052328377090071175 -0.2582146049363618 0.07761466246068568
P 8.557760870660717 1.6718091084548135 12.437941966342407 -0.45856190524229407 -0.23378089737402966 -0.11814013337855783
P 6.336783034438154 7.680813075752499 1.4550424922343723 -0.4371595283071181 0.2659963057643096 -1.7954270485575532
P 1.6607778658647283 3.239235308844718 5.815548724080828 -0.7258185657762661 -0.22905983774927646 1.1668010673739002
P 6.737569852293101 3.9357242119203506 6.046297845182992 1.0760406115598757 0.3072226594039483 0.22352785218745375
P 2.3804989617361194 8.27932546939629 10.164069951742949 0.005614775083616136 0.6120235967402815 -0.10036326901111102
