# total energy = -381177.80164656683 ev
CRYSTAL
PRIMVEC
9.11611003313163 0.00000000000000 0.00000000000000
0.00000000000000 9.11611003313163 0.00000000000000
0.00000000000000 0.00000000000000 13.34234850402324
PRIMCOORD
 96 1
Ni 5.100964840750831 2.2533109138010556 6.079734205794293 -0.8219559696314875 -0.9871115525276355 0.11405979266159713
Ni 7.1142850469402905 7.249823368020941 6.599352466595818 0.4569493093395356 0.30504802035013273 -0.14904016539152395
Ni 8.5085666984282 4.690685201353753 6.522180038756954 0.11221785435685189 1.4338299281677822 0.4655172535142047
Ni 5.425170171051628 6.956284631217272 4.830396877518525 0.2980793023417834 -0.16738087268224075 0.39254934579691103
Ni 3.8183008381270245 3.957540299802156 7.3917274686019026 -1.069212790004765 -0.29750928877092636 -1.2917165718030785
Ni 7.618807029849057 0.17288064181260285 2.5804771565774374 -0.11303160850739889 1.229063929968864 1.7848670136535196
Ni 5.331146614176069 5.430895088030284 0.3961159395408089 0.1546639393362046 2.350853208518764 -0.35280729001228267
Ni 5.657284559762654 5.032129095359387 6.482953418121357 1.787502394393838 0.1605625642088267 0.030792559900824388
Ni 2.5831499999821217 0.6900603432322961 3.1334767883860333 1.2790860275232616 0.4101794001738484 0.07913032777426372
Ni 4.677712977053392 3.3338525290829075 13.008229287779507 -1.1629714092151648 -0.9104854792324641 1.4038657777055241
Ni 1.495953624518075 0.3134683761328667 5.292229029664002 0.6591588596651874 0.9804313122939824 1.2049428685509442
Ni 2.522856049509468 6.03539344753923 8.00143295005067 0.628562217825253 -0.811809368115789 -0.8221284906536099
Ni 0.1433936729285921 2.4190235584475492 6.4587501464998125 1.8832672454009889 0.17696028884055975 0.9838706769928345
Ni 2.593314462452187 6.562441337859233 12.87175018416351 1.2222134827059339 0.09372082399392892 -0.3972403235146772
Ni 3.4942869461328385 1.8745456661160984 11.45959639933698 0.47455673800865367 -0.5218920327595076 0.18870740207415887
Ni 0.5984753457385678 4.7411702176400485 8.904509431882076 -1.1800964989312257 -1.1532966051295623 -2.8055839129404263
Ni 1.3067214164879335 6.224242778956149 5.419248346100459 0.04035217856480147 -1.0270245866724892 -0.1602450329684079
Ni 8.767655656151712 7.435372667676279 1.181963806902439 0.40938210108353373 0.4591406605638995 1.2288494999652126
Ni 5.326944087540462 3.281635451927274 10.864206856778786 0.22840112111935504 -0.9084131700844678 0.2939287705085196
Ni 5.69068598621137 3.780295776209804 1.8965610713763734 -1.4831935662025746 -0.7082036809079804 1.3146081316892715
Ni 0.5534153264172369 3.1882773710699333 10.61802722219775 1.5354031583265944 0.008494924844888596 1.4740340111904937
Ni 6.988710633913255 2.2180406848354224 0.78523891122441 -0.04360668094635716 -1.910634324560032 1.3096942393274218
Ni 1.7299368157460175 8.719039442382334 0.8016178257714643 -0.2672322350539398 0.3378025890733343 -1.1779293160765778
Ni 7.7865890314289175 2.076057274098865 11.474525852419694 0.982863575884559 -0.20910267790105924 0.037423434953780706
P 7.7524583161931115 2.972134406796176 3.143737881620387 0.1669440422551383 0.0792056610968894 -0.5008655511065117
Ni 0.16887866959344724 5.799659963222271 3.3312644654997223 2.075320681129245 0.24702876352287131 -1.6854931051388713
P 6.688161608643686 6.730223339439093 1.5239364352787128 -0.44944528765300656 -0.352256045494503 1.1430330184200252
Ni 4.759739733381324 4.024625752104584 4.584643876877936 0.490978888120419 1.3017055646949904 -0.26251888873867046
P 6.89287297117981 3.6358145513774645 7.672210112894695 0.9088641415789573 -0.15567901086428027 0.2829697003938546
P 3.4711411432525736 4.973330186900267 11.4973416521238 2.0497536312934184 1.0669252795221689 0.047679051243517886
P 1.882586074993764 6.652198555330317 2.0130531041711883 0.1395779915373596 -0.10843216206217454 -0.06872147373611391
Ni 0.7495566340940708 5.452545848897014 0.3784461838406055 -0.39022198321531504 -0.9208819919754399 -0.30730930558048364
Ni 7.188234929951203 1.1693416412198812 7.034486267856918 1.9391961953581247 0.2946247681342797 0.2158528521406992
Ni -0.07193157629264059 2.8793779891881846 0.09362062482069303 1.443362807358882 0.8233281673886659 -0.21959534990226698
Ni 2.7044033769456495 8.660514017218373 11.284023770289032 0.13085398140080046 -0.4747577982758662 -0.17331369322690798
Ni 5.246704088740901 0.3690593255397751 7.57547815978608 -0.8675418857914028 -1.3672802652720066 0.22989596049732663
Ni 5.050698611100662 7.598432524359732 12.346475377207119 -0.25893682781436694 0.4457508695205549 0.05041239101428092
Ni 3.6199798685877753 6.696356991388608 9.850882877392023 0.6004166086289724 0.7457898666918703 1.909168795758099
Ni 6.111248597506413 7.191015343451983 9.551973840282422 -1.884259691221245 1.9588486794817297 -0.1558427901356542
Ni 2.629851830685389 4.819514065593176 3.5852493133245886 -0.7126830568355726 1.34267018003281 0.29521355075821415
Ni 7.139591367852309 3.0962502422490314 5.517074232389708 -0.24809705688638564 -0.27432873688940496 -1.0841231314576942
Ni 7.226914583996481 4.998235398979386 4.016647332773821 -1.2483415472515533 -0.3260809297610319 0.5334599401027651
Ni 5.844310669211848 1.1369338707435754 12.095786003088916 -1.3277726940956875 0.480453820219379 1.8498657871224078
Ni 2.3548917257328346 3.504797820776771 12.448677907829893 -2.040402786206138 1.3123846416753915 0.5307075741686086
Ni 0.45993326646609095 7.713824242697026 11.952182659634037 0.08092521489115741 -0.0231862083084762 0.784318876005004
Ni 8.730024354737877 1.4202807967476632 4.512942938164212 -0.9156125160463845 -0.026967786838095493 -1.668850354375868
Ni 8.198518686706786 6.394121485798893 10.288845407536048 1.2966893424273216 1.3910298022831205 1.5634991452318623
Ni 6.834958325375036 3.901257437658496 12.63557730335233 1.5154326287419384 1.3643792895751277 -0.7086266273780117
Ni 6.484799430363679 0.1821006753033864 4.933747126369981 -0.20474902891805383 -0.4423994365498187 0.7248155784330486
Ni 5.761572856316504 5.646718988459689 11.253043582613454 -0.1327008048015521 -0.14863238843014404 1.0523669220920198
Ni 7.532523050226487 6.434897845107055 12.779300979457082 -0.5895279867409267 -0.2861229013108556 -0.27846821297907526
Ni 1.0236023932298113 3.7148056431291345 2.174042692310291 -0.3674610353697155 -0.5548484330808702 -0.2240670125203754
Ni 2.546722025066983 2.114144381004633 1.0191391458528214 -0.04618524030681078 0.09289575698947226 0.1460815969838323
Ni 2.6646480219394135 7.87026580363764 6.50147279525852 0.6968067519249483 0.556997361103073 1.1310480781440069
Ni 0.5164722912962162 1.1818033633692793 2.0135736340429737 -0.4811207643794165 1.539035355762543 0.341340941243896
Ni 3.3014538747164406 8.795988525530152 8.677396141028519 -0.26103639065587303 -1.6830886094624367 -0.6145291367709546
P 4.096524510401806 0.5098530839423918 4.902205386328344 -0.22590020907437222 -0.21435389899766957 0.23411642633657742
Ni 3.6750776364524147 7.961654804769839 1.5804946039394991 0.484020968745347 -1.2427990201667694 -0.6268002408288238
P 3.659580249726755 5.786860945008844 5.671085438447345 -0.6872697589687906 -0.07622729519485581 0.3339019684673475
Ni 5.199427943117801 8.683185782387028 3.045924757884912 0.6356324944084731 -0.5064592431442052 0.7552530689872993
P 8.502495369275678 8.639966305642115 5.7300985754876725 0.7194527714592384 0.36798631174556623 0.23434936828298994
P 6.8790620647742955 0.9153668211158374 9.938354686126564 0.6294770163300384 0.12535182063564862 -1.8221868331499007
P 1.5177867075815776 7.81232380950335 9.397549674449095 -0.9101322096581036 -0.4863632437252785 0.198099127701704
Ni 4.837965071906551 7.026660999171445 7.36503002932851 -0.6116245615296498 0.06520137639799739 0.9586746373431813
Ni 1.2915066291672712 1.3659487821094687 12.107220339659502 -0.625175046520575 -0.7215366505714605 0.4269419643441679
Ni 3.242718779026191 4.671751041218933 1.2351143737055479 -0.8482809806792617 -0.3111839580445415 -0.07920077600088296
Ni 5.376052571241126 2.6174083407556683 8.731125580806381 0.00953879272837067 -1.628679438583937 -1.0547572767010673
Ni 2.9237552118826025 3.9489255760046564 9.578498073468879 -0.9963901496160841 -1.1934382103454542 0.5383170110847504
Ni 4.723858725056503 1.2637298424889862 1.4647500921514511 0.16423744195725265 0.24817727530501774 -0.7472268562487131
Ni 6.657558827915428 8.803937773309432 0.7329461703571155 -0.8181507369527846 -0.5908652174951114 -2.3720360132439664
Ni 2.119741672445548 1.4001888906633377 9.562221259352018 -0.27007638937095424 1.5888967593693604 0.2760750301565504
Ni 4.817417360330293 0.527027834878358 10.09724939222475 0.15995192720802132 -0.6887018634296268 -0.3606740943548692
Ni 7.339835836567508 5.744325176501828 8.444866057708854 -0.732862359996925 -1.1986794041397357 -3.123346295533434
Ni 4.636453463923784 5.870391859460149 2.8522074238141677 1.119858894296407 0.9158883954155903 -0.7984535156341732
Ni 4.938880407820109 4.861530215839392 9.350451292967847 1.310162180102776 1.3387659598823975 -2.684344571811254
Ni 8.180377628127925 8.327064951541212 8.74159999101096 -1.84757904797076 -0.30203751565858306 -1.3481772258939686
Ni 1.5162005044696572 5.598904992356109 10.635933085142772 0.3229894353199018 1.781610197279119 2.0153628125183745
Ni 8.721847204212631 2.171092719166513 8.784508608410375 -0.7981113018034062 -0.3140977892572268 -0.12801728328295373
Ni 3.042811606375022 1.4181658592651027 7.102878970310205 0.47919835054572313 0.14237329489430967 -0.9264404598998237
Ni 2.603697711558379 2.974021441532771 5.01743027985559 -0.32279326014869575 -1.4510989996608752 0.6933388479810059
Ni 0.6179947601250279 8.414734579859251 3.540712558707995 0.9504226817470341 -1.0136365954013575 -1.4815915118227774
Ni 7.840556401673567 7.3400637393134724 3.8731369736392947 -2.8081475599025443 0.3496959980768107 1.080705878246029
Ni 0.3875814375098898 6.687377623197564 7.546058650114874 -0.7505662050345913 1.1774204947609592 0.21443925962262422
Ni 0.34135090968527976 3.8338802698412318 4.529806829754682 -0.016619867944868152 -0.23265218308622512 -0.2270770029912928
Ni 7.491081214900106 4.035492155032223 9.97935621334774 -0.6043735363941914 -0.41437261231958955 0.25177399151734053
Ni 7.81921558854135 4.622906924703589 1.5646836230353909 0.6378868376602886 0.5736133723931992 -0.27352989513719345
Ni 5.654449449602842 1.9441107002946323 3.5328006869790536 1.1865168006352727 -0.08512871144954372 0.5274116770261563
Ni 1.009353913552043 0.32612427142182737 7.731410130186714 -0.7102819035932476 -0.8042806638389115 -0.3721299016002946
P 8.770408721322976 4.9179407035207925 11.698343669566587 0.15882012759642325 -0.960105713362753 1.181232669418198
Ni 7.141405473710195 8.487955174083073 11.361476062699941 0.6728440704617638 -1.2697968889118518 0.47617833277247673
P 8.870549187900252 0.44847978606484473 13.44228283002473 -0.8952542641050065 -0.17536234822582056 -0.2940984633171645
Ni 3.045756109852897 7.471335720989648 4.298223910247248 0.24594967152607966 0.42552940026735747 -1.9235019245513196
P 1.8165307431031 3.0392016268789273 7.801537628342292 -0.8600242372581188 0.0017018131824551336 0.644592017594606
P 3.974186316367482 0.25649633608540684 13.002705836828286 -0.8288169584173791 -0.03673952151287866 0.32402764677642903
P 3.771635471863112 2.949608499384938 3.0048038096248497 -1.3341827113870894 -0.267874496623629 -1.3982355760029404
Ni 0.047066475096811826 0.2884729145663456 10.345697114933639 1.4952672095376571 0.8529228503266473 0.6474785951137816
