# total energy = -340858.9916124333 ev
CRYSTAL
PRIMVEC
9.41496523980127 0.00000000000000 0.00000000000000

0.00000000000000 9.41496523980127 0.00000000000000

0.00000000000000 0.00000000000000 13.77975330772041

PRIMCOORD
 96 1
Ni 6.914990743454833 0.07931355078915923 6.401384614207511 -1.2566341262776488 -0.8367125591153719 0.350244671491429
Ni 5.077792072151519 3.533681271039621 8.45425095443751 1.8023877961461023 -0.03988140957597002 -1.0349042465308822
Ni 5.1361836870222914 7.460955166986154 11.260718421713591 0.7416997557828968 -1.2878596599508336 -0.7280276576124429
Ni 0.5419075149779808 0.15916940358034307 0.9876759946560706 0.5776934559998438 1.9131897439920342 -0.8840347412401033
Ni 4.923979783834231 2.1127747060126856 13.363260001927657 -1.065228094325404 0.826321445689035 -2.0118257458993933
Ni 2.1078977539805894 4.727903716227215 5.817604982496818 -0.20957576088273586 -1.8278635718197036 -0.2181568176835275
Ni 8.78494407908182 3.516743748441666 2.816636571310573 -0.7915580740659206 -0.6752524227929403 -0.1638774875146726
Ni 8.709370152514955 6.667038216973588 2.892508010781327 -1.0599442202186455 0.07943294661634707 -1.0554255064126854
Ni 8.067335422930528 8.467951611960883 4.285448362842744 -1.2718378306012805 -0.1588214131480039 0.2701046715057283
Ni 1.5805937916994897 0.4816931628226252 10.565143608884142 -1.2987444251841376 0.5136832716964701 -0.6217313109463487
Ni 6.130130990073304 7.03853391829106 6.075258689236502 0.018842329517483675 0.5593530058194431 0.418678181673479
Ni 9.436337284187296 3.822297032707397 7.323194453030876 3.6517661021091303 -0.21177148298247397 0.8688485204179682
Ni 3.8433771400430405 9.36004782025665 11.070819512848386 0.8158663117939821 0.8961281820695275 0.3772003741446665
Ni 0.08569972176091759 0.520511064807823 5.2794502726925705 0.975759617849926 0.3192726485899469 0.4202619812208311
Ni 5.429704645618102 4.645475694912539 5.754410793819921 -2.0782247421499176 -0.8714936713502992 1.9852117428562908
Ni 4.326609649694329 7.08124961591581 13.439118260446971 -1.244797795764353 1.744576284454273 -1.083597083750895
Ni 7.384722192847384 1.8806016613959071 5.079382259792872 1.474710468432228 0.8066777033161786 0.39628695846247236
Ni 6.350742457285808 9.115305796947114 9.641156088583896 -1.1788022055998342 0.47582686297032895 0.4606678958417034
Ni 2.5058777527233245 1.0842462353672937 5.966577978643262 0.7426870593968307 -0.6640089886686371 -1.6789488762624505
Ni 1.768601234033328 4.951650366888924 10.564165393988128 0.1966467115258936 -0.5733164099780707 0.024355031805596762
Ni 9.299876776941733 2.9525237071685795 11.901696792189908 0.8642179636244923 0.41144875380457524 -0.14162510387437544
Ni 4.351851171698287 3.4420077537876517 1.6749147971974545 1.8245242230338257 -2.276406145152783 2.2251913128418646
Ni 0.5723103209664846 7.8794503751457565 8.686108597716308 0.4751360075508914 -1.1928658827817522 -0.06018232591685119
Ni 2.1465744314860933 2.7337575731574084 3.9395764311209343 -2.818613492430875 0.7086952758324182 3.1665228309209077
P 8.616585669356061 8.254693232657774 6.722810588494306 0.8290676409756044 -0.48762796937031505 0.21738651517640628
P 0.7630189168486016 7.477205397116266 0.9276132234422532 -1.0056718320283262 -0.4165225687830568 0.5008256990075117
P 3.6130117687663437 5.532704366141524 11.474813791433018 1.1949932135374 0.840947680242642 1.7599427396080143
P 4.984348541420719 2.2490657438826163 10.797538846682306 0.6972101580109542 -0.4403117007828546 0.4403284129534029
P 6.683392011722143 5.62307861818031 4.542316861475331 3.050925775679178 0.46248566577673256 -0.7093645339853009
P 6.186592537054926 6.972779800545578 9.292900287644855 -2.2977833252769786 -0.7343754542073416 -2.3917316919006812
P 2.7325995324239187 8.83267795321836 8.929321630659024 -0.33499468731089405 2.2523557890717987 0.9842666268796725
P 6.772608223027438 3.533973134964322 1.0203393338162081 -0.4708317237485827 0.030679945582360067 -0.6665548950189424
Ni 6.332741043607491 1.4235992451064328 1.0507336663359301 0.7760232116551151 -0.6925580039509234 1.5011869174562018
Ni 6.3036958756171115 0.21561400362440272 12.329007232372007 -0.46407255064787817 -0.3199138817183716 -0.8410412683977128
Ni 6.389259080380992 5.05058282239716 2.5015901775198177 0.914747596942928 -1.9449518668949792 0.039236576903119526
Ni 1.9733955595201151 8.378867210169966 12.751577237519042 0.41642898062798606 0.6147481947602961 0.5468669575372904
Ni 4.442225423737073 8.77358963091443 7.612955074480703 1.4204095409968183 0.9373247109124955 0.15649739300051757
Ni 2.7483036945658808 7.150289556555504 7.775653207060331 0.7309772271590701 -1.7495320857976513 0.6878760250942217
Ni 1.0686832977050253 6.626007798139853 6.528984697597078 -2.8326691991929924 0.9216273547818966 -1.7253207786587708
Ni 4.32767354077469 8.733528953507925 3.0329096225068812 -0.7003469038677228 1.8838583420177684 -0.9516971775840837
Ni 3.9182731891073748 3.9389672828651876 4.138541951582488 1.3163590529421072 1.6209962110070664 -0.9401750358770969
Ni 7.522481965306132 8.759071754401896 1.2325856043481769 1.737078690525647 0.975711795331126 0.19689662275317057
Ni 9.18480707088714 2.333179043988306 9.554522402263936 1.9137327609796977 0.5454986164348541 0.4632839933083118
Ni 5.145786951641478 6.690660364943722 3.5200935931000052 -0.7771755800920034 0.1502400992368961 0.4386682516421606
Ni 4.334122792014044 5.6359394607977675 1.2404875847353165 0.4277796297541149 -0.2628060809617861 1.9264772051295596
Ni 7.724329406649972 4.228976459399277 6.167555477192188 -2.0851867752900475 0.48258012253376237 -2.3823399662731357
Ni 2.252360981742141 7.450240936460043 10.513938437036726 0.8297682665870548 -0.9840743083632084 0.7035371286702464
Ni 7.744948180685283 7.302736674902417 10.479888273485995 1.69300381169362 -0.17411844851639047 1.2937914520542364
Ni 8.257141123639135 5.55749396981046 12.177787825501898 -0.8470483938237411 -0.40967494973360413 0.5353892959149941
Ni 2.7479553408493023 7.203060437134459 2.2401469472416804 0.28311342506057047 -0.5026475827075988 1.2110674933914432
Ni 0.836443406834525 8.414945357249103 2.927301956591779 -0.20828815241956386 0.5177882950037792 1.6773257388367306
Ni 3.160669760306768 4.012526406855086 13.7867809185713 -0.9106654564537542 -0.2714038499331261 -2.7505934156371596
Ni 8.926243878498227 5.248711352442395 0.9736316908987774 0.20102092933418927 0.567030834079675 -0.46506191114434103
Ni 6.512698690598777 4.90110141812382 10.20528574618998 -0.42840543626357186 0.17441978180689316 -0.0061115122143765716
Ni 7.877953395661002 6.200780889781507 7.756044658803098 0.19861977609186438 0.9570317024231196 0.4979596903136263
Ni 8.25030585882195 1.1539358086135791 2.737610176963458 0.6670434046195867 -0.33036695873089555 0.016962338885951434
P 1.2272124836440894 5.322835374351069 8.246328035977237 0.26552347989294917 1.2867276032289194 0.37473571465425787
P 1.978573790442225 2.893877888234357 9.700477902027586 -0.6850251859089879 -1.3158283772496178 1.0068337135469112
P 5.6666510776485355 1.434539434800054 7.589392240792041 -0.04241728862394631 -0.6576460225650868 0.27071659405811443
P 2.108208447835916 8.621688580555666 4.719234416167072 0.8187839996614092 0.07702510850580283 0.690887558227036
P 0.27242861180526046 2.830995334909318 5.134901368746672 -1.2596968243633724 -0.03233059381190561 0.7865259109586519
P 1.9797883209675924 5.748043452778789 4.00289395584343 0.4127435613565988 0.5821334940490684 -0.6656655504354536
P 4.465357993510934 9.299293049092332 13.44294826833627 -0.6884136427652465 -0.1042903719796591 -0.607925772521824
P 6.3974406852379255 9.264457677434503 3.0506304702188722 0.5939829371884866 0.5439107031224439 0.09837812026028218
Ni 1.5361834003184134 1.7482931538533446 7.802220356180349 -1.265160675691421 -0.5684135733598146 1.1049773491988841
Ni 3.888710198024784 5.2068147567998695 9.355984321227591 0.4195567276236904 1.8811095756280376 0.7832073881083801
Ni 3.2935055059068548 1.0588917337795813 1.1324216713770097 -0.24074807272048218 -0.1910987851244709 -0.18699581869969087
Ni 4.601300677664286 2.324517275900413 5.923502629343558 0.3740857397750848 -0.20126081325913725 -0.3030988670435618
Ni 8.171078925713669 0.9850595757956082 13.404737631613756 0.44000471106539707 -0.21757523414844465 -1.7566280734124844
Ni 8.447643531780898 1.78832558636391 7.222092789514541 -0.2519531974076822 -0.5960323635183478 0.11760328703848133
Ni 8.870959202180721 8.190793863078937 13.036983437511642 -0.07036363732522721 -1.7636546412419625 -0.4216236374550481
Ni 3.799578721407304 1.66847307793035 8.885391402508906 -0.6250624322021106 -1.6451018458060185 0.6635994119350442
Ni 1.8245920327493046 4.774620774109958 2.078924139726588 0.16406749203829163 -0.7543814650156233 1.063096649804698
Ni 8.97868523529123 4.867763025950745 9.832708265358054 -0.6924464180737235 -0.09471224137292077 -0.989977818331837
Ni 5.649374616299314 4.44768610361857 12.663730903666778 -0.5770450237825675 0.3862473148382832 0.6678021371624822
Ni 8.55856123813249 0.12103032059420726 8.941268280144596 -0.4447062303061245 0.5735287830991929 0.32727649273102993
Ni 4.603503779547511 9.061263896050912 5.252787090926361 -0.2180953683179728 0.3523172377497416 0.3651580982681518
Ni 3.56645476529392 6.7017794389782885 5.497321984999013 -0.4242111956765662 0.5189139239677901 -0.6335470726343541
Ni 6.955230305202282 2.715530200311582 11.667013717820705 -0.22746498245833086 -0.30970634505775047 0.17897680504995628
Ni 1.3925486895043997 2.3757158572721098 2.0104801663912033 -0.6668911953124385 -0.7762301854595985 -2.649463186553037
Ni 8.824421028638922 2.8554648297576155 0.5660832629085146 -0.7979704053501676 -0.16827381681015535 0.9038754301151142
Ni 9.2748706290706 5.022347341423692 4.307675212953502 0.8312628488547105 0.3858359383324775 1.8608490256067889
Ni 7.000083199953067 2.1322636842104448 9.300162050390716 -1.7934827803469888 -0.10867667397281283 -0.44856494193058233
Ni 2.721037955019644 3.800510802973284 7.85361853481668 0.5697014389333027 -0.36180306575298976 -0.22907886391267
Ni 6.050819322277206 2.1483632748955497 3.426707493657614 -2.1988207932681356 0.2494070339470608 -1.400896153554239
Ni 6.325406785628722 7.0441169927216265 1.4273482842940401 -1.0379486897841608 -0.6860001482277476 0.24871309320382975
Ni 2.1906270541852786 6.166303286805568 0.3082459643452284 -0.37589759617284296 -0.735409809009127 -2.4563622833968726
Ni 2.983593092701238 2.2326931192034363 11.837690092006508 -0.38256420955974113 0.26521160507948516 -0.604520860605333
P 7.466142812873577 4.079466810229997 8.315901805150174 -0.7233762748833608 -0.6287244544347301 0.6078704938038564
P 3.72670688988525 1.7636677922093542 3.2284998779037504 2.487195980948278 -1.1320286968897213 -0.8255686266834105
P 8.45315128648896 9.185673247695929 11.205116461065039 -0.24483458408502995 2.524960087070929 -0.6811870431098204
P 1.0211283079094313 3.922208644608178 13.578362772935566 0.17367081945601057 2.600664934103411 0.19465153547273575
P 6.3160577250729855 6.457564653726277 13.201293412152843 1.8876250081490524 -0.6389489603762157 -1.1927010750691138
P 1.3784544864309483 1.7132600679239434 13.307920718811335 -0.2073957225122815 -1.5965437343916569 0.40476851357092225
P 0.3065804569813716 6.62937835572188 10.978715731681614 0.5664178830860245 0.030326418897683255 0.750457704481185
P 4.598890446544177 5.976855354778852 7.427631838757581 0.31422788707718785 0.17356051913039142 -0.664172767940011
