# total energy = -381166.9315751912 ev
CRYSTAL
PRIMVEC
9.21162209618686 0.00000000000000 0.00000000000000

0.00000000000000 9.21162209618686 0.00000000000000

0.00000000000000 0.00000000000000 13.48214006280506

PRIMCOORD
 96 1
Ni 1.3061343195715087 1.2281763618127235 6.6672688995252125 1.275628150881648 -1.4986996322579738 -0.26725074699670104
Ni 4.146989360910468 0.9125539482870071 11.025546157506344 -2.2765390711862215 2.3235480929459085 -1.1265023677548536
Ni 3.2003109585861904 1.0037075546915988 8.462604833500102 0.7465370292705401 1.2421071363060672 0.6158306291911975
Ni 3.5333203088092615 2.951330025080081 9.617187704100903 -0.3468767834604607 -0.2336554275397589 0.6636850296703151
Ni 8.562294850096713 6.463389910102591 2.5691831191353174 1.6235115212297522 -0.1770453923551983 1.0687592474071141
Ni 3.8447376168502934 6.3456377449093315 1.2090714575953396 2.4164569625615027 0.838180659020466 1.1890966455473069
Ni 8.008731632141325 1.159319486680156 10.839208860032212 -0.5802288208271879 -1.3220856710132394 0.31391421249151097
Ni 7.450590238006557 3.459820776142672 0.7902936152422592 -0.5723687013528207 2.037820627301258 2.226408730188733
Ni 2.415867644534125 0.07340557412125817 4.8923588163756015 1.2955452015205495 0.02472424221955742 0.7965781529883313
Ni 2.909417144564605 3.7118046984505493 2.165919490708427 -0.9876440279923377 1.5479899938526696 -0.00556849522671299
Ni 8.294927518896342 3.3646647199394044 10.018416485207823 0.8963896632610304 0.7894970777718339 0.21746904758788355
Ni 6.882693736077086 9.003070967166058 5.181428729223107 -2.0155695292125415 0.7420316852010188 0.7299181897669365
Ni 4.1708566737490615 5.285849834925817 8.899466011180639 0.09191436691280945 0.6462151550203258 -2.0824755470064717
Ni 7.522238234632791 3.7564350074829633 7.872652944797399 0.07468257641555526 -1.0781789980591172 1.593930722248842
Ni 3.058783596775252 8.566467714904078 7.028415149426199 1.1368371740219583 0.04285951836768748 -1.3239386650615779
Ni 6.128446119240344 5.496519632154154 7.296655742400827 -0.6705221071968065 -2.3385692489450887 -0.5760461502044079
Ni 3.2034152752309635 4.834535622184009 13.253874387883421 -1.8775380562266957 -1.69670697157682 -0.2553329125131925
Ni 0.8942845381933051 1.9228247837186667 11.216681788927843 1.9464063399533191 -0.48364635901474773 -0.7289681671488413
Ni 4.844456539176353 3.68459356679281 0.9326288363106063 1.6964717156375624 0.9505052141585113 1.923226559402746
Ni 3.586102903392487 1.665820527371023 1.4172826728875054 0.2073720683631977 -1.306297554941047 -2.3617809111748613
Ni 0.708170161973782 2.8686280819442698 2.5134481996718256 -1.454464059478366 0.1543186401816439 -1.4192355752933752
Ni 5.2057824157081205 8.776271619655832 12.412278485728008 0.7497344531619152 -0.45794612603516616 0.017819030459291892
Ni 8.436712806125838 0.9126497491567567 7.7150466966260725 -0.5348848454747498 0.2329470886188246 -0.1323634760667914
Ni 7.900937230428776 8.485331747523789 9.18185012871427 0.8299718979574287 -0.4855533462294734 0.9220209906758896
P 0.4449674051208935 4.5897367651073555 0.6997212621916294 -0.2450978650487456 -0.4298061732658404 0.8698903314189211
Ni 9.349980655124922 -0.1439343586633992 12.788969347908088 0.8425777596468972 0.6471083562585566 -1.0818926994652787
P 4.252646666297833 8.185106560323703 4.822871866291988 0.3158741644313592 -0.48422125768161123 -0.23509524531007903
Ni 0.38747490816237923 4.507384863611014 4.109207892902947 -1.4241484392139603 0.8857566090272165 -0.6767099811750732
P 2.583058585491463 3.4259496417129127 11.555906220575922 -0.7503306919850175 -1.3583464531174865 0.7135847427142356
P 0.8682359132434893 2.4596596959562285 4.799304852333571 1.1971118025422998 0.29553056777800074 -1.1590116532364685
P 4.1247525051820375 4.342349442223043 6.68933902489379 0.23369810785223621 0.0172965822969186 0.5406451449972948
Ni 2.742511763892098 3.5150997203126435 4.6430195507701395 -0.39942113321607986 -0.12089661307777243 0.6461192528724099
Ni 8.316906449206215 5.472366759030732 6.3022537683458735 1.1470326264977213 1.9525224801533856 0.877226202958702
Ni 8.901393082522143 6.535387948368297 -0.07988963491133368 -0.3409781585878386 -0.26804496076322226 -0.2513441030687736
Ni 2.2507585301694233 4.965230116415563 10.061060768517349 -0.1156721314540395 1.4512805195440621 1.0466714143691394
Ni 7.354632770681345 2.891730830149283 3.0909422906582362 0.6523384943092443 0.24606254295486013 1.9066699405956453
Ni 1.4464181124001205 8.930953177813167 9.033856208195228 -2.399905743071041 -0.41282660798870835 -0.11717802657560464
Ni 4.573938833220753 2.578646218509724 3.327756513706139 1.3737100800577504 -0.14510586333412429 1.4887846871371069
Ni 1.0451690657246002 7.145013098371417 10.886855054137321 0.09520486473862314 0.7067708051161957 -0.13510067249229635
Ni 7.162377006013543 7.627867905153882 7.161834441472364 1.6663142182175754 0.42134801519615817 -0.16962801684520462
Ni 7.1908317066536105 8.281847015526678 0.5033396119891282 -2.1045829204284723 -0.15628064900402117 -0.2342812340492159
Ni 7.642385421569792 7.844239696456742 11.517293864255764 0.44266503150637954 -0.9611228417733577 0.30769959904036687
Ni 2.186737756634795 7.455343435005673 0.14128601731214657 -1.0848234999588287 1.1826436908331117 -0.8204960972565094
Ni 2.7898595014414487 2.9004358130255747 7.322581852776828 -1.6930305511664971 1.6210679447852663 -0.09118648760784942
Ni 0.8204690468889837 4.551729612358596 8.622920219728483 -1.6554101697105619 0.5467080633619229 -2.0352731782890565
Ni 5.133379066070398 2.76518156585882 7.9029739200731655 1.0744899792433045 -0.35783122558943536 0.07330112268699635
Ni 1.4679456732275198 2.6505060824440596 13.382776300456005 0.2710130422526107 0.5489894031969319 1.2411293457738302
Ni 5.5639855523509345 6.764038831918878 10.54341077840921 0.09597028214973795 0.3442390887272974 0.34282806731238374
Ni 8.376781992799753 2.908827600750761 12.437328570843128 0.8571052638391109 0.08943145258995565 -0.7749379490107363
Ni 6.2716868427602686 4.641727160190728 9.879887506387606 -0.7219637108065502 -0.877141870775012 -0.8312317385064587
Ni 3.524578479444605 8.254018705188818 9.670388506327075 1.1666190332700812 -1.6627426988162333 -0.016578473183971446
Ni 2.2293875669175764 6.758484223797815 7.844542758823547 -0.5249858411934829 -2.115037282992577 2.003410011031872
Ni 1.3531043806151157 5.166181652337565 5.940419410274665 2.0100640260132803 1.2528358355774811 1.7234245900773222
Ni 8.221943837066865 1.384589704923225 1.104375845554308 0.8977009258732863 -0.8961412946956502 0.06013450339805127
Ni 8.421393878587983 1.4282067355255939 5.383890050005875 -1.4558342003530151 -0.00013781112944492396 0.009297623251842052
Ni 4.077174477080404 1.3805181679588645 5.981257294492084 1.5044038817316028 -0.01963114396736619 -0.550419193664923
P 7.810423831759531 5.282533650972944 11.407737279237146 1.0225958614771744 0.3444190659485875 0.02372022643507528
Ni 7.174103400935785 3.8056527043168504 5.681495451883191 -1.0469876600579777 -2.025894308177317 -1.6477487965105622
P 5.456753059585955 7.047296211226764 8.379567587320166 -0.8534954350006656 1.530780057732286 1.7190562858062972
Ni 7.671024354651686 8.97985767949595 3.096820226714703 -0.6476063789408976 0.34802863767671677 -0.9965431302541805
P 6.196335774053324 1.9994562678963028 5.156865017754411 -0.9523407247053535 -0.648656931692599 -0.9260319116074954
P 6.748673846270567 1.4604013547347343 9.027479002221412 0.023915373165016875 0.8740660600631656 -0.8434393363162441
P 5.405315361828061 6.752644055391922 12.9905675397009 0.12235108613611186 -0.6099163205892916 0.7923214345945064
Ni 1.7763231459784186 5.823200598000493 2.1619013811521963 -2.6742745891697624 0.1478543726135389 -1.3119290421952117
Ni 0.6094344694258302 0.43927462266846184 3.6901021168034154 -2.162017251286541 -0.842687031531252 -0.888456524456883
Ni 2.4678119815070407 1.480584018736802 3.1498589043920675 0.5353419876168264 0.7607356893684254 1.9916173892723186
Ni 6.022070307329857 1.6100717904743942 1.8629354226919925 -0.6510544853904981 -1.6345407824607203 -1.6783737204852707
Ni 0.23300890196198146 3.189708381559089 6.762034382951807 -0.3055277882000287 1.0172916756554415 -0.3261902016453866
Ni -0.052704295795449586 8.258569246501928 1.4667352660847213 3.191613969561581 1.2733774071742585 1.3105974678679815
Ni 0.9026560603498908 5.064724846623839 12.046993454021395 -0.24084551753029487 -1.24621524493717 -0.06864999706823016
Ni 3.332663544794182 5.905497229764286 3.676579455573367 1.7715679825517683 -0.11290716711439265 0.4408315778420666
Ni 4.4367962035252795 2.150830853722856 12.934320454049132 0.6114183590561147 -0.40754144833036915 -1.9110107340628442
Ni 5.824923171331569 7.378057925659554 2.9999379125315233 -0.7610825311848828 0.7487438071138718 0.2438043430483027
Ni 2.8065601722929996 8.155316174480397 2.563440593923593 -0.23568814169907149 0.48202604980250535 -0.04930475977239896
Ni 4.485774398184792 8.772393526755389 0.9469501451759713 -0.22062276272551679 -0.34991042808046185 1.9880952350516727
Ni 3.6246259069783595 6.301956232952325 6.087604550374088 0.1581027898144245 0.45531460194959 -0.5746708671234361
Ni 4.255962850250706 4.634311804407221 11.1272682579363 2.5498123702279183 -1.260081718506617 0.9892697365212189
Ni 6.251338369560557 2.893158631573437 11.288204507493637 -1.0146966612347559 -2.2463118968705635 0.16928246058032784
Ni 7.954723891819956 5.992722079346932 9.291999021033359 0.6988425514080545 0.3969577592772518 -0.10620558672450096
Ni 5.958943061138086 9.134732681717201 10.368305211751016 0.7852686415127831 -0.09272375018798225 -1.9122512913381644
Ni 6.160318331676289 4.667446009069675 12.747633114935528 -0.030529536047424845 1.1939331477040018 -0.948610825349276
Ni 0.8903502543981052 2.1574816448727843 8.847654321565837 0.49035436716254255 -0.03991971901307318 0.3965260710564719
Ni 5.283850912932002 -0.09685744280353295 7.892242380336786 0.24911238552477744 0.877076050534083 -0.11814244737140299
Ni 5.939626289612602 6.859185676500054 5.42385190896241 -0.7210214014979388 -0.2220073017778693 -1.252927366850023
Ni 7.048355547767266 5.398627724189767 3.9361242772937954 0.2994813248956326 -0.5919790193845805 -0.3405261586520845
Ni 0.699928523688684 8.094482622189362 6.472411772778823 0.01626119905386877 1.112515052336826 -0.9150363318279403
Ni 4.916049266070041 4.439301764734116 4.7631998995466684 1.3997733528037055 0.3935880714740705 -0.38236829149885115
Ni 6.867439289893871 5.840140771026419 1.3424750898839493 0.8490965346020216 0.42887749080398396 -2.928028844341925
P 1.1856831491054949 0.9577047139675797 1.3676688763036913 0.6699412949926721 -0.8598128925782612 -0.08986108392820653
Ni 3.4559703181085024 6.562875428688775 11.749200135053417 -0.7479233680951054 2.531464720958666 -0.08254475277245138
P 9.408013874300195 7.0846769736733135 8.152380430519894 -1.0525276160396002 -0.4635781275099629 1.8296697717905068
Ni 8.463398875324373 7.309228685393261 4.84561628239765 -0.5287175403217733 -0.07271336850432639 -0.9652636034146085
P 2.5882999984614203 8.817079105520351 11.590164243133517 -1.5686045847792276 -1.3167809709708742 0.5398964397567283
P 6.855445757930981 0.9904243956359249 12.869066244316476 -0.0023700428940733377 0.6990801213401574 -0.4787026418562272
P 5.364397336498446 5.246387245886631 2.448505342765857 -2.664042627029109 -1.3059717961705122 2.7667905942223125
Ni 1.5874756814844024 7.2911646944721955 4.388827602646973 -0.9614066915623636 -1.7046179988937806 -0.1283065323885984
