# total energy = -381173.5869230759 ev
CRYSTAL
PRIMVEC
9.22413026249222 0.00000000000000 0.00000000000000
0.00000000000000 9.22413026249222 0.00000000000000
0.00000000000000 0.00000000000000 13.50044702853228
PRIMCOORD
 96 1
Ni 0.23720681117279477 7.465605165036747 3.822799654157694 -0.225809706243095 -0.5117549443255058 -0.454486706731656
Ni 9.000933973255716 7.952925190432317 10.811819836587299 -0.9522808180016955 -0.17694409089064367 1.7093573133509787
Ni 0.6705592176972116 2.924750324096185 1.2727584060895347 0.3763902195385453 0.1681797144344523 0.7857998314259048
Ni 1.5353011358282096 4.308923309859451 13.052367531929077 0.4225646612120787 0.03854469304241749 -0.06458559719086941
Ni 3.9690233341671237 9.294602608120071 4.183424405702433 1.6590261691965942 -0.8003065096825119 -0.7996488214938551
Ni 2.7493996079868968 4.478647306514416 8.030659703313315 -0.32105545152198256 1.6708308751410064 -0.5752200547586868
Ni -0.2372520094110344 7.640697605498951 8.595396931509182 1.2158605439047125 -0.9431950536503434 -1.3930789715026652
Ni 6.7760184114536735 3.8174432017197844 1.8680026002711052 2.342763232421778 -0.8662046550372179 0.6831107424950945
Ni 6.017748784006856 0.8414021013518643 2.7722357872542176 -0.7040138111963488 2.4654333924602057 0.26170487747780735
Ni 2.010555998852871 4.093189351502585 10.185128737547243 0.48661135518034254 1.5940927017480029 1.7119623550739937
Ni 5.143227442981641 7.160849125608301 13.143319301049583 -0.464985806490767 0.3821895998291418 -1.8242917953080453
Ni 5.114383587680551 0.6502864242271962 9.89053584483154 -0.26115131896718247 0.28191271988425 0.07860273740556786
Ni 4.289045309164263 6.786746074937897 7.805121416910549 0.22943830413461774 0.6415424321350047 0.40459059323216134
Ni 6.533405337539603 1.8386366591976953 0.17609325859465305 0.29364774893299106 0.42157710048782876 0.4539310913385022
Ni 8.150450715669784 9.20712095680074 6.671596644924731 -1.3759736792809465 -0.03633097322055033 1.0384994200813082
Ni 6.8262806972022005 8.082367410272486 3.150491541364516 1.0697486079035772 -1.0195383055977731 0.39358267215743187
Ni 3.918880962111885 9.176173999801968 11.958736200874403 -1.10214579328736 0.2262902454239393 -0.033714104422993545
Ni 9.390256838843548 4.611142713468325 2.7622589679725866 -1.6818567939378646 0.8775185373881403 0.035700281615086905
Ni 2.4947398199624247 2.293081884371618 7.398973737741268 0.12105447881187538 1.391074539478127 -1.8132792462476257
Ni 7.126655274760478 3.612990354662322 8.460028207981468 0.7871023522874122 -0.44159519548096854 -0.6170459896555374
Ni 2.48209353738558 7.814221943818146 2.977590754250422 1.3229336208358313 0.6618397489314601 0.2834651519730344
Ni 1.8659585330070434 7.638004159465078 9.943875300432463 0.42810153186990785 0.46644696441732564 0.6773247319409367
Ni 2.91856093269643 7.568029907365917 5.432971210423351 -1.184215920416238 0.7481959050302018 -0.2577829167155818
Ni 5.871896836446623 4.230970185091456 10.313679906404975 1.4394997248590498 0.8432845559059349 1.7568021370965037
P 1.7509981976640632 8.937979284279077 11.939241923997741 -1.181970833135803 0.2065014928327863 -1.4155954074376265
Ni 5.052369759989718 2.2486215765522193 11.88087900706104 -0.28092053117430976 0.28202841952650787 -0.41615258703814784
P 3.633375682521424 2.47560897381773 0.4392069619959878 -0.728639580164829 -0.8815667393155849 -1.0764597013751656
Ni 5.821237913097216 4.075746521194186 5.6299838740187536 -0.009545734706906141 1.7224997642702076 -1.6320591536894475
P 1.6046296988096616 3.858167736786723 5.846084952759688 -0.5166935192777038 0.5231487879847442 0.37964600747168165
P 0.32145356001240316 5.407471102338967 9.086461953787465 0.18767587548585096 0.4049328070629284 0.5266328898786027
P 3.457259363601138 9.364613756740244 8.619225627191724 -0.9473196173416781 -0.7849737359801836 1.7812304453421965
Ni 7.334124412410667 9.079505114750662 9.204820458715645 0.5316923066793812 1.0636970023928585 0.9057417938998918
Ni 1.058939377173189 2.8354515191170147 3.8469659530074956 0.46720106897453084 0.1204096461390249 0.0008014128553728134
Ni 2.2340105542314874 7.65564069650879 7.705326474116506 -0.5891078684843725 1.06141694810943 -0.4555519147713767
Ni -0.21377198585205537 2.2975094668930516 12.56174711272899 -0.2907334034996735 1.4142178103638097 0.254284159533704
Ni 1.2932507338595711 0.9693269517654179 0.25881802594251857 0.37425209014962 -0.965098281481338 -0.11813036318654495
Ni 7.851496654170469 2.715408688004639 3.85912981357211 -0.8177527301834174 0.020175960727242676 -0.08113887356386026
Ni 8.006268335685341 5.815509728210111 7.429849668937092 -1.5297367040694363 -0.4280611655502756 0.34984100829510717
Ni 1.7806998970786823 5.664538388359468 4.409988415389331 -0.004490945891818072 -0.8231098807302728 -0.5891374361707273
Ni 5.6140086028336045 8.834558335882585 7.6921765540278475 0.16700754850322205 -0.39819034613277227 -0.26278242681270225
Ni 0.3255656772791849 1.020059668156848 10.687237810977427 0.21732969379654185 -0.31007144170665313 -0.7633772407563304
Ni 1.39233634103716 0.765094561421002 2.6395808028469316 -0.32327611332238515 -0.15066638814103728 -0.14582680066054884
Ni 5.2466022707268705 4.7125159049486545 7.844650504696701 -0.3960545307366921 -0.9014488229514926 0.3250303770093306
Ni 4.336946217568026 7.53018330093791 10.21156232761323 0.28941057092319195 -0.6750022544553472 -0.7584998580593711
Ni 5.207196786286108 7.271252740606306 4.710657242702678 -0.5868902920077634 -0.3281383265106929 0.33907374247627414
Ni 3.5642223780147786 1.7689575792666294 2.694742946585846 0.1772495379462044 1.0031570360262723 -0.20854346296347956
Ni 5.987272257650987 0.4581653169049525 5.367858997380539 0.394200765357405 -0.15621662853530516 -0.19454894845660042
Ni 5.99552785422741 4.755961558440225 13.209376987443326 0.6781212597003031 -0.5294559611496945 -0.9543518415981113
Ni 9.064045472446654 3.435038433821692 10.2214312245709 -0.6086860477266163 0.3204407007561191 0.5234956298012016
Ni 4.209007530959093 3.04062384833421 9.418978013212275 0.15276877919602075 -1.34199809366645 -0.6740447756380843
Ni 6.2273117992244735 9.356588763420143 11.938216200713608 -0.47406745707706094 -0.7223750873123559 -0.6628468500397359
Ni 8.027327025052912 5.725731268457786 11.074160557873434 -0.21833885178734655 -0.6045578844908556 -0.22885414949637364
Ni 7.093845043450601 2.027417708955332 10.285842403714485 -0.3343441982110887 -0.6813919600317748 0.5176065180102764
Ni 2.612329032427507 4.09394573018333 2.3842061447278535 -2.1926933402141593 0.031323749813946054 0.7661020958866613
Ni 7.077389195079272 5.632724363116917 3.4874896056792535 0.8728620124527354 -0.5904821231240798 1.3650174373797588
Ni 4.436945013640662 0.3874217723426921 0.788364274810213 0.31292228089188684 0.07677622571979036 0.009420521982951518
P 5.567233038320706 3.1508798772481668 3.6442029666123803 -0.037156554445639235 -0.6032774751165352 -0.752517158113375
Ni 2.5100518761823842 2.2238455626926954 12.069034660787525 -0.3325979049439433 -0.06283339038645308 -0.507778476176261
P 4.02339035787823 5.130498143232519 9.842987298203441 -0.9102507375138389 1.960477216224088 0.2000701353851458
Ni 2.5145440276155884 7.982682234628453 0.18091102182578828 -0.15236665866159566 -0.0695442267477254 1.8603723430806864
P 0.6662856781510026 8.280326469631845 5.876812375458439 0.8135656886852632 -0.5914902526736201 0.1183710184424413
P 8.394511978033574 1.7212503775981793 8.435619314506011 -0.3398669278015308 -0.6756566002098944 0.015186992153083523
P 6.016835595111811 6.316130949430488 6.552954959197784 -0.1101198341772426 -0.0022276037789380992 -0.0585051953247444
Ni 6.6538817027738695 8.63593513914501 0.9372564957018318 0.04314645348048698 1.0957743425433772 -0.37853811911948354
Ni 0.19267086548532172 8.343308830999243 1.3660964577064871 -0.3956812065576734 0.4891845152241576 -0.29156875491677525
Ni 0.7429843212045916 6.467498926882009 12.600750425090721 -0.569434044204529 0.30214370221914416 0.40191561750315946
Ni 3.6047070856951393 5.416317043251582 5.914721705972166 0.3417672301480372 -0.7052021750774952 0.22057648286861367
Ni 8.309935927743934 4.5368607925410185 13.752905172948497 1.0965667565376858 0.27107372028721705 -0.5788411964510417
Ni 8.255919420982442 0.08170642336793574 12.6439922253037 1.8071371379056296 -0.049269535659089335 1.3503791186412937
Ni 6.100101818905527 6.214517930563581 1.5089717784340826 -0.5801923111622976 0.3511841525865629 0.8044120472104533
Ni 2.8574326215098838 6.625351467901379 11.919922905595884 1.3881990177025447 -1.2845704476766004 -0.9981762949822292
Ni 8.178713450764938 4.413285119541748 5.6368281786664705 1.2231727612954097 0.01587090559398557 -0.8888817849197594
Ni 7.460790169044688 7.301766163483188 5.2598960872474745 1.2234087885656155 0.03462684604525004 1.239620879549104
Ni 7.805542037250086 6.95235610950003 13.288462835406389 -0.6085009282990036 -0.24130137412079086 -0.8746016208516615
Ni 7.272387308627423 2.2809429289586864 6.2806641686077525 -0.628328247437576 -0.39801962488286285 0.8759159687877109
Ni 2.199530755345821 1.0997838259334165 4.872351633972418 -1.6799004415424421 -1.3754237203147475 0.9031431799347801
Ni 3.4440227366881015 3.020339985907891 4.9148914778731445 1.302642731797279 0.7156300552790384 0.008479241115604752
Ni 0.2212518330742027 3.5402211910965056 7.816340726537257 1.0943982881314571 0.6311266361183195 -0.7017430128843011
Ni 4.547293283857147 5.142996839725317 3.6377220926966314 -0.3678125051718633 0.280657250210594 -0.3182074405502262
Ni 0.9153132122430004 5.930885149414475 6.799432943687856 1.2008607280617707 -0.2509620371390065 -0.7083420062580574
Ni 8.763108222942945 0.44727715355432635 4.38948132901089 -0.6438877924387298 -0.1003450141786659 -1.0774133235376864
Ni 3.726816121984185 0.5965494086123684 6.653046918985974 1.1117421787265434 -0.6069225280682902 -2.1966911485196428
Ni 8.241502105397023 1.3428950028811484 1.745405607491677 0.3286134663748986 -0.5143376174510174 0.19866991260350947
Ni 0.26528875331498913 1.95142009980097 5.947392652915222 0.720789745103107 1.299933560396232 0.17856285744098926
Ni 0.9875907296663327 0.5667139593090811 7.7395360059857605 0.14214395249232295 -0.6855895430528902 0.9777830760378581
Ni 1.441048972903186 6.284556751574512 1.7491183199185043 -0.6115320018158436 -0.9959959995014589 -0.7259370936320014
Ni 2.305359201738344 1.930536668908207 9.565120520875478 -0.9952444660474151 -2.340100855098267 0.7365027849629896
Ni 4.653158626770682 3.8483993828488097 1.5987225657956485 0.9545148495385368 -1.1049089578547937 -0.18429333216686325
P 8.38112776503649 6.56764530903869 1.8668016185121663 -0.5407901552155913 -1.1429844245702767 0.7088461995879857
Ni 6.5936020115705976 6.856618861604275 9.033945290605105 -0.6226566509740955 -0.6206010539966473 -0.34142527342758616
P 5.06003501222995 2.465942085312599 6.6488213449170805 -0.7887360312360933 -1.3737167649259696 0.9792432055231522
Ni 3.9291935397347246 4.37379661792871 12.381718840168412 -1.02740176750625 -0.3229583249716503 -1.2744261601537472
P 4.212853993274589 7.5055917696834475 1.668020689147266 0.250701070168136 0.07651654430050048 0.2099683683354642
P 7.317945287946928 3.495484159369518 11.881554213395559 -0.05876847628846008 0.6798894073443194 0.7228232305933681
P 6.374768745448727 7.31316718847588 11.101714879765156 0.7031812879927244 0.2736679633769545 1.0880520341984552
Ni 3.519771294325633 5.52315091984168 0.8284984655409604 -0.45801091783483056 2.579477501392519 -0.7883300540469262
