# total energy = -381163.8018708013 ev
CRYSTAL
PRIMVEC
9.36303314653166 0.00000000000000 0.00000000000000

0.00000000000000 9.36303314653166 0.00000000000000

0.00000000000000 0.00000000000000 13.70374543985232

PRIMCOORD
 96 1
Ni 2.026937455631953 5.346291797350577 1.1068256564552463 0.09640839812842106 -0.8277121553889745 2.066339303566241
Ni 6.397882113700551 3.824199713734992 3.1391168943108854 2.8046351758739116 -1.0002606883150837 1.0540373678159074
Ni 4.838169363812192 9.292182849947505 4.318859042237633 -0.8501229189840069 -0.9975877694686109 -0.8037420177266221
Ni 1.673464236834091 8.204114157341001 1.3128170622128845 2.281599002207632 0.3464726060435065 -1.0457941539705087
Ni 0.4313652259630791 9.09014732559859 11.988817789309332 -0.039309339122583914 -1.5463221192319434 -0.1206302467902632
Ni 3.80288945080895 5.271218999397588 6.8225050196579 0.3400754442679111 1.1649177343082582 0.7319532179190942
Ni 1.62080653969171 6.3581173128890835 3.112463148497369 2.105364535789503 -0.5890032245857082 0.6432612145983244
Ni 2.61744521583389 9.134144217289922 10.59924351952114 -0.1730522120354052 -2.7127187520785734 1.632346345912563
Ni 7.078846134943126 6.013885407583316 12.808246086586827 0.0532989685334566 1.2772620869406455 1.06660312029606
Ni 6.862578800555729 5.976938879680784 7.1045289342428335 0.48711631984121917 0.6001227315376374 0.1252957705867326
Ni 4.250227074630348 3.4898551711927994 8.276883649195659 1.1153370951666535 -0.5874402509739626 0.10232836315728183
Ni 7.114219673315089 4.379296483433287 9.78011577560038 0.141306287082376 2.6359137300033764 1.148801802583002
Ni 3.936949356158277 2.4479555939150806 12.903227501437726 -1.0631871526359753 1.409813767758843 0.1608862660968326
Ni 0.2228766993256627 4.082422798637149 8.596605943226603 1.0656752091651518 0.5262179138283712 0.7254331574123893
Ni 9.042442672870916 5.270123524545941 2.2211576564024997 0.8427603079713486 0.25347889002358925 0.8395279170769798
Ni 7.599721019318625 8.772543885917454 8.403602000432372 0.5042552935143509 -0.8872038829967043 -0.2520601552991917
Ni 3.6594571495066495 1.6286527612787147 9.967117077989565 0.20011410124920376 1.4378367353343302 -0.3556601860800455
Ni -0.027708023320314475 3.8037414868046744 6.3371600363041285 -1.4948928569173738 0.2814625197207088 -1.6228180947071535
Ni 8.743415490503166 2.6188777598706583 10.349643787938353 -0.4620303234068688 -0.7942711021217095 0.6752051144947726
Ni 3.144125180619822 0.2087469463460099 13.002839872370885 0.11509363324275017 -1.157472847994439 -0.3227750053162506
Ni 4.88875783067924 3.1004279059819324 1.64671030656833 -0.4593311793081509 -0.4396848658321331 -0.577783701720805
Ni 5.768311780156151 4.214685001665825 -0.3215284230812229 -2.5127427190691303 -1.3323076058515635 0.8984133785592784
Ni 0.9742984795949323 8.415194371490688 7.346207539975255 -0.36442790497034655 1.3376349316017477 -0.18579665618526714
Ni 5.203692805978162 0.8375420207646302 11.934988776748654 0.0016424206994294294 -0.22378444828295008 -1.048282467610001
P 8.082741161598348 4.260030170097645 4.5545359438683 -0.37780895426294286 0.21183036124486745 0.021163264341176456
Ni 0.12852354398369906 6.819808466176925 0.12524835506826434 -0.5851149452748955 -0.5314336537013558 -0.26211368288045184
P 1.4938906284603841 3.748162523391237 10.645589596172114 2.1263192836642992 -0.945844061237416 0.10172235414216674
Ni 2.0288006991830434 5.1404829707348805 5.354258802062251 -0.8808316609217735 0.06318203197512344 -0.2610068229695182
P 8.150145635589814 6.3720026907095235 8.930292264554515 0.24351535105297417 -0.02887220294965995 0.3681732309453917
P 4.989578969162377 6.998427045192787 6.210564340798668 1.1258171687623706 0.28000778955205324 0.051685601299749695
P 5.8424670008829755 2.123966565782468 6.954951674435102 0.22996692294457816 -0.13071848426420069 0.02358884306353357
Ni 6.772300437140573 5.802411946050986 1.8002743457934203 -1.0979839486001866 1.7475106844922483 -0.317077440710841
Ni 5.1493497629101705 5.992144445142951 8.90511881424566 -0.8209144157408507 -1.3741193996810268 0.028509420293602514
Ni 2.717845017835624 2.645721575252452 1.4208177743391182 -0.9497012301999772 0.20403143402573892 -0.6756694557257009
Ni 5.098152698903318 8.088593057173382 13.836945660053853 -0.19029300139372388 0.5906392175272345 -0.17701890999263709
Ni 4.2201623759240565 7.474771345000511 2.1910508240480673 0.022816740784199412 -0.08916997139845288 0.4925776000661065
Ni 8.884282320785372 0.681719617999223 1.945876998126589 -1.452140553551512 -0.763454116740853 -1.5274877601342596
Ni 5.6789229048684 2.92339167952956 10.617428402058469 -0.735157840899321 -0.2248141750990451 1.1803266126641607
Ni 8.018801009787301 1.5393762423860042 5.9063275669142 -0.257321403698131 -0.4311575450874123 1.035425923362307
Ni 9.514058641054014 7.99200400957011 2.772843473208019 -2.9412597412099024 0.1260179934647378 1.8332664880028298
Ni 3.897736974289092 6.487804681864746 4.389843940017727 -0.8958206781314378 1.3955202339543065 1.3835059831022496
Ni 5.670477449174512 4.950263593931073 5.093681850683993 0.5026910343510246 -0.3632233431392841 0.8157614107850015
Ni 2.5412488539304943 5.0650450144980095 8.954273800772649 -1.2103097892898125 -2.224649581405781 -1.712914691684934
Ni 2.325599479715821 6.569581411388493 10.596434609645124 -1.4676746446313693 0.3617290179819448 1.2986870895836409
Ni 4.019091243965907 6.898935457384297 12.05930925525454 1.0169085812844099 0.06697723735149756 0.2360493816932322
Ni 8.728884063411243 1.766289345203502 12.853195198726128 -1.7771210511595135 -1.1770047473797793 -0.1401469766669522
Ni 3.7564300814596443 3.465642368061541 5.401755595459099 0.6165081148741963 -2.2102272353328645 0.14424017289971933
Ni 8.462384057407759 7.091523681516878 11.394075129317654 2.56851406040248 -0.8218050458759201 -0.12137278138324259
Ni 8.37674975832095 8.057451609681284 6.0599880453783666 0.07635405058070721 0.355157278301698 -0.5777456493940178
Ni 3.6754023945695007 1.349653106326959 7.2661096022540725 0.11533994492560137 0.0545302698373964 0.20730110591594622
Ni 1.936415653360875 3.2160613625445937 7.027472109614084 1.9595009683537477 0.7007536523878383 1.1167121211373092
Ni 6.024203469861214 1.907755409592591 4.505476460277096 -0.2613012142814855 0.5188707294346806 0.6784195076670123
Ni 3.7095961907935364 4.370588862817637 10.659855113129108 0.45758822847511516 -0.44083209206269885 1.5018186375029294
Ni 0.8511249726217519 3.471915600117977 3.926520810091921 -0.591216173076627 0.9472178016564913 1.2446265602938114
Ni 6.721936683063605 7.047536152858467 4.454306549065712 -0.3267746133939469 0.29950060816934226 0.11405516467590679
Ni 1.9991292478593938 5.356572407496796 12.695875646996804 0.5720210882054149 0.3603161967948182 -2.750522196079592
P 5.865069362351985 1.1842551297942132 2.3585517377746577 -0.8664612511327141 0.5322875170612188 0.6099284047741496
Ni 6.137645976720583 -0.3833984083136448 6.343463230065908 0.7191028443189874 1.2325945688299418 -1.2064942721984642
P 2.0080522182322045 0.4109556868039464 8.767231301038615 -0.27474139894679134 0.8263538415888672 -1.9444355893801932
Ni 2.8862766170344676 4.035954066254923 3.370367890280244 0.4846210642231911 0.2575510032104339 -1.325120344074505
P 5.641732938109947 5.14931231077849 11.374876230315085 -0.6475022492628655 -0.8305933335915113 -0.14123943840018255
P 1.6148235616557958 7.400840837063768 5.409608371169147 -0.8328983275756043 -1.4262744844180277 -0.12258865606821467
P 3.026778289032791 1.1075531641131344 4.995412138671571 0.5746801230948168 0.5596941912089457 -0.42264205141723343
Ni 5.924430991065123 1.5580274039627509 0.15884947130846053 -1.2912928540020987 -2.2103989850240384 -0.7352180047132951
Ni 1.148553885270049 1.309232893211088 6.077844285460202 -0.3640486672540569 -0.6642020785160497 -0.6479218532987874
Ni 3.6196829856622625 0.34235742611517406 1.6289917030704208 0.6976189634135985 0.6555472310545291 0.7881343930963524
Ni 9.218477054800843 6.205518602358052 4.618573471221715 -0.9303230827836815 -0.3663168944629433 0.4792199478122779
Ni 7.3458517447242935 8.12848894044573 0.4211876091789809 1.5203992287185946 -0.13089049106569073 -0.6784945838793218
Ni 6.688033140860091 8.615067035235073 2.4688117497445 -0.01769870283134371 -0.43465295983518043 1.339522635542764
Ni 7.5223636413331425 3.511577407567324 7.89839989686175 -1.368758649589746 -2.0598084444262588 -2.4911840190617487
Ni 0.38197241839992063 2.988417943159332 1.7557372071026016 -0.598534304004595 -0.09310144524237515 -0.6234511218509328
Ni 1.414857267582212 1.2692152905107792 3.0376684326221053 1.3287959931538793 -0.1040743993141111 1.0386858250605016
Ni 6.372733007277287 7.0276865230679535 10.657046203253092 -1.202159649378852 1.1457876983470268 -0.9615936107621892
Ni 0.9220658641471215 3.441860264444605 13.320642744653217 0.14840870245511215 0.4366645909485705 -0.41283380707755996
Ni 1.3854105290486436 1.7656994741295386 11.638700281510017 1.6150613335798703 0.9454457973577329 -0.9596148897692635
Ni 7.347181295398941 8.918494843075248 11.901771544858176 -1.1054638019169993 1.961453206984112 -0.023506310652056293
Ni 2.7006357633285663 7.158609812389063 8.51291728238058 0.9256264486389607 2.5386720373403824 -1.0876954221899848
Ni 8.342939846446637 2.19785962158753 3.5828300880889317 -0.9479202270401546 0.016531421996119913 0.32164474836654927
Ni 5.09153303462884 8.214656932408982 8.11439851220434 -1.0125312781523208 0.03541128961975837 1.8074060752963002
Ni 0.9037742430345049 6.085718596145966 7.278716926080925 -0.7169130357565201 -0.5698374502905347 0.14823283899888018
Ni 5.97280978216304 0.9546361104628198 9.340582239717845 0.7862965685566652 0.856081707670603 -1.0604432713422511
Ni 2.4825520005546786 8.582689667397528 3.767036525151481 0.13152786753937348 -0.19022358160836914 -0.1113501070399179
Ni 9.41724488066066 1.6030542292752885 8.311526870999856 0.3871394876352494 -0.7172251676803002 -0.7138181988812804
Ni 9.23175383548148 4.857054601211939 10.793754910615501 -1.344039292466195 2.768485722536548 1.295977918182594
Ni 1.202597311284598 1.0144378017232019 0.19258541522270545 0.4240800694153406 0.3196565142919269 1.9196414131546489
Ni 7.598138666755136 3.692883177031241 12.45674565882522 2.1617066620246574 -1.1479181144264683 -2.8021574037573806
Ni 4.380850746898016 5.5981948350316975 0.697981333574772 -0.942068653355384 0.8749165809889189 -0.43426060949276823
Ni 0.35205940082693354 7.939908094402932 9.61306709636383 0.3733786864057312 0.07810522894385905 -0.26149687523205933
P 8.65676062082807 0.07861296070006162 4.323107050273461 0.038122517903334346 0.020530515853183995 -0.3053917768427966
Ni 3.173150582671988 8.528552611053778 6.373214267169379 1.1478908607329588 -0.2042579482142482 -0.6401116132257493
P 8.460015210078986 0.47444828564141356 10.120050985099136 -0.1625975923609845 -0.22528314431566362 0.37536486359782456
Ni 4.776850861218761 5.151802877535225 2.9154443371870182 -0.9567851336299523 1.047012342648326 -1.1300528041102733
P 2.006657126327117 7.593990843171553 12.914436924449614 -0.1378556095296142 0.08122269152691818 -0.7429230866670367
P 4.893823231488989 8.881332965415556 10.401553378750421 -0.6562311444954312 -2.335196218707798 -0.8551162584335402
P 7.934767789329822 4.546782416307204 0.5864076880862458 1.0379237500834964 0.44022608304758376 0.23017672496253908
Ni 7.391356084715754 2.5536923246812453 1.1975974517052894 2.3237432396758497 1.3781915128678714 1.5975912018195646
