# total energy = -340866.153066207 ev
CRYSTAL
PRIMVEC
9.28489555512585 0.00000000000000 0.00000000000000
0.00000000000000 9.28489555512585 0.00000000000000
0.00000000000000 0.00000000000000 13.58938317655366
PRIMCOORD
 96 1
Ni 1.5228157391356056 1.7532389950232241 12.235446104455963 -1.2327583481013156 -0.45123683233579065 -0.0755680643443021
Ni 0.9772166996679728 3.694868523227727 5.041049335592148 -2.3024596477067254 -0.6204573293299314 2.3006336502415796
Ni 6.378472634358907 -0.13505437848406113 2.213003816452694 -0.5299619542518357 1.2705497079174763 1.270962884195495
Ni 6.730035924076794 4.826845863953636 11.805858122449486 0.30455796808759167 -0.971218792556779 0.24171763572260307
Ni 7.321010248692624 2.948780731518431 5.06018364859264 -0.3477877253105043 2.5796014285648927 0.8041708777339248
Ni 4.889816026399937 2.7897397535557835 10.9807920796661 -0.7251997012453446 -0.6686755409063709 1.0733383821373645
Ni 4.643784860887985 0.5759578628457909 12.02663158626538 0.43421304408428446 0.8259411795314808 0.25208998009586264
Ni 5.315314940352546 3.968865794503208 3.7029435969935105 -0.9703068222654707 -2.8072916396601526 0.043861991490272846
Ni 6.315093936503047 6.9613412450532355 1.717534857206798 -1.1764789567832965 0.1832301810096715 0.22507848450402526
Ni 8.049967407887406 0.884684357892157 4.780636795174111 0.43694586963441523 -1.808767731530517 -0.1436968988017396
Ni 9.082141405036896 5.799104429332856 5.4946629136390355 -0.7112231844605945 -0.7414444452389811 -0.07147049723616078
Ni 7.8238152040088265 2.5908015788913152 2.6518590528292196 -0.6700436248984912 0.5676412139701644 0.38941877058772933
Ni 9.15475857408622 0.5290227152247281 8.584576844837871 -1.5696556517515614 0.3317517548935642 -0.5984332596503564
Ni 9.541251641321502 -0.024101732184916805 13.259841216011601 -2.63555351845048 0.2884140113378775 -1.3149606299326837
Ni 3.7179322040765337 0.5660016692168955 2.9694981192309684 0.4510154603536039 1.129790294477506 -1.6299418502361283
Ni 7.986737268362296 2.5719161010948284 11.776926387536086 0.7401210984418672 0.5973917057597194 1.2460416954737832
Ni 6.815624092379654 1.1119126811791016 0.15616266030438236 0.868118070009847 0.3049778292338296 -0.6617510458723959
Ni 1.599481122697844 1.0845222389472253 5.193142426123571 -1.245351611385294 0.9676686133116753 -0.28449667856134225
Ni 5.373039136744267 7.455854788534501 5.971596435655273 1.2685046524629895 -0.6073279910368251 -1.3849208611719053
Ni 5.059766756776976 0.18912125447065065 7.010124086912991 0.8060231004513151 0.380458476070648 0.6058526920428792
Ni 3.9779557073659224 7.303313237542129 0.9323892233644139 0.1940146732196852 0.25642280314326155 0.15331153907336822
Ni 2.428780149418013 5.344599501301474 0.8779760207692653 -0.3413432552367412 0.7390821156543916 0.5462843455609431
Ni 8.485020479486321 3.324596168731118 8.536402163644619 1.9517467783296258 -0.09182926339817088 -1.4265287665206787
Ni 6.781093565376146 1.693834232514904 7.169446397214495 1.2164410989985308 1.0549804484554668 0.6823067585365604
P 5.484402175432105 6.229645041635265 12.955234429174824 -0.015317347083360716 0.07834871241323281 0.3924089635643048
P 9.234543682594191 1.9882397044770512 6.735020984562996 -1.5187678637627586 -0.5066217368639985 -1.2843899562346783
P 3.1639581887129173 8.952579970832286 10.47341895567936 1.6875314757251387 0.3349468647920941 0.9883163714690139
P 4.190951214077531 0.23326629094233062 0.8591657506277202 0.307881890254502 0.6652608587978672 -1.0112526685502135
P 3.356861181190701 1.3251774498651923 7.8358289305185975 0.39928435052789946 0.2449063178632298 -0.27467557870586246
P 9.289166723831523 0.7638367982755515 10.930362097314163 -0.3521254334539097 0.5469073238569226 0.7393777925179396
P 8.022456262011797 8.184923366477346 0.8718089930640409 -0.15824959980493392 0.33958359223315704 0.6272162453203198
P 4.252946462478289 5.65382366675585 2.311323433700757 -0.09616568598999567 -0.20366479471493956 1.702307348482733
Ni 1.9375534590045724 0.972137861735486 1.1526418045331182 0.6571135471003845 1.1255487455923325 0.17677594074389552
Ni 6.702134812582968 4.890688806593088 2.2878818575981064 0.22549731720899877 -1.5081409801765315 -1.2056797467169686
Ni 3.531027254202747 6.690862949237375 10.111425014163748 2.3750123222634714 0.9507669524603303 -1.137374534582667
Ni 5.78684836704605 8.061889213930026 10.41921094927856 0.08117641167001503 -1.1519889420617322 -0.3953004261794869
Ni 3.257912048016089 3.167959978747473 2.141999433781566 -0.5992308158509874 -0.18415063594141187 1.0476175803324923
Ni 8.770995266178454 0.5527474806453689 2.139702350592357 0.522562576463971 -1.093550081198549 -0.1529724105663946
Ni 9.042662028640308 4.258108864471822 10.873381621065755 0.38033866266333205 1.8317366816218645 -0.7627702032999508
Ni 1.0496388859081882 7.797427530509507 5.453283847587993 0.5020590571939805 0.2180100076930181 -0.23798285127051916
Ni 7.562798216882553 8.71662291712426 6.960373758924232 -0.14521462099784666 -0.9085671791638288 -0.13111469126135483
Ni 6.685097029025173 8.210605387905607 12.691423616940897 -0.05157812918760794 0.2008296392589896 0.03369764936276132
Ni 3.9319861888947294 3.0548049551949723 8.996457602308618 -0.942470516779493 1.2869422903428869 -2.14386012076154
Ni 7.654143020501943 6.24139043466012 13.568673558868626 -1.854233062952168 -0.19290241399211294 -0.9156148300392295
Ni 1.6337702424138845 1.5906233322269252 9.816128192217107 1.3007781677847146 -1.0650530022001206 -0.07992942663679137
Ni 2.713241498115638 4.7519910350474035 6.562435200794293 -0.043152624128074066 -0.2877342116620335 -0.4240422741988697
Ni 8.90975803199384 7.930433661008364 3.5819716197749027 0.06641442286949206 0.34322530275080243 0.8109565331971903
Ni 2.1807991558149777 3.601861723283081 10.770673033633622 0.0653867529359261 0.9792953989173263 -0.2650735368397241
Ni 1.2028768040759465 4.6834963596763695 3.0106051378388283 1.3863611931628577 0.022034096981903988 -1.5327189266262118
Ni 2.085647544970141 6.408481417170237 8.173008059861697 -0.8660280202500376 -1.0442378652269824 -0.7921188316653971
Ni 1.6248474576732628 2.739824154424066 7.786390575024411 0.4861814667317756 0.9382011999801777 -0.27526796087422273
Ni 3.8557107709507075 4.852360757259804 11.991802085621238 -1.0119764340901152 0.7221053785907371 0.6995814864566081
Ni 7.029585228241131 0.8216826268005728 11.096506020465755 -1.1582068979469862 -1.7285590830904103 -1.5662787648595284
Ni 1.0351265939731298 2.2727567625487075 2.9718351274715666 -0.0442869948428334 -0.1721099027267939 -0.06699034997762011
Ni 7.343164009765592 3.695639169568488 0.22125442141169388 1.4151593483414724 -0.10238209921335271 1.8071700480260942
Ni 4.66251249545805 2.0942639281535924 5.827997167684433 -0.41814082111277023 1.2662641931682452 -1.2236044495161895
P 7.156890432797489 4.593655709155815 6.821041829004162 1.3448625596984387 0.4497407074062384 0.18202690473018973
P 5.840802895795011 1.7168607737810238 3.84370261537834 0.2923406000857933 -0.39161063603272556 1.5608892184128407
P 6.910330028232243 8.0865127572517 4.417011497488959 -0.483928923252173 -0.21757523414844465 0.32005400684066165
P 2.821763358727899 3.2150529695949563 4.408219629777311 2.016727811186701 -0.4004102366022266 -0.5258918979475201
P 4.182548383494531 5.278101078499882 8.308454260943108 -0.9963978629255679 0.4231189910536519 -0.7513917862596801
P 8.513682952425237 4.470305870155653 3.434716888378067 -1.2459280527140542 -0.17137019634729198 2.006570668148041
P 1.1546974804348595 4.703161768709289 9.079597343622817 -0.8198160404703494 -1.6747350952914193 -0.06382840730987072
P 3.1159738478809387 7.012101769691089 5.65935282212842 -0.4624854086664164 1.0232484074595087 0.9376936642161399
Ni 3.6582303249067154 9.408570482171159 5.1263097470777925 0.15741656238067728 -1.9766515119911054 1.0880687463690035
Ni 5.0226457438810295 0.9888599588404382 9.340390564763402 -0.7510238613973 -0.4365332075770289 0.7907101242433285
Ni 1.5544215240024895 8.261653744309287 9.343421154710683 -0.7785578051515107 0.6788005451555148 1.1094073599457797
Ni 6.510624554455957 3.051768794310286 9.360802479408335 -0.7897459605578463 -0.29309778996679203 0.5240448174364524
Ni 5.59207911053823 2.1805391787361668 1.8676298381896443 -1.4617865612817083 0.8460088968156333 -1.3266617204196958
Ni 3.9967111966230036 7.675266158155339 7.722017464842098 -0.3707656742629163 -1.607021751104845 1.6221827751159996
Ni 4.121843735592155 5.527456236662346 4.619887396407848 0.24363465023965786 -0.19355444575381506 0.271717524518803
Ni 5.10660905544132 4.898943078845338 10.164913441149984 0.890760489999711 0.8791293335186858 -1.4579497040341214
Ni 4.203309410216726 7.696946389549044 12.111768508638587 -0.2208634179814132 -1.9624952750953812 0.21453284777769507
Ni 1.5522767131022983 6.238112866487967 10.688620553602593 -2.705198018221496 -0.585469757511153 1.3177536192967887
Ni 6.722088053381714 5.680146345985467 4.632376509576017 0.7448079623945754 0.5880393180105421 0.611164848284412
Ni 8.354010601556906 5.761361328426898 8.313672372310673 1.6355270576333896 0.443563632061249 0.08750209677772672
Ni 4.741452678459885 7.796276203446201 3.551435454889413 0.5356001263742196 -1.112362843029678 -0.3460900258931072
Ni 4.510063793422398 4.394893947509111 0.5434384442447997 2.597785041452455 -0.27560169006455765 0.3324536660565952
Ni 2.1729812736593033 8.948076796431453 7.19031977117432 -0.2568426642894996 0.7917236531095074 -0.5932085209163074
Ni 2.390154983423231 8.57890934451979 13.13072824226794 1.4441554784635062 0.7790496571862648 -0.3611062967962813
Ni 0.22202506775245515 5.284860482548968 0.08951846464074212 2.279744465497396 -2.0400870547379317 -0.7785976572505107
Ni 3.4469618087900664 2.304158279710811 13.214519783258302 1.8818086585775915 0.3354454016950674 1.023820477912895
Ni 8.670653398653068 6.187008800710257 2.1812866128377486 0.5474392851009926 0.1786998972394858 -0.608561863443926
Ni 8.51823255130443 7.997832718690123 10.679488858709355 0.47917212529347797 0.5351694665947042 0.3615809224398547
Ni 2.3649372067785612 6.512871499208537 3.523400640897912 -0.35300629339696626 2.113941478825237 -0.8162692036593555
Ni 5.101437368552115 4.293196485215639 6.53692866389423 0.5517978191800046 0.2602064385554099 0.07099869980606482
Ni 6.097353848103138 6.340664539183246 8.351178708377 -0.3294493320126326 0.4445247104229377 -0.3754090865721986
Ni 1.1632767240356237 7.984016793930452 1.5035430811896038 -0.44396678103693865 -2.12833220032927 0.33014327275586364
P 9.556478870223293 7.741690301791557 7.549228341858184 -0.697597880367676 -0.23234133671402568 -0.35772015393286777
P 6.80546641651468 -0.11543725090863459 9.012275350575134 1.180789154122876 0.5452931852922673 -1.7894237797862667
P 7.504767618933663 6.1927932907138015 10.42021650347982 -0.755414277155512 -0.9090310061741248 -1.4553050673224226
P 1.6725903912177742 9.154665725129503 3.187294845494476 -0.6881295358659246 0.6676285876990954 1.4550749535894876
P 0.984951017762601 7.075768299312776 12.689331729946037 -0.47545739544605214 -0.4582286902725915 -0.2906750394579123
P 5.757108846209204 2.84423280625371 12.79498920024354 -0.584260053473768 -1.010040393409667 1.1930674572695967
P -0.23092278327476262 2.2698134506207404 0.8721432493082265 0.4178402591532159 0.25533136985129573 -1.0279566115684555
P 1.9346565715549637 3.789082359609709 12.95425672966058 -0.368759699576481 1.1829830764504012 0.12487385255796558
