# total energy = -340893.05821887293 ev
CRYSTAL
PRIMVEC
9.05350522737239 0.00000000000000 0.00000000000000

0.00000000000000 9.05350522737239 0.00000000000000

0.00000000000000 0.00000000000000 13.25072004259561

PRIMCOORD
 96 1
Ni 6.575370557758295 1.9727496859539857 11.67216160901883 -1.1984570037162843 -1.0530289811560511 -1.4986929473897546
Ni 4.629147641453758 0.37295913846724604 5.904189869947749 -0.26711962073547546 -0.9148044183227921 -0.3566857991310825
Ni 2.6792671091292966 1.5686102762673877 4.763607581659461 0.09515678510950708 -0.43465501671770945 0.7742779468292343
Ni 3.6026159770500996 4.491633954011617 5.052008794129467 -0.49323451692381504 0.09708691225268441 -1.355380171400311
Ni 5.062267320644754 4.720053885156868 2.6015934683339115 -1.195671213441031 -0.5978866431182671 -1.1705520497759003
Ni 7.225584233339776 6.063901846298928 2.5150528247417108 0.2986665423038211 0.29485051099184056 -0.11952261554838124
Ni 5.3214420082743645 4.575840604014866 11.47306960196997 -0.7730227342658945 -0.29801605320401575 0.3060764616146471
Ni 5.516925288230301 7.863820121806507 12.45525267213205 0.902705321066413 0.6623699104033173 0.6597342725526831
Ni 1.7131042160643837 6.438843702361133 0.31975983773785205 0.3279470364354933 0.5126556017629041 0.25703292592343474
Ni 2.625407807885417 1.604389728026644 0.25240538194125234 1.1436562538263204 -0.850999150941373 0.5949368164613239
Ni 0.3723851462502579 8.973571604168436 4.900156165468624 0.1725683304204512 0.06649978349444677 0.4442539732600542
Ni 8.72323313741864 2.2564865326480863 1.3665731640420882 0.34717014633116344 0.8349678085101234 0.8289632541872562
Ni 6.967695143420138 0.8658219918014991 5.061854480816761 -0.7588466998758286 -1.0041260848077609 -1.0725989328681786
Ni 0.8937095032524194 7.440170408845315 2.671835086874951 -1.350563723848274 0.7929199874104539 -0.7023680480628097
Ni 7.757640615168715 4.027985855961256 3.824449483307988 0.4383412073200451 -1.5647479300372986 -0.29263524850807665
Ni 7.587959824462242 3.8144589405406952 12.536704340563855 1.1899312256334604 0.6873304370033969 0.5739720412841987
Ni 7.930091778405129 8.749886656138086 7.116126452541552 -0.2710901753474493 0.4133811949405978 -0.4166053583048503
Ni 6.923188112841063 0.9008871220162701 0.5851135425298353 -0.8363875716757853 -1.2403582719357606 -1.2273145513779251
Ni 1.9392426639496823 6.4626453670056385 9.15897652235858 -0.5750850718427193 -0.05887157752522765 -0.5188290775634677
Ni 0.017305774807140205 4.709071983592096 1.4644035283690544 -0.31206070422253995 0.050340143015448785 -0.4217881880573704
Ni 6.116955385597826 2.1305884921207037 6.905692214428927 0.6737642682831881 -0.3836307031510425 1.3728341052107
Ni 3.188816477528703 4.455175489377375 0.5809000413029228 1.2588293341567545 0.18350554615824524 -0.5144618017337076
Ni 6.00032813419025 5.248606560550879 4.5635341746686215 -0.57197557967946 2.3526552947245096 2.1565279460371958
Ni 5.292389310729968 2.849473003125758 9.171392499115322 -0.2651918075851433 -0.5494560584207053 0.10670489495842268
P 0.058785313314277825 5.512905532010384 12.427465654586626 0.8105636686341459 -0.621899975313729 1.4222177978501507
P 4.209508631207482 6.042091952754381 12.589217385614264 -1.264095210541384 0.48825274743850755 0.6079540546565981
P 2.3713845646006977 8.47886998396872 1.4428842523350016 0.34878068535139284 0.25317190030613174 -1.2318571764432849
P 6.376809086102423 7.703717939389836 5.720282401484572 0.04062111595547197 1.1408529800495708 -0.3879416718215706
P 4.762876963805978 1.067607416587804 12.631050010816393 -0.30782866841906337 -1.344861017036542 0.14802895051819023
P 4.020860747526404 6.135723301462436 8.32493685985892 0.599162424506897 0.9614696835898151 -0.5195749545905568
P 4.82721117033464 1.1092354325769385 3.7794761972214226 -0.553636157940324 -0.26675735230005027 -0.306664215797317
P 0.24273623860145338 5.541912962029781 3.544793051317302 -0.2434832122634581 -0.9740930287807805 -0.5885764214609347
Ni 1.1837729392403888 0.8584958955556514 2.811564166990546 1.8934045909453068 1.1013623781541162 -1.1308416185601557
Ni 1.7507305828436013 6.55923721184863 4.755722884155126 1.2255793138543731 -0.2712513835156619 0.7395757674613584
Ni 6.05759155331406 5.601539345958542 9.248154451957227 -0.3876742770927969 0.10270734376325535 0.1901575042571241
Ni 8.641307970675342 2.256848672848079 10.111518417151276 0.142433972928916 0.2614377398593497 0.15202110239671884
Ni 2.537063706097253 5.264803280995542 6.909508266786348 -1.3318736036379386 0.5040367497456415 1.206674249419754
Ni 0.6592635591792936 -0.19013175315054706 8.889735242519679 -0.6665993751036325 -0.1118859249387299 0.7409891028691175
Ni 1.4216356761004434 1.1840354908853834 11.362385976594771 0.30170558624046107 0.2262982158437393 -0.379712599043559
Ni 4.021675562976387 6.8633534982973075 1.6086774679945548 0.34164484563756004 0.2717805165462545 -1.0140171186692277
Ni 5.678304014851945 7.95746957752456 8.031141569110028 -0.8437234432155661 0.044044282704408015 0.28791984531027837
Ni 5.2764460884253 2.9228426076442324 4.8553548959770545 0.36483028261508776 -0.24084937418503682 -0.35972612861930303
Ni 0.7923709057380262 7.273305258193784 6.895674511146635 -0.10706099274626078 -0.09356398670109048 0.1274737520746579
Ni 5.110640197858747 4.499266058726458 7.171819088547894 0.812033311201137 0.06535075749166809 -0.19078459631816175
Ni 8.145175896685657 7.064377523313128 9.226529249914677 -0.44048962112161555 1.0044557002330379 0.12591103557322833
Ni 4.558150055245234 0.42546946746615427 10.479145946524133 0.33460516518195926 -0.7795862464160251 -0.38526438209972363
Ni 8.203190756724451 6.962996374325236 4.613225242210589 -1.0580086937588296 0.7704472602292345 1.0280764249757712
Ni 7.161784183606103 6.295490504194114 7.098172446776426 0.5513396485966634 -1.9219109259151157 -0.43165428221817276
Ni 2.173927620554803 5.443501362681827 2.593377412546582 1.0639718533207998 -1.3933152558831874 0.02667185286423148
Ni 2.1602839885200864 5.3862832110830166 11.303300992264997 0.7679622890238516 -0.9110035565194634 1.1255191779059777
Ni 1.0845465244424517 3.2776675755968556 3.7985709446165257 -0.029645590780574747 0.38239014587572207 -0.6274707845332871
Ni 3.516788749651884 2.8748499776402303 3.0035274442025552 0.29601573494453537 0.013150678449345095 -1.1293447222996549
Ni 1.2758380315834745 3.4593623674380782 8.15417508065547 -0.7040870876364455 -0.21057232046805024 0.6171763445858145
Ni 3.4501187388332704 2.8452631233008456 7.110866366136662 0.3636344625347737 -0.5134737267888254 0.12840629119125627
Ni 4.413656115448238 6.670676804891313 6.18503864854691 0.12282725444158202 0.8288802075551467 -1.0523790062768779
Ni 0.5492136791540816 7.291167823558413 11.367871495274155 0.8103983467008754 0.883904386309826 -0.5785293216375779
P 0.11910429037552377 5.564130263299319 8.102126480411552 0.6735832626206335 -0.3079744499683083 -0.7348084279797022
P 8.67942322672455 1.6113066058465 7.938028986238464 -0.2630459648867341 -0.5568508082228797 1.0125564749633014
P 2.045123404922481 3.1786403379089143 10.477648496797164 -1.575241630479771 -0.011958457913456825 -0.19857966688254833
P 3.920203878938497 6.295255113064119 3.797377692657551 -0.09670947430860763 -0.5164268958798783 0.14441680768689966
P 6.869020992427189 3.7149790276027637 10.32490771929584 1.4788705133471884 0.5339353370772869 -0.6807265585336341
P 6.196816353201165 7.9507337698047005 10.299148686870376 -0.23797899461577723 -1.3445087759034458 -0.8806763662908318
P 2.414415873864803 8.39708967330542 5.744266946930074 0.07740691732525379 0.28545981380556 -0.4053356989283019
P 6.682953357671058 4.048292867675834 1.3810298008257877 1.7907299001922 -1.2601508811816555 1.239163480296711
Ni 5.0789710373694055 2.7116424430086234 0.6350155567382977 -0.3761421080834812 1.0685134499448954 0.06595008163856383
Ni 1.564509038502473 0.9084377451861131 6.9064336964884125 -0.6481650796578451 1.6969036609686583 0.2636699716239781
Ni 6.792374019098784 0.7118870569906994 9.154339317097678 0.2559525483750624 0.9290670988893935 -0.1142665093557645
Ni 2.5777592110714074 1.204722749809953 9.226608920758675 0.20722063038699798 1.167916411925266 -0.16972443321375286
Ni 6.42842311810635 2.1664946929499576 2.5867258024232207 0.45495490461732613 0.14000273777960404 1.0151738579814904
Ni 4.046934841925863 6.896760931746613 10.497246619070257 0.6150364154246762 0.2171394321626067 -0.39046598090532114
Ni 8.336648473926676 7.283879752033564 0.5050208051985003 -0.4383517488430063 -0.3906235895291079 -0.2703532971814247
Ni 7.774815114153358 3.7135304668027938 8.176118060723514 -0.1915746963196249 0.26590451738145177 0.030132557719322297
Ni 3.151534143939478 8.298379308292473 12.447872254856202 -0.6163985858795256 0.056498706417676896 0.2624888068316834
Ni 0.01045770362528258 4.963249136461811 10.225580810592406 -0.004641355426753297 -1.6473317635778015 -0.614349930880613
Ni 8.637496445070422 2.5220982623325643 5.954741020464699 0.5396706968991674 -0.4162999112492895 -0.21687178032351684
Ni 3.9123092225786613 2.568633278031597 11.333168505259378 -0.30960504359319585 0.745982956539283 0.12594471702464116
Ni 1.186941665990323 3.4287071995087155 12.768950282922026 -0.9215011136166775 0.2836165899492341 -1.1595772959319515
Ni 3.1551193319194035 8.266574345228134 7.757501191191718 0.2223456589538945 -0.4456086875157358 0.9173850345657749
Ni 5.625793685853037 7.811834896097587 3.4556685373981546 -0.16092740374741316 0.3933888109790709 1.534802291517802
Ni 2.9542582699935798 8.407691327660201 3.5972925161102105 1.8232731242355436 -0.0017048985062486765 0.1023579308436366
Ni 3.4890488103324606 4.407038003293375 9.402552020873516 0.1201661626696511 -0.5713718846571901 0.07419740924902059
Ni 7.3742065714166865 6.162648425331875 11.34794292006857 -1.3865036322779927 0.6875800911203578 0.3300494274904768
Ni 0.7781641456923216 8.99114445737307 -0.05292045277539976 -0.2118200768322223 -0.3683048714272496 1.2742366698507603
Ni 4.683749330107623 0.36283098242395656 1.6434737091108313 -0.6450501881779471 -0.39310701807259396 -0.04268236935987488
Ni 6.3180971061786435 5.7120735885012435 0.2548434908377017 -1.210649174907102 1.651027467261834 -0.31477990292591596
Ni 7.832187175337165 8.830155031466417 11.236994932347377 0.9848844629693296 0.9451421500743853 1.0171716051378097
Ni 0.18293150062419677 4.898543736228158 5.842838793316525 -0.509420125544742 0.29625844708296073 0.2927743451891022
Ni 8.086554451811876 9.092706676460958 2.4585381304813856 -0.8653019407172905 -1.25046630690404 0.40811274745280685
P 8.561130130397009 1.678836699640096 3.809661488241295 -1.1730904999270377 0.7186189627040332 -0.007817182051573635
P 1.840849171611728 3.096805706215616 1.609233353201543 -0.3970084100095292 0.2393923300235361 0.8018679406323609
P 4.368406697459179 1.1161432568917948 8.021495059532729 1.3957531759007187 -0.7188526759813942 0.3754000877111341
P 8.611503832215963 1.6628119957904293 12.555202461979471 0.010272328460285534 -0.20513520861287896 -1.2077451138864295
P 6.43324863627125 7.89685636155082 1.4627069015320895 0.06653475049744025 -0.3531374196581918 -0.9465328597743247
P 1.778271345053029 3.354477512015259 5.894106076078958 0.4134899526043202 -0.513664759753709 -0.029259153975433477
P 7.006154432659339 4.025468981571309 6.060243324928504 -0.5380802124835959 0.3304343216337212 -0.21241888675848578
P 2.2575729532480637 8.292168603862603 10.310901947061131 0.41372263744041654 0.973744130081794 0.5408055818345588
