# total energy = -381169.2094110184 ev
CRYSTAL
PRIMVEC
9.23092355062830 0.00000000000000 0.00000000000000
0.00000000000000 9.23092355062830 0.00000000000000
0.00000000000000 0.00000000000000 13.51038969239301
PRIMCOORD
 96 1
Ni 4.395350284297605 9.065108225558415 2.27767586202761 -0.008562801968346544 0.34770365023713024 -0.1561189266151763
Ni 8.475972238654062 0.7441028810937049 6.783039367131949 -0.4424583148122122 1.1448867837993122 0.4538691277523151
Ni 6.525228910263602 0.6110908148830007 0.5717329272053333 0.23534309965482697 0.34173174892441144 0.02658829201148969
Ni 1.9394354473469677 2.6594105411170132 1.4834001435170079 0.306378309125782 -0.09807858674199238 0.18010140557270274
Ni 0.649219143577 7.135116012748177 10.395217810557497 -0.9673202288333211 -0.5361999647417475 -0.7916213232036883
Ni 1.6789387917980845 2.1069859361799863 6.732092055250114 0.5742116680988305 2.3979373064907605 -0.9041130000472171
Ni 8.496658737771181 8.647427408043324 13.090338178463696 -0.24677705252338145 1.0405933264958593 -0.6560521957154056
Ni 5.968798084614023 0.5041681071973781 11.344376421855415 -0.7006960596770255 -1.8031827812435721 1.4818897597894867
Ni 5.885221305048481 7.062625572066909 11.710008678338882 -0.7118651889199675 0.8314361412077811 0.477374667073423
Ni 1.438140926573132 4.1767250968412 7.966603429269008 -1.461516595449773 0.023407066070030652 -0.21923282435652564
Ni 8.25576856331322 6.359921535792681 12.559730860748136 0.7470239962092877 1.415438313034472 1.3388718893326426
Ni 0.9445819195253758 2.233071117545762 4.02600165809323 -0.2690813724475366 0.7087320426076245 0.9604080750945203
Ni 1.083433467816173 9.058240418622612 2.814295280088989 -0.16093434572594864 1.1633105377221384 -1.1857279861853902
Ni 1.9664266670785386 0.4617603224611228 9.644985596392054 0.17299050555953432 0.2630030274639406 1.6571870591053266
Ni 6.1606535944980765 2.704032824353133 10.711860633991233 -1.6563797327126828 1.9302004196174176 1.1780817824940422
Ni 2.7995821114398267 6.668335914196073 10.66241242405345 1.4876346326930638 0.7013357501435534 -0.014283249391891531
Ni 2.6736723176167656 2.6680506853265724 9.170757988920856 1.1280599420499604 -1.330966775552953 0.38637175623128944
Ni 6.164392118434905 1.319625102314021 7.764434208780959 -0.7635117094516657 0.8585846765981149 0.22240993653292662
Ni 5.91629259287901 4.206227127710592 5.09505150122208 -0.37497148481414777 0.24037886230652147 0.2642826655073126
Ni 3.534732843116405 0.572197242647364 7.28894934955619 3.7774251695725525 1.4766817332259856 -0.1141919473640872
Ni 4.790830731274245 4.210067191803729 9.401961232466945 0.29804922043479637 -1.0060585259437835 -0.43959950520717844
Ni 3.2587374673454605 5.507445768962795 8.358743205103085 0.7495074247527737 1.6863019741934122 0.5736907625983539
Ni 6.2756155132863745 8.89179764058569 6.13406761229941 1.2022583797402457 -0.5003906683526221 1.3531911341687919
Ni 1.9760729819278862 0.08416109701048305 5.079109696681579 -0.652731873092921 -0.38836744650507954 0.0977224889541543
P 6.969319399342313 6.368515525385736 5.718582831437583 0.14912269780300125 0.18512482692922314 0.8638132719869059
Ni 7.868771334850024 7.015658634312384 7.709582216342881 -1.1706716060728999 0.005773155038351348 0.1359033708992498
P 0.23777289165927692 0.5225579525972536 10.927716544457395 -1.1975576318304666 -0.2886379544232255 0.36934128311156394
Ni 9.312616972023058 7.366009097271359 1.4632158066274545 -1.5419363314594219 -0.40285381304671264 -0.2259565162336044
P 5.353547815691677 4.313222759690291 2.873889197826694 0.30919443841833844 0.008088690545405423 -0.5085436364770597
P 2.648536513468658 7.676795822963061 6.461925084451302 -2.5296384663832048 0.08618337796630318 0.47459221923227946
P 4.93386388782031 2.1908119506746493 5.702316098396894 0.6220488421867674 0.5218632364041013 0.8112524671710545
Ni 0.6816030687009047 2.9068639020418505 11.236671854966213 0.04361979357247972 -1.2673731099617076 -0.501410110756072
Ni 0.38088174177640816 2.0395448105442617 8.805828205700578 -1.3404076092508788 0.35721133261724936 -0.004570650089817935
Ni 3.7790846138121696 2.1416295913279293 11.433085594776207 1.4525269903566531 -0.0870117874048695 -1.6764649334983321
Ni 4.556928365754999 7.261016575647936 6.247690124116762 1.9403627048624001 -0.9216893183680835 -0.4221561129197504
Ni 7.602976129326476 7.561916982484469 10.164379188481789 -0.4238756667140184 0.12443136570390828 0.2090851943995625
Ni 4.38379316832499 1.973645249099773 0.21677807970391264 0.3480679755550844 -0.6270990030161651 0.02886551808144061
Ni 7.593819053412071 3.523674197002033 7.278667947183747 0.30792251368445034 0.29441085235126074 -0.6593185251715031
Ni 7.287361630748451 5.16165538211442 10.998308184215684 -1.328065542745758 -1.515871258941254 -1.1992548170272315
Ni 8.72330559757599 5.185858863009146 9.065890084761994 0.5308207027077052 0.005236565808590982 0.035787956232886754
Ni 1.3912201434351104 5.456694152654937 0.09349171428294267 -0.5766598725290069 -0.34215803782855264 -0.57578235502006
Ni 5.783284219037626 5.455651058321946 7.544607155110788 0.28083979853504537 0.26503008519629834 -0.26451612167435734
Ni 2.0197629419106238 0.9220501588404266 12.22020088608237 0.6381501186240042 -0.9193313596588683 -1.2687761609568213
Ni 9.188387206240744 8.674778633783626 8.674494321345962 -2.2942030641248876 0.19940653365921787 2.15009427459671
Ni 8.731244191614687 0.4416609100659373 4.408007726327677 -0.7829749603826 0.27240015240812443 0.16138403166885754
Ni 4.473240815109847 6.494397626438893 2.069899778726648 -0.28576551797143684 -2.117135303172186 -2.6591675583249943
Ni 1.470162999503645 0.1591983494304446 7.4252014698454785 -1.030399416681993 -3.126260126746119 -0.8093449657356965
Ni 3.854039711014754 8.864187948992965 11.004265822114029 -0.35439340355248 -0.185984346716041 0.36958502369125384
Ni 5.8197463660758295 5.673648542993896 0.21252262406223882 1.438032396284904 -0.0158639636154501 -0.2737785208128898
Ni 8.87301271166854 2.058412817771119 2.2332538898271177 -0.7217919611153762 -0.8646640500229754 -1.470941488308099
Ni 2.0902687340822177 5.059099824242411 2.2802697514751378 0.00922691791490669 -0.2530533724503965 0.6764574988446351
Ni 3.7391793323827645 3.450306818607189 7.309688464936122 1.3820324838805167 -0.6167001762803445 -1.52321741489368
Ni 3.6140541670402726 6.804399723650025 12.930956133659565 0.017701788155137257 -0.1772924753689979 0.4126939390655861
Ni 1.2971108803833433 7.496728202134142 12.489746615743039 0.8694840971194381 1.059837262327136 1.1563505614645375
Ni 7.236333086741569 2.296422944159227 5.257446519391595 -0.35419131484400285 -1.309736405419267 0.4711947635149562
Ni 8.176687243395174 7.168024254315568 3.911379437282401 0.48843992374864914 -2.283997841457112 -0.8571322604223045
P 5.553074222838704 6.221568457360128 9.715834778910438 0.025191411663963065 -0.20835525821207343 -0.09153461497588752
Ni 0.33052059352417423 1.6112115075400353 13.390714268856744 0.36291506787024597 0.5447193150666684 2.2082135473369453
P 5.058139808219127 8.264796406301413 13.52660176767565 0.1585851287674817 0.5705262488274432 0.03970451767847356
Ni 8.356616400374579 3.809805126557268 3.777923363660928 -0.8429739666440513 0.20077230365849294 -0.33928534426644796
P 9.175076214840976 4.414375217220576 1.5714336128521809 0.1922336700598625 -0.42972158397183413 0.8462150992891685
P 2.613929782013918 1.3076710566394711 3.332135307787198 1.6482247077057162 -1.1670831173906933 -0.8461657341084717
P 7.578394180576416 3.36995163127363 9.342596241627101 0.7103649502253572 -0.06612234555037 0.016703943018242202
Ni 2.305487710840623 0.09542097725281216 0.8356459474678465 0.3519709101539164 2.080471629202566 -0.6295379514749609
Ni 9.007867270170086 7.8783438023129655 5.871602000810465 1.0886418452636542 0.2861763802566104 1.384954542623318
Ni 4.29295165212171 2.3327743201178204 2.657358506867243 0.7573855419492698 0.8427945036433937 -0.4701089866499452
Ni 7.312931288291696 5.4993225564580825 2.500543581833068 0.8821177267230486 -1.2663444115868772 -2.270734548689302
Ni 3.3266770628394284 8.081221034618187 8.806530678963771 0.16076696691014894 -1.6969990488959417 -0.6355455911216216
Ni 2.4986170881401883 5.196917509123518 6.165736140867502 0.24149163575472601 1.8503902921673099 0.5143337607962755
Ni 1.204386255826698 6.70064414574891 8.01262050501588 0.6246654538740081 0.3005866421446694 -0.6423698131323066
Ni 2.9766681440425824 3.168431344693628 4.873278568920098 1.2197501087671059 -1.1219993376781774 0.14154154302163366
Ni 9.100767282269448 5.51717516212185 6.304758461239365 -0.4590036207654031 -1.0662169406012347 -0.025760396793555632
Ni 6.376647968813749 7.660355548564316 1.7111722528721862 1.473080903248605 -0.042662314755216854 -0.4908143375180967
Ni 2.360771710489179 7.321460661421646 1.5195539777169635 0.35182281461182635 -1.5398488528027738 0.4046787820705934
Ni 6.649246364809996 8.645267371990935 3.972405994316392 -3.4642120969131245 0.5888921529291407 0.11747833142484283
Ni 2.466271932894147 4.4704161525798 10.539994688515085 -0.7731464043279523 -0.3781285423858907 0.11761974209871358
Ni 4.329173795154092 0.2597184887146247 5.001951178087092 0.23728556809317844 0.16827561658236825 -1.6076120763906765
Ni 1.140535959354989 4.687804396313895 4.46381881169671 0.2404811922123407 0.2523794863118234 -0.9664378262283678
Ni 8.420715931775408 3.9952543756705587 13.010072531086156 -0.1662138489573331 -0.38794732824852546 0.9243846058120596
Ni 2.5910186303813054 3.417149342110676 12.73360914750386 -2.625547556277704 -0.17077215775197685 -0.4364555602615581
Ni 7.7773575014020935 1.831793650736212 12.21143335513126 -0.9535763968846674 -0.2632426542785724 -0.2887724231185607
Ni 6.836080252418408 3.1000486648812204 1.432276521000127 -0.7260165407196851 1.2377506591095844 -0.8109015115895389
Ni 1.160603986610952 7.165707292567064 3.9633264581577143 0.8068628227437911 -1.670300199448517 0.7463264559216308
Ni 6.5193211193510825 1.5439088457538233 3.1358692627500173 -0.07136611044781258 0.16990698153820416 -0.029139083457801432
Ni 3.981915691500887 4.29443783077314 0.542792136472631 0.8198268391036269 0.9925725756422068 2.113924766654688
Ni 7.490968105994436 1.1560900651168555 9.841372566524477 2.4443876275335 -1.3771257906075185 -1.4831092340188845
Ni 5.80892772396728 6.330742587238817 3.8854663893923647 0.003987266782522166 1.5862233263022554 1.9143925060508835
Ni 4.654859231053302 4.829037522816302 11.587401708872854 0.06748914399090956 0.06934316648051284 1.2040308982596362
P 9.322678678420942 3.120993629850761 5.807697241891281 -1.2334810851999531 1.012869635328346 0.4688560880794506
Ni 3.4403928069821177 7.290767841446449 3.734406945036245 -1.0146920332490654 3.5927243175546253 1.980685572851163
P 4.6778626919189215 1.4412702095721068 9.549832315914966 -0.3184900047876515 -0.8556191662118878 -0.5886044464853928
Ni 3.790549420551777 5.262604759332088 4.193421990907707 -0.5337011095792937 -2.266957083924741 -0.09836089386910156
P 0.457755024840901 4.992683331093078 11.467901868189875 0.2882417474260713 1.7056251000020561 -0.3346509308182301
P 7.930009280027604 9.085120867274574 2.367938599339929 1.2491732991242293 0.693453004961367 -1.5362439090603348
P 6.028189845131441 3.531391248881511 12.8549459419237 -0.1496906544913293 -0.32625113679030904 0.30241443938202756
Ni 5.779111841705659 8.052614403308974 8.631612067152044 -0.2319703265278521 0.5845410750492965 -0.4214837694430741
