# total energy = -340869.53809827706 ev
CRYSTAL
PRIMVEC
9.26232005854120 0.00000000000000 0.00000000000000
0.00000000000000 9.26232005854120 0.00000000000000
0.00000000000000 0.00000000000000 13.55634165533071
PRIMCOORD
 96 1
Ni 6.3564708118557 0.4236964883670153 1.9797819798224991 0.014261137904704471 -1.4633248523031057 -1.8470134052752771
Ni 1.4759321536177812 7.794575650945686 11.217655852633818 0.025942945118006936 1.1645606080791555 2.174451877505468
Ni 4.498838454591881 8.662297567426437 3.439934845235199 -0.20025628325402284 -0.22338669862389912 -1.250268331960621
Ni 0.20645988957367792 5.674856689402122 1.9602060666847678 -0.6121562656634039 -0.3874156241147715 -0.5401322099166181
Ni 9.350682445736973 2.72538206070431 1.4128557550050778 0.5033595211729589 -0.7919802492050039 0.816172015959859
Ni 3.6444542787869447 4.738028604044812 7.6609194483581415 -1.365673068685887 -0.4524359948502143 -0.5531551045388473
Ni 4.102290752124087 4.769520491751595 1.0718402915802299 -0.7473664671503709 -0.7580285748499074 -2.4775674567195782
Ni 6.604914018902477 9.024834031170906 4.765623833763875 0.3236982884614683 0.5650140607599624 1.7290054265992092
Ni 8.718167881146234 5.86602171010221 8.189792358041872 0.7874124273286632 0.49499212304487006 0.27184299435307374
Ni 7.398027948477892 6.385647119584043 5.5647425253393825 2.4031556174669064 1.2887572320644385 -1.2828262112919842
Ni 4.653102392755549 2.072851622779939 1.4313461242489163 -0.1932780521639768 0.16482108237486454 -0.24147029559848732
Ni 7.7267847314968785 7.857624262598648 2.9098550552667057 1.38219497760031 -0.6001628407469535 -0.4643975380874647
Ni 8.273909968802664 5.3225643514822725 10.802357509732609 0.5955227708717807 -0.025959914398871423 -0.5719804647754665
Ni 8.531772955201735 7.950803200931071 7.166506073681563 0.2542607624949363 0.13443681365605234 1.668736454505823
Ni 0.1618757126687956 4.024126034371869 3.9491521858299405 0.4501932215626247 -1.765303232588979 0.14944382858784586
Ni 7.69835867168155 3.8118151373086686 8.722339630035393 0.11222813876949704 -0.1031508590585772 -0.619281049633643
Ni 5.067091043620953 0.5636519947279072 7.295738592278296 0.21962466047830564 0.14828991748906073 -0.13935944776865034
Ni 5.647708829734894 1.6012791290106914 3.656185933189713 -0.30168424608422234 1.9267389434313784 1.500226096204829
Ni 3.6626639997373958 2.387474105610529 8.620125298627098 1.1475342487244884 0.6657624810246341 0.05511159626216315
Ni 1.3142120479235369 5.629795503021683 10.805908683187544 0.980880484016259 -0.5983041902716598 -1.066123866666796
Ni 7.789777769230359 7.627835367858184 11.753795052289894 -1.0002820284713225 1.1357881639321536 -0.41967525547942564
Ni 1.9596753357537096 1.2297860019096172 7.181078481601881 1.8285392577304898 -1.369824371850099 1.1193004506897757
Ni 0.8951828425610652 6.307361991672946 5.926601913498154 -1.9217504890778514 -0.3884751757275374 -1.5910243472353245
Ni 6.618390694376997 5.5721190369187 12.353229241308636 -0.861936109568851 0.20653491717388303 0.04186398722363758
P 4.42894498852265 5.631249687248142 12.425539246643366 0.7709931054303755 -2.084059860774456 -0.38340598873474613
P 5.495584487471304 4.203657581260273 8.584471850583062 -0.05797092008782919 -1.0722790876349146 1.9591078466803873
P 3.295533425315703 6.915173949053686 9.85365698270984 -2.146363603909684 0.7701456698284156 -1.0433703750203644
P 1.6385877536233155 8.46218514568966 6.342578258217052 -0.09362106519127102 0.9111778773137985 1.1860799702081701
P 7.220311816292584 2.0538823915965594 0.8179165698404817 -0.657492527706358 -0.263813696290694 0.4357613624080108
P 8.814301499531147 7.6706180235398405 9.816689211470042 -0.005676738669803127 -1.2351273625541246 -1.3905564621911277
P 6.297895900721083 7.830717223249177 6.681459683133769 -1.0194470314355475 0.7235608800903409 -0.9671448795977216
P 7.297105710697567 2.186213156204444 5.123416137248516 0.6039261644441277 0.42256388988113036 -0.12668262363193022
Ni 1.3544568279488227 3.461819854727431 9.32601688780663 -0.806205134555134 -0.6210617956831497 -0.7599494460217041
Ni 6.224510540044365 5.4066476916593835 7.054354199237795 -0.03829041093976632 -0.8318914835776446 -0.11329180414732101
Ni 3.9616516865535596 3.3002942577513754 3.8374615749178775 -1.0753608118840319 0.33323708118983897 -0.9576929901562022
Ni 5.792441840707302 8.623562545547093 13.185643194278136 0.24323252970523268 0.4675419972537174 -0.5063641123272377
Ni 5.994378939467091 4.288315185272037 4.710869629593685 1.6712437943087088 -0.6521636592942769 -1.0566298111334318
Ni 6.3991515820183045 1.4784700292741517 9.249640724029758 -0.5705380759019851 0.6427958449261317 0.5736174861582573
Ni 2.700559043335434 1.0073884384603329 3.0947633788650473 -0.2399608009324964 1.510029455448496 1.0418115151736766
Ni 5.656007868377623 3.2615036619525495 12.949220626015435 2.8860270459888424 0.539126394359923 0.5057105379036387
Ni 0.29486410199055746 2.064543321817297 6.0689980411563225 -1.35180325268233 1.4683523874246842 -1.7675454916559366
Ni 3.016098495837486 0.4283387631077917 12.164335341451403 -0.5322893168334317 -0.6673244261951152 0.31458115665154857
Ni 3.6632290012521356 7.446599554105648 12.970057140893429 -1.731847781144011 0.9795422248208098 1.7600008465394592
Ni 4.242049897302807 5.447346325360443 5.340778703592681 -0.8790491151000539 -0.8955450558725481 0.025138961159472836
Ni 7.652093383712321 1.0420109902979668 12.317359981210611 0.35834544622169257 0.7646108560531154 2.5200904176834533
Ni 1.0613507142778968 1.759294306739432 11.881564124340251 1.0276290530257077 2.915816104325817 0.44286943420770186
Ni 4.147481610983321 0.5849460682096407 5.185571861261792 -1.5141033684075536 1.7719605900044968 1.2428635548561178
Ni 7.609069907712907 1.0708538545094144 7.117350015667249 -0.3827421298985021 -0.714767193058111 -0.5651683269496396
Ni 2.133519818215065 8.042898447833583 4.302769035497459 0.8282875682764703 -0.1743089672606417 -0.2184265264051464
Ni 2.2685366555979405 6.857191826393549 7.565468462950874 1.5145340281870692 -1.2527558742691651 1.006107634014164
Ni 8.725114621081556 -0.03100561591131061 0.9553712498246585 -0.4441732406207899 0.37945240340363684 1.6241874642508545
Ni 3.9322808701070273 4.874369953175354 9.991959164966126 0.836852684237662 0.473973611811674 0.722725014452607
Ni 6.544866398901572 8.409065740984246 8.637883944597748 0.7025858205005706 0.21844863789233346 2.1554000030803397
Ni 4.461974421335118 1.625351898466553 10.903554838414372 1.1349538409563162 1.5784385401505139 0.1394561212475147
Ni 3.3994103431485176 6.653420788290836 2.4142357265373544 -0.01435626872167205 -0.3240764977364935 0.3822865304183223
Ni 2.2442786397438037 4.319279120743736 5.6546074056066615 -1.562984924599605 0.25830536487795513 -0.294475387040609
P 7.525727553128897 7.428575079553472 0.5602953299911606 -0.11165915363990446 0.26016967178020356 -0.3282262582388089
P 0.3829070839308003 4.050310612768067 12.017276561948648 2.119352108317847 0.5342436123463251 -0.9159827549016096
P 1.9188099802942018 6.455012633418189 0.7576364656097422 0.3816951766912265 1.0920321018921257 -0.3103504063996526
P 0.9135602115019557 4.382327732396697 7.441659032663648 -0.2882913697170842 0.534629277820518 -0.8296862483962097
P 1.796954899508779 3.1842559138717936 2.6525691113982623 0.9380849861172877 -0.5273998499516143 -1.0072895701374072
P 0.8566580753437644 0.05270815770124097 13.01693466820896 1.419123475195543 -1.2013361250362924 -0.9038990842641981
P 5.308819068730253 5.103371550723149 2.616984204521589 2.0356333898419523 0.5572986943935757 2.860202371616255
P 8.805937624649022 5.992841394361407 3.9870017299255283 -0.7676699545944135 1.2206039721269688 0.14879642481183405
Ni 8.152851447529825 3.798903463348888 13.394709500675544 -1.1168152223740766 0.22183349520416637 -0.5720095182411891
Ni 8.131696308846799 1.3607829924499206 3.219468475487934 0.8849371984497145 -0.274022775613212 0.7516866917922796
Ni 9.034689139559145 -0.43660630986281357 5.161970543889542 -0.05094023849329291 0.6080777247186561 -0.2219461095226307
Ni 1.7598593082541714 4.443107075670788 0.35633534056220645 -0.6218827489225484 -2.1636211054385512 -0.5322263248059802
Ni 5.041008350743805 7.120454745302341 11.00404823078269 1.2341400589401907 1.409279749632244 -0.07766814140644043
Ni 6.1455770497393045 3.04086593928688 6.835093783543301 -0.2956200421680135 -1.2369397331725147 0.3384960155959332
Ni 6.313836353292664 3.8637026534655505 10.702487471494484 -1.4299398490847568 -0.1053697210867669 -0.41474207984386635
Ni 0.0728861216333665 6.320542272910226 12.949939382040743 0.3816949195809104 -0.9356434665553305 1.0192673113245736
Ni 3.8612759256481453 2.8375024432603713 6.297815318537833 0.9584203552405303 -1.097912729042619 -0.14676551042473432
Ni 1.5951196862680412 8.398756778920232 9.051339085836121 -0.6953530501975572 1.870750600991217 -0.5444956290916364
Ni 6.985493481838948 5.427821354982237 1.0633022850837262 -0.3471583192566215 0.2007357939936027 0.8663154695834692
Ni 2.28243013546858 1.4415504220979052 0.7908224316287518 -0.0034241951902005546 1.0467398057132296 -1.0041062873134192
Ni 7.350873477796942 3.6344046616805152 2.5139825759206245 -0.6160574004900229 -0.37258164442573255 0.34191609702107567
Ni 5.824897009685117 6.972896726756236 4.08786098393044 -1.0364268538229957 -2.164760361249317 -1.0035270177711815
Ni 5.522639723939396 7.316065679561032 1.6395714119981568 0.6098641271951174 -0.7924399624502416 -0.28574417781519823
Ni 6.564178335921762 6.11570606801743 9.405755273712195 0.06357926741354211 -0.4786838728031497 0.22935011529618568
Ni 8.160974502094193 4.279265898716293 6.19191273133988 1.2945432426185963 -0.8487329806150157 -0.3356665165669381
Ni 2.5524452855945032 3.6353864675913736 11.259422431820933 0.2192878459641772 -0.8803524072925097 1.8043958277150665
Ni 4.724218485053396 6.758640742511146 7.9167002652406 -1.1513999023274817 2.058129256951623 1.5666168649252374
Ni 8.355696253641163 2.736496844600822 10.828683801623487 -0.11325606581337914 0.7710591827816204 0.29959162522125177
Ni 4.105532564093902 7.537333239980838 5.766663878155319 -0.24837319336590774 2.0635301162522204 0.21202550797480904
Ni 9.066560782382393 0.4693069303183422 10.613192223901901 0.02224492744112943 -2.0080066292636194 -2.1734905420334636
Ni 3.9989695734860975 8.983412936516572 9.373342711405984 0.31987917182569425 0.21209287087763473 0.2540555884626657
Ni 2.009413993690599 8.504930752091658 1.703516616218771 -0.8934984577561644 -0.6302234075777597 -0.6111627914018829
P 8.555206624583546 1.8286783452134059 8.882073894340127 0.8425381646582136 -0.5897149059407522 -0.3689157655383711
P 4.126243111421069 -0.252349127354409 1.3282852168005033 0.4338996266089237 1.0527466740289417 -0.9663848615032453
P 6.227928336092543 0.17012936594394687 11.148152330232955 -1.6951545394880356 -0.7318650290806621 -1.5947876709324984
P 2.264655743554075 2.2170844684770055 5.023261745789041 -0.055325512045182136 -1.3063397210328922 -0.01472239381183916
P 3.744348399056843 2.816560337935361 12.883173801406388 -2.967434856943373 -1.7271323779462127 0.9502573598137635
P 2.2364612417365906 5.865076953471005 4.0117284191673015 -0.12625196385241486 -0.6907710872538296 1.1296262580958156
P 0.5402794566575259 -0.20226313242075342 3.2786556259688497 -0.5023555053884768 0.9334963383053407 -2.525123866342303
P 2.3588350124371837 1.3644045595362007 9.913901890124906 -0.30338837325952267 -1.1914481764986191 0.5673491366510423
