# total energy = -340882.39518612775 ev
CRYSTAL
PRIMVEC
9.12634978916243 0.00000000000000 0.00000000000000
0.00000000000000 9.12634978916243 0.00000000000000
0.00000000000000 0.00000000000000 13.35733542201317
PRIMCOORD
 96 1
Ni 5.10577298312703 2.974195310506764 9.791929172590946 0.42508125698634536 1.3577556136110231 -0.36134026718395834
Ni 4.098123559152873 0.6594043374348575 6.794061935592219 1.081169448146009 -0.9961173555706715 -1.6183742000031869
Ni 3.8789542651809006 2.7858548266550223 3.5272585057267216 -0.5174856761616958 0.2565210192840227 -0.49622676678291955
Ni 5.311855091275317 4.651810084074196 3.1796732542885735 0.06926500494440974 0.4372330618575308 -0.6584633762600596
Ni 4.9842738862855205 5.354675925225618 12.307569204751653 1.7557654683018729 -2.1695220443040184 -2.705411934004515
Ni 6.17680490748159 5.634289034895129 5.299015229535189 -0.6176283445215685 2.702987383723422 0.7961030131241257
Ni 3.964687196580971 2.79019896922969 7.356365560133294 -0.9161884431545124 1.9173719003941816 0.13171761495267637
Ni 5.65969679314697 8.227021170326294 13.134641930773798 -2.8261198281102486 0.3187082914460447 -0.8176198041499789
Ni 2.150332321760904 5.563687591706822 11.857333507017085 0.610876884730348 0.24317750809758118 0.8732132251445671
Ni 7.959117167638506 7.472445430376403 9.9248079151811 0.9585640799072459 0.290966345446086 -0.7432763562413973
Ni 8.065311375619263 0.20387718200114394 7.129184243543041 0.0001781774490771125 0.4433913681494428 1.6873103608532682
Ni 8.799434965338413 2.950512432394864 1.910059256171993 -0.4573126062162253 -2.451395683420217 -0.058951795943859756
Ni 1.6504912615255953 1.696369422708069 2.9868736358528336 0.5090848536925103 -1.6076264745683795 -0.09019687000107048
Ni 1.8613008189463147 6.484901355335007 1.0132968093212267 0.716548710438566 1.2827169394076297 -0.6254547825445228
Ni 7.655081945511407 4.194625583490146 4.295692608070801 1.5876078653546075 -2.0619023508408105 -1.023377219727889
Ni 7.738615426574303 3.757692453438007 13.061256950851723 -0.45865883583147454 0.6210319708864789 0.20754613204721675
Ni 4.348167294994808 0.29040958165655306 10.857149437299395 0.21740039913347717 0.2922434123862967 -0.30608957424076966
Ni 9.193246091892009 0.3583379169454469 1.7093781219222122 -1.070536393912195 2.384477838551745 -1.830745521353189
Ni 3.5116551852227085 4.577120036109731 9.630452099807556 -1.0262005481092973 0.7193656110620708 -0.0703896054671562
Ni 9.293179623809273 5.06377352067194 1.7037946210247708 -0.6725501933704289 1.9778175072747484 0.5956770370614579
Ni 6.406232218793746 2.2863331886678506 7.330572669913698 0.2772168570704774 -1.3468554217587514 1.4721324232924067
Ni 3.766782297985002 4.888054778796597 1.086839675097381 0.2818993501478113 0.28994176083631357 0.7269421378577481
Ni 0.2541305153481049 0.5766703246272991 5.268961246525442 0.25151816675279265 -0.8973466278576611 -0.9048347087045899
Ni 6.850776724701501 0.9360805876914927 0.9039266315589901 -0.6466201037682283 0.5071660394032427 -0.5124977360288013
P 0.14523855832307964 5.911757452327144 12.858612738728388 0.44633862370322486 -0.24388944656294123 0.41278212790401814
P 3.7906933348455705 6.613920564532665 13.197742426940843 -0.8237811957656844 1.4218480732155576 1.2729017530894207
P 2.016339251842249 8.73007470574287 1.8523414812035588 0.9865693068709201 -0.9055998690053888 -0.1160302861244066
P 6.491152905048553 8.06148743499156 6.486201860202424 -0.9167517718571502 -0.4376400674879624 -0.259120918800715
P 4.664568721299797 1.4037603907143412 -0.12064213258150719 -0.7730726136672235 -1.624295193473312 0.07927456666161185
P 3.925516902609383 6.405812406696194 8.412891151247443 -1.1610752206337165 -0.0069278374680848435 0.25263145442162943
P 4.796125055782661 1.1152125844469318 4.596405838817271 -0.3615169019711387 0.3134061625068409 -0.146722830112257
P 0.2463822442432869 5.5876260076172315 4.061885561419185 0.7359212014279067 0.795781882339281 -0.15111684541489456
Ni 2.5420717668765787 1.420945307664132 5.188122776601829 1.136378489217985 0.41045347977084146 -0.20796676452440313
Ni 2.01296250236194 6.578674601038193 5.4307184982521965 -0.8886357303472244 0.5238244738955301 -0.7071364159857305
Ni 6.832879952455861 0.6769944643222853 9.695795852791521 -0.03819656567437938 0.6986810861295257 -1.5443405700255404
Ni 8.080643643529855 2.564887641743534 11.045928898583577 1.6991780588251317 -1.3442048715097819 -0.8457057637529176
Ni 3.6801002261904654 4.5620798113974335 5.334479312793389 -0.7189802026981941 -0.39542872422723513 0.8111426810660676
Ni 1.3637230934978082 7.009766867124392 10.043059856711544 0.35250955626620584 -0.37184528048034027 -0.9890869310864514
Ni 1.1487610468513028 1.284698029308622 11.88959150353898 0.6619891300251308 1.2077911366330167 -0.9218651818243156
Ni 4.335810217166865 7.013764208401083 2.506891513101723 -0.4941871106450714 0.30162073983613863 -4.195156671062046
Ni 5.271480119110753 8.247199530058628 8.535938989674921 1.4452343133499819 0.22220090584591412 -0.39779902423162455
Ni 6.8871726082892675 1.0633201586495287 5.221355467298042 -0.3586699194406468 -0.11200213880162002 0.14501356073063412
Ni 8.080506748280655 7.389888468757813 5.1473827504393945 0.7540929872409271 0.2422205435009506 1.1546685457764243
Ni 5.242923770127272 4.822993030025987 7.42642489813476 -0.8808432308859991 -0.16683091371604172 0.3611379213651651
Ni 0.6061466096854158 7.595057941911421 7.574905135958937 -0.8629966896228816 0.4407338759219377 -0.07347287237817024
Ni 6.000100519811996 1.8536803167407516 11.61881178798296 -0.7491230448301615 -0.38767736241659034 2.0823755310934975
Ni 0.22397157931396877 7.477182005998784 2.5285173119356177 1.235660609349775 -2.1841541923948964 1.2436189449649035
Ni 7.389943226857494 6.382567593381739 7.875098164758441 -0.5738236886317925 0.06269455081574364 -2.0148455065623234
Ni 2.394891121284824 5.370455384283605 3.353545735569682 -0.30994571476206617 -0.37482210372047703 -1.2906199963047902
Ni 1.3676200449250842 1.514180098720458 7.2687544259141745 0.8492788258161568 -0.5662931845827022 1.4731516085855403
Ni 1.2494520658141497 3.321525936781397 4.420703524371833 -0.412847948144947 2.3099757535781116 1.458147164756908
Ni 0.4595336230603508 8.032292241511804 11.967504978304648 0.1921133424319143 -0.4873405200368833 0.7666106600919637
Ni 2.0429060565373316 5.720551294592113 7.5543343431788905 0.4299354997548531 -0.6496383217692618 0.7262412551359815
Ni 6.601946793402488 2.116893375555894 2.964807946951504 0.12665768393126575 0.8620114428914768 1.051821076890879
Ni 4.116567912395319 7.440430194763093 6.489180700825053 0.6755259881693011 -1.0783692596930525 -1.2316291195928788
Ni 7.903555949162496 7.616066799488913 0.4696729978512257 1.8442013897477787 1.2429095776027046 2.1864345037886412
P 9.141317160694818 5.799439463532098 8.914151358899476 0.6416383342829208 -0.187597971060064 -0.8562056348429771
P 8.42380352787881 2.0851884358407733 8.587684481238181 0.18666723171567853 -0.05669770980236042 -0.10829177982956835
P 1.964072645697028 3.543451388437297 10.998310342466253 1.7414480232379366 -1.4979779236006008 0.09668119217383349
P 4.168478590892616 6.404589475803324 4.37341899266256 -1.2514569529520834 -1.141609655709937 2.457624695049064
P 6.387468443303161 3.9555699729841365 11.192031722246616 0.6289211438265684 1.3318160109271258 0.27574670028285414
P 5.989833376121865 7.8485423116832935 10.670227188229383 -1.0173821784867187 -0.3159063032208753 0.28757068950097575
P 2.0340261180391126 8.685300832903957 6.318180281872197 0.46091317908329005 -0.24357422931536762 -0.274466805129166
P 6.977432209262943 4.142678399593063 1.7368812901218347 -0.04240443310813987 1.0744305867602786 0.8647324413670656
Ni 2.037156456070859 1.5145634054182227 0.7296881836450156 1.4747999428222407 -1.4594977652475316 -1.3856657097577296
Ni 1.0607191489146959 3.795931859715024 8.590997346268864 -0.6851378002274523 -0.9001136490798369 0.45336159198827725
Ni 0.3116648506826086 0.3468469297274535 9.270191260928323 0.45986519743475 -0.5517854778848303 0.8214394350063853
Ni 2.663050661771122 1.9775796436182655 9.566203508817205 -0.04455798911603293 -0.4910493363470381 0.42170205610146727
Ni 5.225556326178545 2.9996121951085524 1.2013151330198475 -0.36265178690653027 0.0030585843206657 -0.008566144402456214
Ni 3.7333068463802053 7.052259152476609 10.606432176831385 0.5484828958741587 -0.03051436653877326 -0.037702399646780224
Ni 7.338607508406845 6.520366351228201 12.025342308457386 -0.8635888146809257 -2.0884153095296742 -1.370272258020795
Ni 7.6345385317812005 4.111667062473897 9.237987109871113 -1.2740613206151608 0.2779935873355019 -1.1438673413958622
Ni 2.8917478650875346 8.362228044787871 12.652095303687641 -0.6563573856606503 1.5734737399460705 0.6380992107814107
Ni 0.23676398403437324 4.582230792079929 10.778194646004799 -1.453421991367097 1.7057598258077074 1.3412036227896127
Ni 8.840649561698083 2.822177699443215 6.380985996935962 -0.7016694793338883 -0.18615223975247294 -0.17811779948377068
Ni 3.6651238859277964 3.268337569291551 12.633675591590052 -0.9653602768934731 -0.49376544972662056 -0.7783176641162466
Ni 1.100747319781282 3.547914173561274 13.448699710412452 0.1742179502087322 0.8556469341260297 -2.192968705362733
Ni 2.9718772176202815 8.596839122869799 8.440928210918951 -1.9933719100695795 -0.3255286568019877 1.221551937862535
Ni 5.5792297656661916 7.988631783366399 4.183985172087193 0.9880042395452339 1.5652971176725494 1.586746288685261
Ni 2.7742643622226084 8.324362818858672 3.883218095876037 0.11271921947330266 0.6885571103216465 -0.02526031722868553
Ni 5.676854331046921 3.383557737369675 5.237758256057393 -0.7415087228180133 -2.540900412450269 0.2109574717216109
Ni 5.710165508352675 6.023217564227195 9.406663047492524 1.0490476279107996 -0.9431575155441886 2.7646334386699936
Ni 7.729078390879916 8.911086730587346 3.3455181981564923 -0.8977978564624668 0.4113960461897689 0.15539541818559047
Ni 4.653963902661635 0.7007101972939931 2.340311898063088 -0.4138069696241067 -0.5854795277031659 -0.28710686249067974
Ni 6.18364054359173 6.140399897543876 0.8393978616252725 -0.4601683304974655 -1.4327703765550164 1.4984736322900967
Ni 7.4223782745683575 -0.15903394890263545 11.836643159052734 1.2143286806412183 1.3938837267921478 0.36081061993273345
Ni -0.3406236716987428 5.231652727942995 6.2007287212320845 2.013299502231442 1.2098302785502326 0.21755697931599952
Ni 7.347943764402403 6.267000624005638 3.2410771620005128 -0.4177587551830031 0.30619910323544036 -1.9660505965468076
P 8.667969894355018 1.9661990852346283 3.83848437897689 -0.6375690493095535 -0.1388935638758253 0.38436141066948
P 2.4568134056737403 3.3651407631770685 1.7381233863495917 -0.07929950636227634 0.19691050671024152 1.2370536330425599
P 4.713604599563857 1.2905845250242967 8.767995602406744 0.11225102158763249 -2.0006370762724255 -0.3783568563466129
P 8.53795591301316 1.4372267159691914 13.072837376299194 0.33449872151108195 0.7850187302855061 -0.12951417954345437
P 6.190996381648836 8.207061842992683 1.8961935926978468 0.48714537330694163 -1.0049472951574756 1.1241757765042057
P 2.0563035382592076 3.6070164158166342 6.636672554949993 -0.655067206094317 -0.08307928511968272 -0.8662401362608436
P 7.108906406596287 4.138188235419245 6.726126299223367 -0.10371341643026653 1.0324496143428026 -0.4037465000643111
P 2.123217936069014 8.97429583031876 10.579544124618177 0.3098518694966793 0.05702732522763727 -0.08188860724569123
