# total energy = -340892.3536116529 ev
CRYSTAL
PRIMVEC
9.07966424989079 0.00000000000000 0.00000000000000
0.00000000000000 9.07966424989079 0.00000000000000
0.00000000000000 0.00000000000000 13.28900641624719
PRIMCOORD
 96 1
Ni 6.065315659388727 1.987574843981356 11.419176967589888 -0.027007124716463167 0.6099410031796398 -0.7845052809841973
Ni 4.569431878732492 0.07427982604761482 5.988119445153198 0.7351221025653791 0.31511337500593467 -0.4396995211201524
Ni 2.932159564881442 1.6561852546836207 4.564241942592359 0.2481392229782307 -0.774915323302917 1.1928090614018876
Ni 3.3895930546293718 4.093548511033633 4.668959527426832 -0.19581470254290148 1.793005583600254 0.2045600528356993
Ni 4.921414146766796 4.609999819030104 2.56980105643261 2.1469205048544184 0.8242725335798062 -0.1414194156214726
Ni 7.324301917595314 6.325747671823023 2.638292596459695 0.22732639999793752 -1.66400408202716 -0.8592680758183847
Ni 4.972714250321298 4.403591809454089 11.554113491300484 0.9419346988806809 0.698547645875455 -0.4871818829718319
Ni 5.606302308044605 7.8462373428567265 12.350603438919853 0.21659075874798828 0.15004289562442547 0.6685287309158616
Ni 2.1327314378797313 6.593225503789761 0.3570686960008936 -1.505959913364813 -0.9871246651537581 0.9408332382863862
Ni 2.8510236842862158 1.3732719933288025 0.2511462397077144 -1.2972783821615723 0.8702245748298884 0.7446089590098918
Ni 0.44074597464654547 0.1128048418673938 4.81381013663675 1.022785351780161 0.1054342557761152 0.17647820699781863
Ni 8.862233623837549 2.507594460065778 1.4755317130248338 -0.2807603514473616 -0.235659088233349 0.019881569415275434
Ni 6.901062443774155 0.7198684761369378 4.746049509589512 0.0672492600659616 -0.20560417782949755 0.16282642054233892
Ni 0.8052590874446667 7.592851149954871 2.6101864954768703 0.24280186992571734 -0.8832047891396402 0.13908048307565082
Ni 7.73139774820941 3.766163053712453 4.161837574545804 0.230226604363868 0.156534159775724 -0.7156501098836965
Ni 7.513276971627145 3.669246716484001 12.780382994969383 1.021651238175718 -0.13323173760435764 -0.412354039227664
Ni 7.950880474443564 8.915267943282123 6.816529860747116 -0.17846592685180876 0.10730756153942811 0.35898307980569144
Ni 6.67654050382801 1.017893930829121 0.242561417068638 1.2500446459855892 -1.2061374030796777 0.5212451432041282
Ni 1.7081118550779912 6.301078223795132 9.476137877225316 1.3310235969328175 0.8135088673053991 -0.21860059008916544
Ni 0.35917790202845307 4.994006063212502 1.3276185330310344 -0.9849320283778135 -0.2496070657730088 0.46107592991339946
Ni 6.3417914387222805 1.8472849501723991 6.891758511718881 0.13608643344433335 0.4325418270294486 0.7240637878686884
Ni 3.8029175349847755 4.605432747864103 0.4571883388105893 -1.5324456183601673 -0.8498287847823557 0.8428227857781678
Ni 6.132514255212951 5.488357468190981 4.673318674279313 -0.8473448420182376 1.4432219109056434 0.5094967444189483
Ni 5.496465608451896 3.051375557743497 9.19039811635961 -0.7298246016118657 -0.23798542237368045 -0.39600105179093736
P 0.22255528464881688 5.520762790241603 12.493207739170586 0.2714940956540873 0.7618330361976621 -0.24983460840278265
P 4.084350811051206 6.209809437789849 12.470190790053655 0.3289420533589109 0.9619684776031047 0.25199073551383694
P 2.5684917688339275 8.479189824075819 1.471531212914017 0.7558752759523305 0.19590366271228196 0.5952420064065684
P 6.35874317205613 7.620916392448139 5.82399997226835 -0.5935448212098036 0.17703690771476607 0.17697802945237262
P 4.572500805281416 0.8066019698014296 12.435387528649272 0.7819897136511952 1.2182580976026116 -0.42608990075651776
P 3.8505312948148296 6.215593183978206 8.171994816360682 1.1301829019302343 -1.1779601693145132 0.6042550085384562
P 5.043789862821233 0.9969017468613319 3.612138351647408 -1.5170100005313873 0.30141428025228734 0.638679765875229
P 0.1474192462533809 5.683570251628466 3.667593309606607 1.1183810241992995 -0.763494225950169 -0.8068592231993652
Ni 1.5083955581249255 1.181636597643614 2.684180312097588 0.1867487356858913 0.06324785221605235 -0.33254596866008534
Ni 1.8064990979304838 6.530185394235972 4.966912344804248 0.3685730374869717 0.30514340827741643 -1.375191035478651
Ni 6.1271027752627765 5.836834985787755 9.115899470401258 -0.5089411290257944 -0.79152490683514 0.626304789249644
Ni 8.574344706421162 2.2421232339194903 10.410621471540555 -1.2644657065069254 1.7797615741061543 0.17942931920634259
Ni 2.2709602478821624 5.29416160716024 7.006775159820943 -1.3692839259655967 -0.1961893122735008 0.4525064430768336
Ni 0.38117702077220567 0.37913500426080615 9.387726461589695 -0.671944698575946 -1.2679222975969584 -0.41679124906341114
Ni 1.3554667715464348 1.0382232992996572 11.3626724004323 1.1665580981251586 0.2785908545998686 1.453798143759593
Ni 4.254349366600045 7.0338252958403364 1.672288947367561 0.36656217770453 -0.1221392272356219 -0.14946773984724582
Ni 5.765623178322631 7.996968850663502 7.991091583932382 -1.2486297679159335 0.1465896469685024 -0.145111262650763
Ni 5.3245512437260665 2.895523119245617 4.917171219617942 0.09354701742022599 -0.8014431943901165 -0.797745176713239
Ni 0.78747384092386 7.577170569629451 6.9153601912196905 0.4772265715313329 -0.8142673427379782 0.45472941887008134
Ni 4.6113799280106855 4.433763534075612 7.0129012093551415 0.9658811823939493 0.13913756156583135 0.29952554787000674
Ni 8.491156821683754 7.3096110206836 9.276125583214572 -0.5933044230642233 -0.047202111607099355 1.2177875857240963
Ni 4.595980817279989 9.153482017061929 10.235445691381667 -0.6078627804943725 -0.19627107335402974 0.5788589370628547
Ni 8.1521130753424 7.319780244751041 4.608560692231275 -0.2723996381874922 0.301301665933823 0.9448860681995211
Ni 7.550122249542927 6.496272847903925 7.335996525272871 -0.07980961322947545 -1.1711068938381057 -1.7107811902816987
Ni 2.4000367562238965 5.200813578019739 2.487755393469922 0.20284821235091519 0.19489090517705143 0.9046243924659969
Ni 2.414428024212195 5.076858000369109 11.711454994751097 -1.361994848503351 0.3565922109760117 -0.6757072509421718
Ni 1.1595548539543132 3.380141124045259 3.9193796656507094 -0.45731337754717366 0.4263971475842914 -0.539746030221793
Ni 3.8226204066154423 2.7163450230430435 2.6320076527994427 -0.5244022007758711 -1.5925796075375864 -0.832219813451341
Ni 1.1197859241191421 3.1398205681371962 8.044952152832437 -0.3652653132699774 1.1848265574170433 1.6581926175517057
Ni 3.6950420428907864 2.217680777500248 6.890881416143064 -0.6544354860475889 0.758121905894662 -0.6806028884715762
Ni 4.075825006230379 6.6952082937232404 6.027281853410062 0.7224936151680911 0.7113021173276459 -0.6205946262387441
Ni 0.7723117094325922 7.582291500320555 11.576744554682714 -0.6462591208843839 -0.6723717588110356 0.26728160023463643
P 0.2466336465277874 5.50798770250688 8.155489802512651 -0.1911337521274644 -0.09818734440571478 -1.139745605918005
P 8.260179240387654 1.6257502197960647 8.044912202309314 0.8795247691848918 1.087504389225101 -0.4261390088268983
P 1.6064650127253104 3.0921160116636828 10.375272522308983 0.9165003179679764 -0.5139313831515342 -0.20232884951233543
P 4.087074710354986 6.1603979044193 3.759366924949524 -0.8463999616064649 0.2361257434571224 0.8342563842653955
P 6.857988516117065 4.0946108317621075 10.532229047991327 0.870325876294443 -0.7527002206584585 -0.7981370128350189
P 6.449149389948551 7.706265237299877 10.318900518250844 -0.03820607875607614 -0.4295377500958022 -1.1005738208145497
P 2.4432287195174833 8.76187609382199 5.7881062431760215 -0.733514134648311 -0.5189141810781063 0.1862550838789244
P 7.115969019177961 4.027512112245688 1.687517360408554 -0.6860181459498766 1.2505370122409754 -0.49717370407722117
Ni 5.363575641084871 2.95797305061692 0.3075963288792274 -0.5062823512467087 -0.4607347445238968 0.9632841110907346
Ni 1.2645793314436802 0.9036781091223697 7.274096821560931 0.43495197913283795 -1.0318415484451584 -1.5200418453791757
Ni 6.789845635200865 0.6863572509689813 9.280696286246313 -0.1652309162187735 0.3082762974794433 -0.43060784323152934
Ni 2.667968571407931 1.3904416386069551 9.022159199761012 0.5791438152931252 0.8544930230272445 1.8705060890805782
Ni 6.619629167707723 2.2109345868912222 2.715462479668619 -0.5351861787652525 -0.3672332356296256 -0.8372890004441322
Ni 4.099795320103633 6.724689963854474 10.266155840098905 -0.2193022441418804 0.33700914663776155 0.5146952579007523
Ni 8.211993461703806 7.25003026324561 0.3107569600380455 0.21774672672930245 0.12227780969601522 -0.24227479377765368
Ni 7.609439696714885 3.871087654894014 8.141682356941796 0.5626908119434244 0.17290488782426353 -0.14919931667720757
Ni 3.0911989655647436 8.217341384003559 12.435520091748725 0.6592434489591936 1.0954727521425585 -1.5642686764080351
Ni 0.12045627501170861 4.698826175326333 10.26255484521931 -0.8909888039604333 -0.12185871988072564 0.6595933760994447
Ni 9.067125329467794 2.384274458919363 6.021580732167252 -1.8518416799018558 0.1681627451535878 -1.1591453506008553
Ni 3.398963268234371 2.7744003968709166 11.67962804731931 -0.24915815116104834 -1.0118962156714832 -0.3594155393574197
Ni 1.031404471375864 3.2978430464137536 12.668091154137535 -0.28947330584032727 -0.11260531960325768 -0.2960794983029353
Ni 3.019124589986755 8.248657146332668 8.058878542006223 0.4477591581998353 -0.22190882852679203 -0.20293074476239245
Ni 5.642457531470097 7.93922218542339 3.7074067297970736 -0.28920436844965675 -0.45196008365506035 -0.3312678732786101
Ni 3.0690990625467514 8.363514900308678 3.6383304593861108 0.7029028375203572 -0.31901450983255386 0.2492352842558869
Ni 3.322022192566964 4.27896433664186 9.647061650571006 0.34360325491551147 0.016019515356707894 -1.5234845525121374
Ni 7.237899831679448 5.953835540549404 11.550911093685675 0.6026125878390267 0.470210545224816 -0.0344376128525794
Ni 0.8079348645274121 9.111897154357571 0.6376194286929007 -2.036907628568686 -0.06673092566864637 -1.4985636209007416
Ni 4.687694506838223 0.4525940286515489 1.388182618117688 0.28299926808020937 -0.8616370902711935 1.3728996683413128
Ni 5.999097667313863 5.635411711937655 0.42687043159309596 0.7486427627596332 0.42121251805955845 0.2086877018508277
Ni 7.699273895753511 9.187893944933002 11.351496241588894 0.9262334860953404 -1.0404935676932014 0.6512627447465622
Ni -0.06902542429062541 5.051725489459576 5.751296375951188 0.0348711008455722 -0.39897967480328705 1.2701380743013544
Ni 8.000019617883735 9.071174859766078 2.4891772689064946 -0.18751055355258028 -0.0695362563279254 -0.3604943742438953
P 8.588636098101654 1.754672373843918 3.729918849576371 0.7989813631131853 0.24767822418141214 -0.17251433725406418
P 2.119611322899863 3.2447270099900662 1.3476782354704964 -0.7337365350717622 0.11778326425977133 0.570305905286521
P 4.737514625104339 1.0602959633246118 8.28410052407344 0.6279472099490733 -0.741990033329806 0.2125037331628082
P 8.652765767376954 1.4968462250769032 12.687479869381832 0.19541335333942475 0.5333480971152492 0.3629657186025233
P 6.43643785986425 7.844811835554416 1.4014189528011842 -0.9143457335188188 0.7203266894237594 -0.42248521412439494
P 1.90438695924395 3.3504415419697238 6.054325633664413 0.442643948460457 -0.24187498723607376 -0.6279950324678732
P 6.659516133179393 4.034131187553871 6.137488095341651 0.7150947516008587 -0.1232723123988006 1.0087982934724498
P 2.1669072944778103 8.400196744266234 10.135884447929246 0.936100094476775 0.25725712611909884 0.20280758892096684
