# total energy = -340864.4337893406 ev
CRYSTAL
PRIMVEC
9.29768645107147 0.00000000000000 0.00000000000000

0.00000000000000 9.29768645107147 0.00000000000000

0.00000000000000 0.00000000000000 13.60810394569559

PRIMCOORD
 96 1
Ni 2.7357419528059013 6.17601609364217 12.943565873249273 -2.1640129415603315 0.16852552780964525 0.9347710912527064
Ni 4.912330342352703 3.113562737930309 13.304235216245543 0.2575990828395499 1.6599594796441413 1.1910684245616971
Ni 3.571910785087459 4.254091334978267 4.702810698084949 0.0034720177090004725 2.158991834196656 -4.4453018687267125
Ni 8.99917489411368 4.272296204977126 1.8213767884756238 0.5460812284112015 -0.05305471373313443 -0.662832966082665
Ni 3.391061486646302 7.996289246740436 7.328126818656205 0.4293999389663573 -0.04095613069738753 0.8100414775820888
Ni 4.835289712725259 5.260658866171505 9.980904585820221 0.980096297552067 0.10214555772251441 -0.11722996285946262
Ni 1.7586201944862 6.173012940930407 4.445944445290542 1.055744323204685 -2.457690258179677 -1.074365280739982
Ni 4.2726867078065185 7.012166330550898 11.557335685252989 0.5210980761033025 2.8042330553394863 -1.6424808632434034
Ni 7.790140943566444 7.171110279800376 7.409489942697577 0.7242278242503786 -0.9614300886011313 -1.2580510612298332
Ni 1.2135898168901575 4.116820292760117 12.186342766541415 -0.562943551384179 -0.4955230558476756 -0.814930430243274
Ni 5.565334752275986 6.719707604394578 0.24848903733527927 2.1789181408069376 2.4196826685876522 -0.7073775854622592
Ni 4.513515381305201 2.2469718757017327 5.148081549300631 0.33256319505126597 -0.33103364578061695 0.42679695412587143
Ni 8.54222149991865 1.6453650762757364 1.8498723377976358 -2.06450507857098 1.1556368232269647 2.211018620885908
Ni 4.460258233525089 5.716784766275678 7.65639558403653 -0.8230396896139697 1.1458730589719814 0.1481215102319965
Ni 5.898740489400116 4.661915754161059 2.4128528287847892 1.6078601878457406 0.4102115389633645 0.5357307384148128
Ni 2.3193171736900444 3.565904479663933 8.386388556543338 -0.2858603916780883 -0.4526241996016205 1.1189980889580082
Ni 4.169036099661847 5.307528503385112 0.9850498955250263 -1.353808713148133 -1.3048405107795462 0.5312541907006979
Ni 6.335768941609676 0.7902038599560446 5.515078897670355 -0.09790606571987011 -0.4811986688052035 0.059270869846175335
Ni 2.038796676889461 1.0710004980431276 7.9398383436770725 -0.2782874644268369 -0.34975024835351376 0.46303433919135095
Ni 4.623414034720165 1.1080889691490745 11.874050215726482 1.2122013498855704 -0.8769847763718573 0.13905297227182503
Ni 1.4692761932786116 6.42865282888679 1.6294344203737734 -0.2963211820000961 -0.059496098483103985 0.2616480560979429
Ni 2.7945033309431753 0.9858708812353936 3.986425819413854 -1.2044481883027127 -1.0907653193645603 -0.5024231254016186
Ni 1.9972267209319052 2.5621355520813482 5.42839470769418 0.006512347197221042 -2.0267538279641353 0.5725584487661236
Ni 2.505196520481243 5.400207841561116 10.694404392397013 -0.3523403776781932 0.4353265888634374 -1.7381912068635357
P 7.212773212622073 1.1060899665700374 11.171369197061168 -0.7557081542468469 1.4546712903931658 2.042193045337341
P 3.515111218783565 6.730223287728954 3.3014894352698985 1.1615372478717996 1.0042731519085866 -0.6183868199541479
P 3.513316765305639 1.8026075489114282 9.668993240148268 -0.0352379972666877 1.139850506926985 -1.938914659561964
P 4.6694468801565 5.142429485729484 12.294894185194973 0.744153616640028 -1.6401486155658012 0.6075493630190117
P 0.5175380486381145 5.832373603776087 13.307500563714186 0.05071243875320299 0.04119190085727745 0.37746674043217576
P 0.1047133337018067 8.448398546313708 8.230549104787539 0.6020009223969567 0.4375109981092658 -0.7570047615710834
P 0.47777928199403064 4.122612751396118 9.504879777252537 0.0641125142091928 0.1742097226786161 0.18732209169085803
P 6.335806132355333 2.187392301160016 7.348049901104393 -0.5260263666428553 0.13792091554991084 -0.8735227859651858
Ni 8.24293827193436 0.28667556520673454 9.531497193918895 0.980522329345892 -0.012758328106932866 0.20314491765572756
Ni 7.038525271534945 3.451459257592462 8.923296475288002 0.3360853492719115 1.2747948563470755 0.44786200232628676
Ni 3.767617786418388 7.798006786272794 5.194635065176158 0.6138830185465234 -0.857877109008129 -2.2965815916593932
Ni 4.023945703169417 9.110254353703239 9.795113567049956 -0.056034365186748654 -1.9420100106578357 0.16639639728178438
Ni 2.069925331003953 8.87560864166995 13.192498410226507 0.4423652408777737 -0.3661027215696082 -0.18956486497844774
Ni 3.3815499534446514 8.581448438899844 1.8505389819135285 -0.6587791077282655 -0.901173457802919 0.6167058327072992
Ni 5.960523615621981 9.07307290573315 1.3966268609445582 0.11234460974270329 -0.7630160007621698 -0.8335112785692548
Ni 0.16553228984252646 0.598918838283673 11.661246628617258 -0.29444659068520257 0.7651423030765533 0.4113736775922657
Ni 8.124151030307491 8.533360804765987 3.1398798393254914 0.8482748100316745 2.0972079681206397 -5.792532157326379
Ni 1.3150461710410961 4.356700602244558 6.386555694109554 0.49831090300545794 1.378842259077993 1.5918735826094972
Ni 6.014003907876031 8.036641205777741 8.635322023289213 -2.886803776253867 0.07818081937680084 -1.1044597861325172
Ni 4.036404602964345 1.3096721082937317 0.7738789821501229 -0.7947328722494764 -1.0937156602421356 -2.6755866231129666
Ni 2.3725650237837415 1.0781783119548325 11.335156311163763 -0.6931362450518966 0.5661330048557541 -0.32310590629310804
Ni 5.957129960080826 6.081105310726776 4.398383989976366 -0.47164882033323935 0.32963856520530327 0.9984200355619194
Ni 7.401358186159782 0.32824273185836583 7.3648415227683035 1.4204486217648697 -0.8213473895132113 0.7326415022353705
Ni 8.722326983446676 0.1128701939929191 0.23366480611659743 0.4081420580288455 0.9558515660720892 -1.1535812262495164
Ni 0.1347764729532404 7.74738088374788 12.007600323841698 -1.7643781496715487 -2.8581508884038644 1.5015589560836398
Ni 7.60814802969635 7.3624473685166665 9.952531765958875 2.227427401261235 -1.4729238088454502 1.7420861710425675
Ni 1.2538487990633216 1.5279631899245725 1.087013903354176 2.6085875313845976 -0.21584385327963473 -0.9036604858908308
Ni 2.073086544384756 3.86707513799029 0.8461805810122878 -1.3053629589419196 0.5876433681237041 -2.440135280015049
Ni 6.15661182209589 4.538740004546723 6.699786381483673 -0.015547460816295804 -0.9281875244979176 -1.2099241238156193
Ni 4.086937528625118 3.2364688546386358 2.2589584530268234 0.8289485988992369 0.09078102463931462 0.00011878496605140831
Ni 8.438803333934331 4.673045084798767 7.178097491140591 0.7694355311352684 1.2762683555688086 1.6535358355059844
Ni 7.916161785223502 2.888307689175288 5.891642635591573 0.19690562161423508 -2.118203339425384 -0.5647561791128853
P 4.281603189077666 8.379660750654079 13.30541881172606 -0.018407041752277975 1.4581325094688888 0.23114525952339549
P 5.751790555624861 7.834630373058036 6.106745540551009 1.2881049431924203 0.5771594378732448 0.34515234457018623
P 1.012843469522772 8.537498275220274 1.4539582549113397 -0.6663872590928266 0.9317158493661503 0.8954638090126513
P 7.062476111737733 3.914744376235512 4.2345150562333265 -0.1960389027385656 1.3911820115902687 0.005098754679146057
P 7.392860100777272 6.682972445372369 12.171373491414673 0.4053123018895342 -0.09867071180003652 0.03747125747258063
P 2.6677200790001585 2.524665875832422 12.953663160695013 0.2978620441246548 -1.0132416739557841 -0.38445088505949276
P 4.370860978653272 1.2724906603236434 2.755613897978812 2.853664056277105 -2.0274580531200117 1.8437146799193473
P 6.820429441318801 5.767066654403269 8.825753517348767 -0.6057609036600213 -1.6322728123621504 -0.635696514877189
Ni 1.7812972516502525 3.1196155317859047 2.9953073239663284 -1.1719054784800012 -3.1066724344221783 1.060937180259534
Ni 6.624750333047114 1.3142465700094814 13.33824150430521 0.13455174196736183 0.8691840493805161 -0.10399238112326607
Ni 8.76619346794852 2.6252110567147766 13.18385807024186 -0.43154089656876005 0.25895122599207016 -0.1113256815598857
Ni 8.139845524974536 7.3824559896798645 0.6915117079760256 -0.42864300619567464 -2.836655180423934 0.47954159281775477
Ni 6.416528645802771 3.2533255601074456 11.44310895881225 -0.49960442500590085 -1.4357420575888307 -0.08368349436258492
Ni 6.015026653381585 1.129892043790199 9.331444453958005 -0.963766707154108 0.6964113162587425 0.6059498797423758
Ni 0.3905511773626285 6.319432906580057 9.317087896365953 0.21720730928606463 -0.34247299796581016 0.3643078344527145
Ni 0.3483703634076649 4.049346982452808 4.381346909391122 -2.351418079883299 0.4164986575236569 -0.3365517473853688
Ni 1.3877912695452148 8.302378381179865 4.423110257226091 -0.8453049287700731 1.8094832695403031 -0.41637370191001843
Ni 3.861673182183683 3.346069982088348 11.191427095962359 -1.0026109337148152 -0.08002198635059767 -0.6024197551019302
Ni 1.8183299366377146 7.969121407038362 10.682402009005019 1.692440482990982 0.14318473505201146 -1.2070527158050954
Ni 0.29500815177107387 0.49773397657602697 6.128668555346876 0.09400801621704455 0.5216603763646758 0.21584848126532505
Ni 4.444879860196125 0.6299935658169636 7.40735333435961 1.3318221815747127 1.9026307375292655 -0.3920266405242216
Ni 6.915200758937984 4.8073780581100545 13.524713113720987 0.10225225850370777 0.873158974867864 -1.768573932920451
Ni 8.482697711495417 6.045355706464463 3.3919828873699416 -0.32777862917842904 0.12678701042027843 0.5641591689588349
Ni 4.7133877461496585 3.349630995984958 8.426491337584745 -0.6376508103900824 -1.0953701651264232 0.03783301168737355
Ni 8.764259549174383 2.43154024870854 10.497617929673403 0.3666323688208331 1.4273479199878643 1.2523385842260883
Ni 7.9776473854801155 4.708999238162191 10.865064356296932 1.232701269611135 2.335588311939894 -0.2906089621066672
Ni 1.3283418626132957 6.901514564536391 7.208865395022215 0.36370696764392196 0.37336325978676344 0.3467831953053898
Ni 6.333174887100134 8.50147903805195 11.443149868632473 -1.4843348788958695 0.08023435947171988 0.9952971736622214
Ni 6.544613573843765 1.6499767287371425 3.4007199232932956 0.2228963892510419 2.0986709258194116 -0.9658945521303881
Ni 5.754496182371373 8.830077871299977 3.6663222822424144 -1.5225221885988682 -2.0202209119416237 0.8775272791388888
Ni 9.087781845640297 2.2487105430611742 8.284028467272947 0.9682879920632291 0.37042705997657493 -1.849266462975512
Ni 8.187895968362737 8.040165028928696 5.037379575779486 -0.30574864596158313 -1.6938826147541473 5.371357948703923
P 7.109020329926845 3.310599308418459 1.256274565448767 0.6689491062827317 -3.0305821790258194 0.3608903241307333
P 3.2574165421296604 7.058589678816628 9.097616008560518 -0.33294577520166535 -1.5295009339095464 2.8291344465668566
P 2.5592346739201415 0.1674067034236142 5.9714400292408065 -0.718428443959782 1.0945996055089857 0.2683640346655378
P 8.797266335944528 1.3485457351911907 4.1796066393460665 -0.2981662056286349 -0.03435250933794084 -0.07892283974914795
P 3.545375188061544 3.9536737892514555 6.584648481774348 0.2973416528448105 -0.5820692164700362 3.631273638582733
P 2.684539593723312 4.809693182027171 2.5194043150906684 0.6372510038485025 2.7294607474236026 2.2048788265367576
P 9.46894979787379 6.064220712198723 5.728263689922557 -3.7147717564073894 0.23114603085434385 -0.7519918817375243
P 6.596503961721001 6.980851722708124 2.4807296586824714 0.32008820251270687 0.5650698536985623 -0.8908378802048658
