# total energy = -340864.30355103145 ev
CRYSTAL
PRIMVEC
9.34643958796654 0.00000000000000 0.00000000000000

0.00000000000000 9.34643958796654 0.00000000000000

0.00000000000000 0.00000000000000 13.67945908958103

PRIMCOORD
 96 1
Ni 6.535881031619021 0.022617448971050492 -0.11261524965998074 -0.3988953426195969 3.406883438394984 0.7770205425713779
Ni 3.6878246375913846 4.365647123759625 5.1911498966987555 -1.0296375988153041 1.282905915489984 2.9678392914706437
Ni 1.6179341043149047 6.1799592686260985 6.4895217570038275 -0.2779552778983987 0.07148978050987043 -0.5526840784396997
Ni 3.310873385700217 0.9099338342557073 4.7920373020846405 -0.4073717555217242 -0.879811190077059 0.9113632538517272
Ni 5.9595047998959165 2.682624414694774 6.654359302783832 -0.29970321109845155 -0.5307654239897375 -0.9641582861655716
Ni 8.546346902488816 2.4660300254823584 8.76321233844703 0.2914954784766786 0.4771615226213524 0.26311384201019206
Ni 9.241740694936478 2.1228848453000584 5.29248679780162 0.07835899682587795 -1.3299465618185546 -0.8923646012620374
Ni 3.914251481168669 7.9774945545715275 3.8838718141842885 -0.6503561737718929 -0.2697426601806193 0.47994577023470886
Ni 7.05481404611163 3.767942317073944 4.495686005954766 0.5662165657084959 0.20273148426739276 0.4608918389270514
Ni 1.4777094723414053 4.18039134622535 0.411181651953805 -1.8412826734390868 -0.3313730313979067 0.1598303140284925
Ni 8.734715044380032 0.9294164874149927 1.5267100507622189 0.6337365629373408 0.5110661457885972 -0.6835483442531454
Ni 5.06845264273898 2.4626185750610876 4.183807469866376 -0.33270897660051085 -0.3331594338743682 -0.6387718113684032
Ni 3.5957528619751122 3.9569086310938206 1.2995682045623946 1.0149504291167748 -0.4379442289919426 0.9768574788997951
Ni 6.3427555520170475 3.9242334785657027 2.095392293480419 -0.9471784637781236 0.9767181251084533 1.2436233158402776
Ni 3.3357909934347596 0.17710007441755987 13.670745462848737 0.1879556115097989 0.543642794173038 1.0741485367434855
Ni 0.5250110041061777 0.4477122107799345 9.371469275339875 0.26701883349155303 -1.2413250067244042 0.6470479353342662
Ni 1.3801419902930578 4.648358226068123 8.32083227140774 -0.990687699914668 -0.5103850605611726 0.14126720631432443
Ni 4.545341769785252 7.794958590934759 13.114114519235157 -0.53900838072482 -1.0030572772236144 -0.34101029737735467
Ni 2.9098550520699464 2.409773806069675 13.23043095894123 0.7816981505527053 1.2709703403946628 -0.7928569953830022
Ni 7.012633564601505 6.9166923630279555 2.9457752883960513 0.6244409965680278 -0.1983698648645874 -0.08723521626958525
Ni 0.7165036607256966 5.46776992437837 10.510243203854433 0.9782728711900829 -0.12358418721226458 1.2023452830270969
Ni 9.343588846280557 7.727608147823312 10.71250763200961 -0.08579925515400708 0.46049846014337464 -0.5493151619674669
Ni 0.9837688370994218 1.3759734782714501 7.428794064882464 1.1344362778899495 0.5446100431823137 -1.59101534837426
Ni 5.334611200674682 6.069213306868184 4.516067786594944 1.3312472829078494 -0.18535056978678402 0.21060445925756635
P 3.625175453553635 7.696073260915455 1.6280880761989283 -0.20496988667960828 2.35985438357611 0.502078083357374
P 8.353305540842435 5.009869159888225 1.8546887635511045 -0.22442542430105866 -0.4435800871214812 0.27282952663605914
P 4.1890368027724065 7.641901297513575 9.307586361286763 -1.854411240401245 -0.7931909816836534 0.7042410967158065
P 8.577339695905074 4.751150367802746 9.272046525048728 -0.81979341476253 -0.5127998406502523 -1.0157109614318829
P 8.077389300057948 5.592675741994436 5.292733543804692 0.25634618426905526 0.3639327105014829 -0.4477211058730483
P 6.824975752113076 1.224748086994291 4.999459095561617 0.4597309858497308 1.4426989485226378 -0.1236507787841419
P 7.1650179143779456 2.665333501600661 12.226973847013296 2.012630501188876 -0.03649320983002747 1.0128549800403266
P 1.6095596945136479 3.3846822185133028 6.596467456456842 -0.996075960809775 0.17824738308309948 -1.6922797890434018
Ni 0.43592915448925995 6.57451921255473 1.1332529866958059 -1.4012368247231093 0.7503170651382627 0.6570765232148619
Ni 6.767289527455311 4.395359454962968 10.959777035694932 0.849311478826305 2.828791718515457 -0.09549874182995811
Ni 6.008096938910128 8.509447159302029 9.069549370549744 1.7427544007541858 0.6324512684670139 -0.3493496704809855
Ni 4.907684536721773 -0.0707226384867742 10.98728641110569 -2.0413322399989426 0.4982386550066258 0.28612341553148785
Ni 8.711778881821678 1.0730553737416157 11.508583140150462 -0.7100451049920933 -0.13531021739994117 -0.5684395415017437
Ni 0.6289892090146614 4.417510516602452 4.620250678528705 -0.7260507363917302 0.556997361103073 1.7427104348901277
Ni 1.9634439336933185 2.670053453553378 9.497771451018785 0.45241079803923373 -0.3868394398963273 0.8477289648305336
Ni 3.457612486012417 6.589006193795744 11.20134324199105 0.18564470398843513 -0.21423665669351488 -0.3379535128289018
Ni 6.225326886009246 4.487627505808957 13.50927263529245 -0.430349190253504 0.9215468792529484 -0.38834482079726024
Ni 6.914748303609807 1.6050734035486887 2.5636124618339227 -1.6100026881100402 0.6490806494935789 0.767699265170452
Ni 8.476949589124606 0.14528572896834346 3.856882100810305 -0.2736196266375223 -0.7676193038621361 -0.11833656566008006
Ni 0.7981270516133702 2.9433526912749732 12.161148742829935 -0.6299349298030634 -0.16619919366931377 -0.6358296980209437
Ni 3.580499472694252 3.4392747716931473 7.523032345177232 -0.9052383719009118 -0.8446210153291713 -0.36555893325099625
Ni 2.5429979548499357 6.194642525096828 0.6778701530097425 1.8846422713716446 0.2054504258604526 -1.49429738942522
Ni 7.378509285672931 6.6686191655447455 9.433956765974097 1.098880749382843 -0.7271956486294509 1.405470917409115
Ni 1.6860509554661984 5.0410956142922405 2.716850141537656 1.0587643409779315 0.49616994540305515 -0.105347866709896
Ni 4.864419868228449 5.981562397140298 1.4891597953855122 0.6733084116926921 -0.6065054951355296 0.8643861137712404
Ni 8.537589288667636 3.7177052047059136 6.624073100194556 -0.2896702523424818 1.0059829355108418 0.9964919653012709
Ni 8.106961434668635 5.85294604303863 13.346309050634266 0.9500989798590282 -0.8199962748019556 -1.245791784246506
Ni 5.538083188814593 8.838834380525121 2.4560508320171777 0.10793208249730445 0.7661910560560418 -1.808519620075453
Ni 9.507759056279525 2.9555497948359553 2.617919948608702 -0.3795850723267592 1.1732941312974117 -0.46065401188463245
Ni 5.192040612384089 1.2372723159381351 8.636170859402853 0.9382125128340875 1.8510754911597926 -0.045640680657250424
Ni 6.641523837404295 2.340610153693224 10.21088141955828 -0.39106504794190067 -2.4547993097851273 -0.7308049632472641
Ni 8.198874320813232 7.9330615811394125 5.930784125924619 -0.5244592792660516 -0.5972325544740359 -0.27691243845618113
P 1.7290258843347013 0.3861593640967462 11.210370967914079 -0.9023271117913879 0.16829541407671017 -0.2432908937469939
P 5.886696036110436 6.380309545969558 12.278805461961786 0.12151522049837782 -1.5828690651180415 -1.2166344459562597
P 7.708251671597416 0.3823525592841884 9.483695713116227 0.1600704550637566 0.6461511345516098 0.5614510259990525
P 3.9240932819730476 1.7880579962819532 11.343924111365105 0.07431130911906557 0.5167277149497488 -1.2024910645763418
P 2.181870225049759 6.82904145330007 4.472704045842812 -0.8884202719023088 -0.357296693242204 0.08656312990322511
P 1.1290872786060513 1.823378191191495 0.37024518154250535 -1.8623950299376697 -0.12695001836070394 1.0791529319366124
P 4.880888294645653 1.5666314978426965 1.4007630397847017 0.5181891299866238 -0.04265177323225558 0.12287327718816902
P 2.4034743058397114 4.1341545099677415 11.226047750904758 0.7108830275123563 0.010840542258929718 -0.6199567355444291
Ni 5.1480469216089615 9.328933629128358 6.553199984031664 1.8968408703203656 -2.090965586755354 -1.3546584627429379
Ni 0.8951944991479148 9.110740998759676 5.528347937420632 0.2674685194344619 0.2088075152581436 -1.0547775884160415
Ni 1.7134173303524483 7.9439221438504175 12.490645317395298 1.9148095389836441 -0.9612763366320866 -0.929861826876547
Ni 8.908811173138972 8.48551092771607 12.8730548899605 -2.1268034223895698 -0.4279673202848887 1.0846283532288867
Ni 5.227968325861803 2.4738436489129954 13.031285437650652 -0.14985391954207095 -1.850278449179794 1.0287240858620992
Ni 7.659042667575522 0.8269421246237213 7.0579030443697945 0.33844613619460423 0.047722502886943616 0.17982398354159998
Ni 7.905171805640585 3.0079178954123416 0.6812872112947197 0.9950973989465894 -0.1706819120310157 -1.2219633143683406
Ni 6.767663385035725 8.311330681001538 11.592370231784777 1.8212036433010246 -1.5091851051703298 -1.133065622794668
Ni 2.2503142015839144 6.726211925807406 8.984353770481222 -0.2160125176470151 1.1376216175964664 -0.5363058941919925
Ni 6.196465080801343 7.026400870000224 7.441160338998584 0.3536195015009329 -1.1391617083900767 -1.9492252974593525
Ni 4.520816712510143 3.48449284604413 9.549055364611974 -0.06098399588254014 -1.0895263047511365 1.3384998507052046
Ni 6.699294180017652 4.090142126313592 8.337643712154973 0.27314525810426504 0.4473840342486037 0.2417477176295901
Ni 6.59087548169781 7.3092054367038255 0.4593915215920444 0.22759533738860802 -1.106323321703817 1.4160332663059936
Ni 9.423080314315925 6.768186785648303 3.571337158042274 -0.6664217118751877 -0.8049424657926266 1.059937021129794
Ni 2.608254795511068 8.36927860596559 6.944431660850668 1.0771222746598288 1.4751652965814595 0.14937929389849755
Ni 1.5257314785454872 8.510493960527185 3.0439259882698435 1.061786415633707 0.5478426911869985 0.3521390603006645
Ni 3.184986191935566 0.2551989229658874 8.941810647118098 -1.411733353379059 -0.23952114229191657 1.0438012919101958
Ni 2.7990530116749697 1.30260392811535 2.2675209967224337 0.47328841281919126 -0.17923571513829775 -1.0121271007353667
Ni 2.4875361827956306 2.9719621426160967 4.019544730116256 -0.8921625125535602 -0.5520374459946363 -1.1577150459122318
Ni 1.09011262584797 8.992639389107131 0.7868449644804493 1.460264725320543 -0.0710822606588066 0.34073621778036156
Ni 4.569801401983789 4.382180975253401 11.718399491429986 -1.1767563788143993 0.5815979332605725 0.7014185396653468
Ni 4.047625172981095 6.7873376402049725 6.377459816562858 0.1628647299794421 -1.249320623335371 -0.139086910833554
Ni 5.2389223529679105 5.683878298736249 9.214675275402461 -1.5309350952529117 0.5602091831721514 0.1803032371708637
Ni 8.650643820984602 6.042351639715492 7.4306278363143905 0.1084848696769809 0.5823060150711907 0.20429677187198367
P 8.246129918977468 8.258841076711517 1.5545886105336346 0.16212322382772723 -0.7163065125207727 0.15500229651222983
P 0.6234486396729371 8.20751043092078 7.550869780614802 -1.5123758441934858 -0.537286770048023 0.5985330184530144
P 1.045913313403614 1.2957810272728085 3.596015496925353 0.377483195492408 -1.1060027051396049 0.9909334973768871
P 5.994525908741127 8.483940725878336 4.548488715968381 0.21679927521436854 -1.4687635068201736 0.5291929372962951
P 0.8857031898251736 5.831981979216957 12.646960779629783 0.10517071770208337 0.8285709038448441 0.750775749942236
P 4.4316797189001145 4.505124040572298 3.3449701316778566 0.9712817845842304 -0.5373803582030938 -3.113919345792579
P 5.087519379340056 4.756973199617682 6.793697892291752 1.3042815529522829 1.45048502022596 0.5887646262123409
P 3.6865628682574902 1.2556006838178944 7.007699579184003 -2.104611973894195 1.1597199921574026 -0.07561974351784397
