# total energy = -340887.54317695455 ev
CRYSTAL
PRIMVEC
9.16448987247338 0.00000000000000 0.00000000000000

0.00000000000000 9.16448987247338 0.00000000000000

0.00000000000000 0.00000000000000 13.41315728919695

PRIMCOORD
 96 1
Ni 6.478606997742291 1.8260795925199105 11.581724876152059 -0.2874914995236081 0.35338193156883013 0.445337179021904
Ni 4.386738870160638 0.43885900971133474 6.11700372114305 -0.3933875254274903 -0.9401925193785936 -0.5584749740898639
Ni 2.6684245139620506 1.7274696815736192 4.749773640076774 0.7013421779014567 0.05068415661842884 0.31864967029396735
Ni 3.5639967925395126 4.2455415748121705 4.396242446150536 -0.20387691072574568 1.1813154589399912 1.1250391529457657
Ni 5.3941545830493025 4.682962676063703 2.4644394656512008 0.40739129590575 -0.6999144443159946 0.06643473458446622
Ni 7.690931539520186 6.4325920941306425 2.6717805501505762 -1.1877298471067674 -0.9955815376718595 0.11442514642081583
Ni 5.032138904406142 4.849490621398745 11.400459514665277 0.8655266551335868 -0.05359798783111414 0.4824716219803562
Ni 5.301510755005059 7.992424927095566 12.572004825891339 0.09175007342080328 0.45721233319293514 -0.004969171079817248
Ni 1.8085662523880923 6.77835913224334 0.2942791011537336 -0.30212390472480233 0.09809607024348913 -0.6082111649727268
Ni 2.6817680112053406 1.4497764741773762 0.4177284454298418 -0.18778977535589592 0.45153816562629334 0.8420643103455884
Ni 0.68148154729259 0.4844715922179134 4.987212742190445 -1.0778825498646212 -1.127751409670606 -0.1368672774744159
Ni 8.3808160075699 2.316938834173657 0.9585909766844392 0.8355313943230771 -0.4050315374243218 0.32326968556448193
Ni 6.785544092297419 0.46911190720434603 4.735220430171318 -0.031047356224107817 0.296282872562993 0.7257476033290147
Ni 0.7867228831051208 7.470974618272794 2.800909128795961 0.387446734463023 -0.08634252925198678 -0.03634408584667289
Ni 7.65635391925993 3.8009446779964233 4.117759259727939 0.5096237569151159 0.5038079215642871 -0.8237367156809943
Ni 7.493821691505982 3.938989388831367 12.69932250133942 1.6793391697223334 -0.08594297982072295 -0.6230060638937142
Ni 8.029623591457183 8.746689936446181 7.149829815080115 0.6970492069530576 0.8503067528600388 -0.5087938048146528
Ni 6.9037568470647255 0.41647016097139145 0.2612869376401045 -0.4987371919095992 1.2809629328310004 0.2331422353487662
Ni 1.819829410432051 6.248193393559051 9.274568218460193 1.227115033772609 1.389091447609827 0.5417710310716218
Ni 0.37536742392732847 5.262625824508301 1.5639201954446678 -0.7008778366705284 -1.599797208331948 -0.052833855971579975
Ni 6.4573728747253245 1.532953384191181 6.948458479278734 0.7487391791281814 0.4030407322465381 1.1025363438575593
Ni 3.476347611471638 4.020819118835031 0.5344153126346425 0.7311451201955022 0.8470237112333928 -0.4145502755480344
Ni 5.908044187733535 5.500526816911161 4.889833622233008 -0.21790896333877954 1.7206817372248624 -0.611548971096708
Ni 5.705041572736202 2.7337398332291714 9.487528968144725 -1.0374840914429164 -0.6378886374325013 -0.28097478145101284
P 0.16405078372456117 5.57184487703979 12.6233369665226 0.8797358567544333 0.2578021999892915 0.2769157808902908
P 4.057577887683133 6.09269032953148 12.923925818948316 -0.5153781429003899 -0.07589099490135963 0.15262454030867265
P 2.1117275771188844 8.658032661493168 1.5052784576971652 0.7372237222894142 -0.34545573474321795 -0.8811242524615277
P 6.342789257944517 7.669743238952544 5.697829119212527 -0.24592704581826036 -0.03780550088354779 0.7909695485523024
P 4.5377696631341395 1.1353244979330313 12.810732455280014 1.2508979951248198 -0.326326984333567 -0.3765912798057579
P 3.9332157602164814 6.04863662675092 8.4915743662811 0.49135041252722483 1.4581389372267919 -0.3481571928347811
P 4.628214013610808 1.1121933255140313 3.8604680396689295 0.8191087299906795 0.02193690928240738 0.12000006940543205
P 0.19857158414765508 5.548512085843761 3.949986776669243 0.1309866503239228 1.0185129496570524 -0.8455355567236406
Ni 1.2582111425314348 1.2375910403354164 2.578531865775249 -0.5284658293222834 0.7528066643293357 0.3554089893011879
Ni 2.0865343944802826 6.7749682709933285 4.7629182678899955 0.2608538423314217 -0.7783595730977756 0.35036088535431914
Ni 6.066773152193551 5.616815028806839 9.004802294797086 0.3054858792184997 0.49808181771378734 1.9424329571278673
Ni 8.650517779803954 1.9197406789391576 10.138790610107817 -0.1832162970526006 1.2578736551117047 0.674813792593625
Ni 2.405284516471264 5.196485701153339 7.153853942579791 0.80742872254959 0.20539617558374948 -0.6716073698411853
Ni 0.6001787754561565 9.003451448991 9.340573623814139 -1.2191376719940876 0.33666564725541376 -0.9658295032204076
Ni 1.4019653305522086 1.404256453018433 11.584541123887542 0.25660458013676457 0.2985510997718794 -0.40306670038846715
Ni 4.076759164970363 7.484107332249191 1.2028411276657003 0.3344421572415337 -0.0075945245178062745 1.1789590428926728
Ni 5.920361262111956 7.890598280206697 7.9147018050003615 -1.0357938482246871 -0.09319066252207175 -0.03328524441569106
Ni 5.371380825735033 2.723603907438595 5.259634535016399 -0.2789929751342937 0.6539662597206544 -1.0568894925527217
Ni 0.8439587881073484 7.318101762836448 7.045823852501372 -0.213269150573923 -0.07587325428954675 0.37442461117174225
Ni 5.026429427220311 4.59073125006338 7.151023948109511 0.47091297060847936 -0.39479906106303614 -0.6590092214612006
Ni 8.274104687583039 7.08666173578834 9.316283143427231 -0.49224618486861677 -0.19530305301380557 0.13302399246892577
Ni 4.691394006739408 0.46291396270871626 10.460196601261645 -0.6142082630964261 -0.6420993330797393 0.5301077358010805
Ni 8.360617471907666 7.408848541478657 4.87891504900797 0.4228428545741299 0.15231420815710542 0.0688508002251266
Ni 7.598892567807026 6.4352589606813275 7.129723840765517 0.06505070975274603 -2.4508855765530178 -0.8805467826915028
Ni 2.6344242565632827 5.6803524370401695 2.203956253772248 0.7997133561832034 -0.7074279790842203 1.6639310626973796
Ni 2.405394490349643 5.374918318822883 11.631514633139059 -0.6995848288907178 -0.8450334202762414 0.37548673388766945
Ni 1.0002032593649903 3.3803037576875177 3.9763438495206866 -0.5388898528690848 0.621744166462155 -0.7051723502808243
Ni 3.8737015630338405 2.7853359111685414 2.659372747322492 -0.21205070478578963 -0.6547928693870078 -0.9730869561137694
Ni 1.1898623771190333 3.3188008662041937 8.154837100032283 -0.7152405331501037 -0.03094502631828864 0.6584793170996595
Ni 3.602295195684917 2.7265915311345514 7.139850602066229 -0.007800726991341404 -0.40017369511138823 -0.04610193656438512
Ni 4.220229253805325 6.91452512265598 6.434117065244162 -0.18890152036283595 0.17363790933554613 -0.9716021440381266
Ni 0.6866118287189593 7.393415540546171 11.189148373156428 0.6483874800812962 -0.5490809344694737 1.0611089299507082
P 0.3060884627936399 5.351402237829558 8.164011670836032 -1.4462966931762253 0.9609629191567256 0.06939458854373855
P 8.4778312972797 1.4975967822924086 8.08413672652055 0.5650220311797624 -0.19973923440828828 -0.5733254088391351
P 1.8911474705606792 3.4832301433601756 10.480625165619484 0.11569038628648462 -1.2062944974828322 -0.04348301088429931
P 4.36029931690041 6.202453424643349 3.5047107911545075 -2.0192240952459937 0.6041665625897079 0.15660486511265934
P 7.025864510024613 4.065917573460189 10.651468669231908 -0.3047217473589655 0.17154297447973038 -1.5654647535986652
P 6.268813495755069 7.667837025060646 10.66419814565425 -0.39113858149231345 1.0587476288073832 -2.115009257968119
P 2.223580175919952 8.619376843243034 6.034351019949518 2.0240109751116755 -0.5946686504016017 -0.13775070852063373
P 7.412221073748939 4.140443205041532 1.5450615082006829 -0.6749662590110892 1.082912913199677 1.2164066462161696
Ni 5.695253897560492 3.1344204946123315 0.49100495704259844 -0.8279926627438708 -1.379813878962643 -0.03083986819899205
Ni 1.611575542742132 1.0259738048650806 7.414001734129688 -0.5852327017996825 -0.21498227661028782 -0.9540409952259118
Ni 6.862113405118634 0.29755907207638027 9.299006247133928 0.4877441832332052 0.38240788648753493 0.6942400196390366
Ni 2.826200371476117 1.8013812923340133 9.35652258552602 0.007770902194670489 -0.8646380818810463 0.4097410270848492
Ni 6.594473643104182 2.1671727408015107 2.6489774664687396 -0.03986084075067974 -0.11482418163144739 0.4679479744428844
Ni 3.7724156210469992 7.071192076896393 10.56739455566033 1.4162009022321094 -0.029404421304046132 0.1287438770363331
Ni 8.220913988407178 7.297664950437727 0.37778868214963424 0.009577616386106085 -0.7232454057324511 0.3240438447263451
Ni 7.540239832671685 3.5924708625497472 8.397213112836173 1.3241422964319518 0.803413687852926 -0.9864093842542883
Ni 2.65511767467822 8.652268197368148 12.436988062507758 1.093027633036176 -0.3746637237657418 0.27878471577822955
Ni 0.22075148251867874 4.780500341695801 10.31993591677737 -1.62504646981704 -0.18249458839522764 0.6615924088073445
Ni 8.85144922009182 2.5274013439210163 6.159751484117863 -0.5585541640672316 -0.25517016168308315 -0.399381538227396
Ni 3.6027900781376214 2.7829348148239386 11.615378715833934 0.7955864784990234 -0.04658401840712622 0.6992300166544603
Ni 1.3585623065520567 3.434924117282303 13.175744005660007 -1.6699155624155886 0.614058110671807 -0.7774481170270998
Ni 3.5412963511441626 8.458448401215442 8.31804841648522 -1.4248305528826495 -0.43343965625336967 0.2238844641959241
Ni 5.545689422965373 8.085719433920218 3.5109875502629753 -1.0597742702996844 -0.7756964244433157 0.6971497370866638
Ni 2.9360001245474474 8.743858109077928 3.458971738687793 0.7999231582011642 -0.3716802156573857 0.8284436342383603
Ni 3.8143065042194433 4.176450485720712 9.482995295008557 -1.1015274429770707 -0.11698159429408242 -0.40099284857857387
Ni 7.411634546397585 6.241255874731324 11.678594450473007 0.3450227609708574 -1.3756222094787984 -0.46129781611621845
Ni 0.3832690470888427 0.03516139826465021 0.3714541867550175 0.2386227988473632 0.6591128369186003 -0.8252348974930755
Ni 4.907428526324624 0.6939974911010798 1.6927133537609973 -0.41183056262402623 -0.5054387722994909 -0.6759684750233583
Ni 6.1897514416906025 5.682515256648285 0.3673649913773005 -0.7662956999547061 1.0610155989059533 0.1931196722092416
Ni 7.95343002272043 8.713441167216336 11.77441835650037 -0.12078605564183714 -0.6506932453963374 -1.5158578892048153
Ni 0.2576651312454972 4.911305105537475 6.0663011809655085 -0.6979951158060946 -0.06240504459978285 -0.9173678081745943
Ni 8.238069913434265 -0.09613091643783676 2.490259499396562 -0.31563993693336606 0.651326250994646 0.5590210764013211
P 8.378350759796243 1.6669198970362449 3.9308870633418116 0.6172809884844789 0.8753243579502988 -0.8411942490358094
P 1.8142024136550041 3.2979058293122288 1.8822551660447695 0.41095278800476326 0.3318312019812479 -0.37635833785934536
P 4.762134704006548 1.0608355243111487 8.21777240128149 0.3915571570869708 0.3430201287185318 0.892565918639566
P 8.512729674685227 1.4981283227045725 12.369049866241305 0.5240916115139878 1.0594477401982012 0.42959508569629884
P 6.524026209512719 8.077178129366134 1.6473637921135413 -0.7506207124216105 -1.3256469060019362 -1.1390012715528126
P 1.9765146936521945 3.462270955039156 5.895350452821666 0.33881997459425517 -0.5153683727083769 0.7285408498034356
P 6.94869950536218 4.1573700178219966 6.086877293610175 0.6633376736332254 -1.1666833108491133 2.4269997710743554
P 2.3538350703697324 8.706045423895365 10.323034430800691 0.8762833794294587 0.47911221858981995 0.09950477766555765
