# total energy = -381169.6860856189 ev
CRYSTAL
PRIMVEC
9.23482445916755 0.00000000000000 0.00000000000000
0.00000000000000 9.23482445916755 0.00000000000000
0.00000000000000 0.00000000000000 13.51609906635211
PRIMCOORD
 96 1
Ni 3.8986935193909122 0.8559417043399788 9.317687551006472 -0.9938249599920692 -0.17162936354594957 -0.46573425462101725
Ni 6.374060494048637 6.505259644231114 9.163942500545575 0.7351922936816823 0.28417323378365256 0.3112148112824769
Ni 6.827970582721059 1.1416459310310751 1.608307465228376 2.0629652448876863 -0.7201634243730177 0.19627672978098454
Ni 8.567506749569976 5.99341950212766 5.666407905916875 -0.5508480536722254 -1.6182549008165033 0.6012864128284354
Ni 3.4066343711419576 8.79656733386829 3.317594041288406 -0.11539728052609803 -1.0197499073879472 0.3821911424910386
Ni 0.08449217883891977 5.511213911508374 1.668427095523508 0.13867630565869665 -1.4857014202260928 0.29584141415020015
Ni 2.782997444910323 7.561104821806471 12.031300989788406 0.7472553954938034 0.3536338996786361 0.21186121448280287
Ni 0.08748887935515919 1.4126233832591606 10.69081543729228 1.4009910272608903 -0.1746504097604605 0.4107620121501958
Ni 2.601643963437565 6.4167623220520005 10.052138676050639 -0.5377040600910997 0.14261163615736086 -1.1628369405198296
Ni 7.587811933957363 9.165286167495076 12.874205892529694 -0.634220701662611 -1.3249460232801697 0.5359492821835222
Ni 2.9444406449870497 5.901893157546923 7.708825996314383 1.9867988848377522 -0.5653927842556199 -0.43048982959642634
Ni 2.9575818001014063 1.2005087017260219 5.2715628305936555 1.0810182672801254 1.2628775360841993 -1.794483196587045
Ni 8.825934075444996 4.573121979796096 13.194658916455015 -1.7970635557197117 0.8286084419509987 -2.016412079718495
Ni 1.1863701855769846 7.783756437974523 2.065179162084335 0.9781345458400058 0.3283738395602667 -0.7386774240168053
Ni 5.484118936732885 2.060400140459824 8.193810345594182 0.31211726849208826 1.1527810989457243 -0.6703976658038003
Ni 3.0100817767880663 6.145064553521089 2.569842922150286 -1.6738346949643366 -0.386890861959553 -0.9524425403905403
Ni 1.4480019955171368 9.181761094216096 12.992566789837978 -3.0659042513658807 0.20922711929406546 -1.7520569091020342
Ni 2.085324931502444 1.110386050453354 7.429367281361754 -0.5471441224580771 0.33499571575215853 1.374689413251884
Ni 4.903313126046145 5.2281665437957745 1.5724495655842896 -0.10689695636457074 -1.708850034697257 1.6127766513107515
Ni 2.1482971990532507 5.762050211730548 0.356205646571302 -0.10164264994416689 0.4619534474223464 0.1881741552785082
Ni 3.1756898826670246 0.9947660490255645 11.4930631021513 -0.32820337542067346 -0.07095139150789716 1.1262899946337313
Ni 5.1396876912654506 7.058813488127645 11.380569088781282 1.1471431839336566 0.6096478974192534 -2.2922294853382845
Ni 4.492649720016403 7.872041359192547 9.244525578218012 -1.9343910606599977 -1.3255836568641686 -0.005514759170642114
Ni 6.2181120144870485 5.231177096548607 5.656852633115172 -0.1533832728515681 0.4567991569149165 0.22536413406524414
P 8.463892019855933 4.5220349312419 3.621854724119199 -0.7384118290602444 -1.0826082374750645 -0.14160170683560774
Ni 7.597905597021306 7.454913576086171 7.246034777021107 0.024426765583796643 0.08202410438229099 -0.3123638372852556
P 5.201200856561817 6.728640811526386 7.391833261089941 0.18341298644443896 0.6939317443699985 -1.2988688665771437
Ni 8.536080642153141 1.9741284109599506 12.800124131231472 -0.04156753902914132 1.4419343024424713 -0.05296292535027653
P 1.4693344398700279 2.702081913559661 5.519623142602636 0.28877499422172204 1.5601852503672808 -0.023913573392803977
P 5.349392083631445 2.6243708662741296 0.7365843694794555 0.4604874043997811 0.6065188648719683 0.08120443669447304
P 2.3678182097513325 8.192332773690952 8.436830290448267 0.3337160777087866 0.0275092611638623 -0.7283019943197522
Ni 1.4759188696637988 3.9022396919586657 3.3759433557469802 -0.07065082954834284 -0.13112189035020644 -0.15561858993999006
Ni 4.216796280507657 0.1493538914609823 7.031966930128386 0.3572596693566815 -0.13583369400357898 -0.047331180985795904
Ni 4.713001864910052 0.5266666526699325 1.3316976936016636 -1.7984414099038444 1.2160932287408088 2.14169242368626
Ni 0.004763322423039447 1.2111749239024672 5.86159423085119 -0.46010610980096245 0.27769353959657983 0.7072485160835625
Ni 4.507176098790039 6.412394250113074 4.175474135268936 1.3065461806167433 -0.5022074098463867 1.2692759834113754
Ni 2.6224038486779544 4.805211586496033 5.413386646242799 0.2302767408755131 0.4230004631979167 -0.4093754162153143
Ni 7.3917843165206465 3.403669992511101 1.5035171423688267 0.17213638508935517 0.9954774079938276 -0.33927840228791245
Ni 0.9055244000001982 4.374637899070259 7.190605514036292 0.3005588742305275 -0.45412186719306946 -0.8040937446390861
Ni 1.1606789041095635 0.15496497076350027 3.701492155773567 0.7597902947360206 0.4141916066570351 -0.21102663439664948
Ni 7.146239570676916 6.491693687194578 3.706492813183563 -0.3652187763027581 -0.9343023791464039 0.9269919615279197
Ni 7.933794629923189 8.700091123411731 9.937927908825554 -1.054790186821532 0.49789104185922 0.16711167818125414
Ni 1.4945732149420845 8.776287659496452 10.316459666854671 0.0864137488095544 0.447028707791714 0.43317097597301524
Ni 0.23525253405528965 2.627464532446519 8.586696714663182 0.7904627841192129 -1.6790242095850763 0.0956676633076546
Ni 0.21261890294511637 6.79945344498871 9.76205621911378 -0.7728700107381141 0.9576253701430604 -0.7633767265356982
Ni 2.986209755726498 3.7760550514227775 1.2592745067648188 0.2683897456971507 0.5699652341176507 0.36909702831124175
Ni 4.498015152990009 6.367042027508292 13.276823919546347 0.03181045964237747 0.5181989001786366 1.770931377409034
Ni 0.4058132762573882 6.334867899315448 3.679879896241502 1.6095584014837698 0.5801403748784395 1.3200012776803847
Ni 9.114522337794712 1.9221917585613972 3.4806930453791907 0.21211395392355728 1.2388055827366602 -1.8523124488906872
Ni 5.192390834088806 4.553091645682927 7.668210315141895 -0.15003492520462547 -0.37003085297942084 1.0130454987845778
Ni 0.3592134288768156 4.5677380771737 9.838300776285354 1.3468451373461061 -0.7665828921778217 1.2251877348429094
Ni 7.340817320683588 4.414181417130466 9.277721077988964 -1.5916457828694073 -0.6372952268228766 0.4690471210443341
Ni 1.53283309241136 3.2128046419112963 11.707022901598599 -1.065671609620726 0.7332529105671242 2.7718520679056198
Ni 2.845157047914353 1.6385164227899245 0.3078234780824575 -0.005005166524075251 -0.8390003267082842 -0.46351179304840173
Ni 2.7965079930004872 1.7843620044631738 2.6517909068683303 -0.3767041512345383 0.25370386155020175 1.3476151827429113
Ni 7.633967586284527 5.904691309338666 11.312839963184512 0.06475966087488848 1.114939088397286 0.1235168243094389
P 7.845759048963834 1.1361604453403318 8.106334394993176 0.21299095721187186 -0.20189356174712975 -1.0536002802784887
Ni 6.195098832094234 1.3657566494535671 5.8428336850923595 -0.7322211268685003 -0.9669703016930701 1.3311727209161721
P 1.135680234471782 0.8988485454449147 1.3661398946659675 -0.7028943528799249 0.11000284898340408 1.5836599364504533
Ni 3.371440455371885 3.0895751451818696 6.995216022965284 -1.1839210148836385 -0.13554238801540527 1.9335577661254246
P 6.125486725803285 8.153878964909376 0.9680164566824546 1.722488194305982 -1.3479103453858268 0.5427704188704136
P 3.4961936981265183 4.450714382437841 9.37688831627428 -0.16927474727084396 -0.30540308969670626 -0.3002835090819538
P 7.941505708293174 3.6868189432920477 11.242813213278222 1.585708848559682 -0.269913895651161 0.5938438405074611
Ni 4.890402841541668 8.84785754855918 12.900873294935687 -0.06093334515026281 -0.4722450591563416 -2.4520826821849124
Ni 6.179759788773821 1.6761668018491176 12.399655971334022 -0.09091060823864343 0.6393397680567312 0.9281034494245436
Ni 7.5222077414539275 0.2749216457272715 4.185570568780198 -0.511115510969294 0.09204395051213826 -0.25624616835608127
Ni 5.615096451129876 8.220175769242452 3.1502784163787774 1.0051187877383334 0.5809374168584381 -0.8415367199768926
Ni -0.004365301491606721 8.207995035865196 5.125601813615465 -0.5759232514732984 -1.3763557452107134 1.4649726723191738
Ni 7.277180145776328 2.098456851792405 9.952214182164914 -1.1046225369626266 -0.7432892117572037 0.3709546503452708
Ni 2.337398698193574 2.6522600359476063 9.881309200458638 1.035895663909874 -0.3207415198259896 -2.718704537348363
Ni 6.105400982743745 4.08488604884675 3.5148886766321428 0.5326793531829987 0.39674744303865866 -0.16114697595738697
Ni 3.927321475016004 3.1474313200177404 12.637052831613875 0.9696470771942848 0.6788033733689922 -0.4687851256321991
Ni 7.633819829094204 2.779922248386725 4.9003432065206525 -0.49738633430865953 1.6916951201845252 -0.30824827245498526
Ni 7.604286860678383 3.17498803601299 7.353866127553992 -1.0937182313452969 0.26698335226792724 -1.7888064579172418
Ni 5.796135948573197 8.150785298736988 5.650878625213922 -0.07716857606220259 -0.8131465988699739 0.24821172808737896
Ni 0.941656573928822 6.820277973999864 7.357353197245617 -0.5178679992017791 0.021302618132518148 -0.8305938478121437
Ni 3.01896567785624 8.31586701962542 0.7305180133342547 0.6674534955738117 -1.3640476172673217 1.2088771706083439
Ni 8.167001650374944 7.945559796202661 2.3134158592392633 -1.3984122107901207 1.6008377337813204 1.2240124835878854
Ni 3.237941833915006 5.193231203108767 11.821788681769831 -1.0374480959986585 -0.6531512200185268 0.3610944697217394
Ni 0.7541702455752175 3.1213244714525357 0.6373801918965573 1.7917354586385787 -1.6236411048290813 2.4670449599216995
Ni 4.966516264206832 2.4034923363899545 10.680515837644323 -0.593643551571197 0.7754742811301807 -1.7875538164570632
Ni 2.3820583089687166 8.383253533237127 5.930039978821026 -1.070444605529337 -0.5070192294127333 1.0096269600213321
Ni 4.671786843634315 3.0757690827110595 5.262466528564392 0.8154559637294407 1.059767328321149 -0.8855794600194039
Ni 0.2065396180457622 8.909343009382361 7.906823401794594 -0.0183929006848909 1.026834325038554 0.3158867628368495
Ni 5.21490533596428 4.812128469968031 10.704615035386013 0.35813538709341547 -0.12396625314203168 -1.6929737297866325
Ni 0.8634920967654869 6.134121286612788 12.020745585504704 -0.21255978321172425 0.005343009479468217 -1.1167396319411347
Ni 8.834190008454298 7.29929755020281 0.3775251621700396 0.45102163100119097 -0.3021542437421054 -3.2971572401117344
Ni 6.146108088677746 9.030827124301096 8.370141929560836 1.1602840921909887 0.6415761135864176 -0.34167852708897284
P 3.9761275219445875 3.791366390270004 3.2259282508593023 -0.6611584065937194 0.13398918459567247 0.4676229870032979
Ni 6.409365227711452 4.297185426867793 12.540101027700963 -0.917073673972943 -0.7012128514124439 2.462722935507578
P 5.68227979860489 0.06356791372429631 10.881527489807123 -0.05950355468227172 -0.07737272165320867 -1.1237973101188645
Ni 6.955660499633362 5.9417321899877775 1.1272451458692145 0.8314909057051165 0.9859609838629599 -0.5173414372743478
P 2.393934293140932 6.950525937269636 4.490034417747685 -0.19212336973424332 -0.7036559136362979 -0.614871864822354
P 8.892036948465773 7.984789330233433 11.706320131462125 1.3926871353808854 -0.6779294554044712 0.051599212233530485
P 8.471335288318457 5.587373508295514 7.984932470011558 0.3330105670013297 0.1864710565444724 -0.43163345628256633
Ni 5.177698228476056 1.6377868716627044 3.3955682810692003 0.22645993823258417 -0.1774475128896234 0.6035024466431477
