# total energy = -381172.0067803281 ev
CRYSTAL
PRIMVEC
9.23625319803088 0.00000000000000 0.00000000000000
0.00000000000000 9.23625319803088 0.00000000000000
0.00000000000000 0.00000000000000 13.51819017009882
PRIMCOORD
 96 1
Ni 5.135929412248067 7.170888420226909 0.8844506731546082 0.3631773203926971 0.6301539877924051 -0.07132985789323844
Ni 0.9166131539559041 1.4482629701352032 1.217779661189221 -0.28879119217163807 -0.6204390744974864 0.41647808869836667
Ni 7.747997227276295 4.653593799013538 6.140664734108482 2.7860769532557503 0.020653928804925722 -0.7165080870086177
Ni 3.1702977205906677 7.754896708397015 2.023321328980039 -0.8516159585897656 -0.952033734987896 0.3438408248476143
Ni 3.9049492980230607 0.228450409622461 3.648221175684142 -1.3494370664429984 -0.5434085666750449 0.013352767157822165
Ni 0.05335136920697424 1.990754300289737 3.733440389216173 -0.10568185301054703 -0.22046901075647193 -0.3367571785279555
Ni 6.938818322985694 7.75159936601402 12.617378532811218 0.8772650266164375 -0.8435131269769731 0.6040151246135081
Ni 7.88189518953475 2.444910105091449 10.697727680328216 -1.0234684938901148 1.1470362260421472 -0.43234488052729414
Ni 3.8875389607907236 8.713776804126192 12.654364185019794 -0.0041862701672056935 -1.1581783587018957 1.302798283538537
Ni 5.35176217641 1.520601304991257 2.3735775982060066 1.3681896644601534 -0.35239128552078663 0.6935221676364055
Ni 6.551052705996202 6.368498162018942 9.123508078413266 1.4598114398332085 1.0935207706225103 -0.2739299587890895
Ni 0.5778033732880452 5.6829187976981705 8.707066666195532 1.1093024589367992 1.8863101459923708 -0.06535847080115197
Ni 4.699645757337374 1.7672277372341505 5.304226875826475 -0.6940572142042691 -0.5229058187360026 1.6128316729184031
Ni 8.419731448089761 1.5686298214942547 12.815284653188405 -0.6089868667964867 -0.7926626199840091 0.8671230530864291
Ni 8.1982645694919 4.877702246019065 3.341574799442897 1.5555554649047534 -0.41113199389510485 1.630538603279863
Ni 2.140298475424359 7.806268748548875 8.089338664939053 -0.6719922639844298 0.3262359672816575 0.08449416318933835
Ni 4.026978674953369 0.1960367027348417 10.6284603996524 -0.1878154863875088 0.43018206854802044 -1.6207812667827828
Ni 6.8057054422470005 7.6341511706578435 6.324323010339993 -2.050249082872598 -3.4153703928200727 0.3998271104052469
Ni 7.228356387473381 6.791915716258735 3.6648214935131493 -0.8121742076543754 1.8211900164542698 -0.09002563453052884
Ni 4.511891202823348 5.17024209278819 10.160799345460173 0.4575208655722895 -1.098194779059412 0.20926440028990412
Ni 7.662700429217606 7.722514404770186 1.4890419515222004 -0.7102011709539834 0.968331700816971 0.39958774070093117
Ni 8.854278687403808 0.3302884134898462 10.779877686930641 0.242903171390272 -0.014901856812496917 0.13170553076781835
Ni 5.351392726283054 7.253959281270748 10.882670719376183 -0.7645728037263284 1.7125020296275475 0.7085284112372507
Ni 8.042393560933325 4.12876218492703 8.473188110582916 -0.5157594374992085 -0.8558379670909132 -0.32597577164173536
P 4.5929762694348515 6.2816773821866 5.7419458444803535 -1.6721339102231458 0.5629265821033145 1.4062522756598297
Ni 0.6457951274005775 7.6565675571103 2.4041828467222244 0.7909875462744312 0.0026027277301697116 0.7002417457484262
P 4.446202970252324 3.262974284935106 3.8934012106800413 1.9587941720947106 0.9998107452618588 -0.517179971995819
Ni 8.336817603349875 3.341999667088885 1.8017445389694107 -0.7788511680222134 -1.0696781596769578 -0.6340394388897402
P 6.657685248886031 8.617313375980556 9.214917428822279 0.7193586690835353 0.36039050167617936 1.0923699448475188
P 6.626245043082914 4.352510418058784 10.060006885452045 -0.6494994821985524 -1.3234920644424626 -0.27383868462686384
P 8.723751957553738 2.464315473009295 5.898743249232247 0.5184598671495071 -0.12187954581633202 -0.06790797669588304
Ni 1.8101947869979862 0.600467291325556 12.52618438710115 -0.5006732325900474 -0.5248038070896639 -0.21885872884655858
Ni 2.646620638150866 2.5403483091348096 13.411978011467207 -0.11207592946234891 -0.69203555578855 0.8482275017335069
Ni 8.215425527888549 -0.08985027087330046 6.398470727192764 0.7510608852828227 3.1728803977078193 0.12828930599741775
Ni 2.586825135104634 2.455845828849055 3.7393608275004846 -0.7268806884921933 -1.7738490652764614 0.1178555122586035
Ni 2.0059109917477023 5.226241495780051 10.730023163175213 -0.42767755695861187 -0.43323371089015067 0.16359260928440214
Ni 8.152748313852136 3.9274211019945593 13.054840733626868 1.1026723552147912 0.4458143757686387 -1.3482957537497038
Ni 7.071164594710973 5.617563070241398 0.9188446327226588 -2.3321291497466996 -0.9620625799788076 -0.7350483119046503
Ni 3.48480137740674 5.200703255754899 3.654791846191879 -0.5534096437518146 -0.42398288171584403 0.9410075590807213
Ni 1.7160034771330688 7.368895215763691 -0.05981305192726217 0.5105709513197336 -1.136046816910179 0.6031232089268581
Ni 6.068319933875206 5.077343858367583 4.878606475204766 -1.3307127505606178 0.11156710814673045 0.22125448277224477
Ni 6.543802247254884 2.7236971708850035 4.178621326809046 1.7033550730209568 -0.18427250623125685 0.0778270355818079
Ni 3.870849051305932 6.199650217751384 8.178707727022006 0.09456131761735327 -1.8740614105320046 -3.4043902396594854
Ni 0.8611032723822472 2.5576201025695418 11.610191909358514 0.48480952608491334 0.5003870688081963 -1.2867517715986356
Ni 8.415214920287845 7.310595985731591 10.604073920398005 -0.34373952338305963 -1.3443282844615234 0.6251727325277298
Ni 5.734059931520688 0.2293564860587964 0.39935711472242647 0.5517294278359144 0.5437371536590571 0.13823021926021353
Ni 1.4655347635699352 3.5199453207324916 1.9942576111185035 0.07613062171599147 0.12547754758023552 0.14905713467238846
Ni 8.864817252274946 4.712068517855938 10.593841075506914 -0.4493385868718133 0.3397836240591051 2.084620618373932
Ni 2.319158518132158 7.325115375720574 4.43066759241424 0.17786994513902268 -0.4939533973677106 -0.7516386121631636
Ni 8.972641271824175 8.143724494501477 8.331923312793156 -0.505375266051407 -0.6663854593206135 0.8832456696799047
Ni 0.5631879262660561 1.0620767524384065 7.675993244785129 1.19788081949784 1.1175682984900173 0.006885928486555883
Ni 7.7095189965548565 1.163869498665241 1.503817185724094 -0.04748467584452467 -1.0183273160088073 0.9621258291165752
Ni 3.3391549011113995 6.117872432151857 12.36022184832504 1.0272215331746437 2.18635685647317 0.8019458450581479
Ni -0.02057929569621718 5.523436414148697 1.2091372990946336 1.8095763434747416 0.8822411396747902 0.1384356504028003
Ni 6.701760649030705 2.7869193238586614 6.734357233731163 -0.7446770932436658 -1.1351266190887548 0.25827605430191647
Ni -0.11725146316357805 6.843417063955027 5.121947572193791 0.9958926411543751 -0.7964387991969897 -0.0669633533944266
P 1.6564665891756987 0.20403622160854293 3.777307050039122 -0.5699444081820443 -0.10984935412467532 -0.4094085834460949
Ni 3.8234855450314376 4.004165129614446 12.088424778933305 1.835866387519522 0.2604661199746998 1.849464952139563
P 3.071007998973893 6.938642834175394 9.880701655341278 -0.5786038836292551 1.2823600702888431 2.2667457392448833
Ni 5.899130248240223 4.598989070250899 2.7036517306222234 -0.5461707028012143 0.120031951084632 -1.609492324132525
P 6.010584115286699 8.598295930696002 2.6600556920172624 0.681184214896343 0.9643418629312875 -0.8689068844597294
P 4.496281934959874 2.6646498043458378 7.72203596685579 0.30516346288207447 -1.0162876598709594 0.5430085030231487
P 0.6106262461912575 2.636017419507512 9.362211652683799 -0.00603695022269928 -0.03832332106023077 0.44068271096902817
Ni 1.4060440568784336 7.890180108631516 11.203362665818602 0.9413042643855338 -0.6952409500997252 -0.9772626847580136
Ni 7.808827190677977 1.1590204657490728 8.657887312547098 -1.5630211771541793 -0.01391121076445346 0.16199621133155973
Ni 3.270307869954987 0.6153210336794255 7.9452752824376764 1.0261398700746909 0.2632483107055273 0.672650466393719
Ni 5.8157915358543475 5.003010492826021 7.600386199930918 -0.7760612639819022 -1.5318704625829875 -1.4338111591147047
Ni 6.2580418103152216 2.88305948314322 13.739347768954179 -0.9044300170670038 -0.35255917855721863 0.5287301387272635
Ni 1.0027522983040307 3.7727508063485593 7.48730675232588 -1.1490465716039566 -1.2184355037207402 -1.4639426883927626
Ni 6.096739884890538 9.205404088053417 4.7754088948702185 1.2281697002893688 0.4190245092693041 -0.8258576186787391
Ni 2.549325947219601 5.488394069607855 1.4018498743122774 1.0516848084233306 0.8076022720129767 -1.1005095432355176
Ni 2.398350152843062 2.0332133561290218 6.632402853073789 -0.19246121268963629 1.2813275152592707 -2.260383287361965
Ni 2.0843360174451933 5.759635116558535 6.391765207388692 0.14570107371596197 0.21535431523772589 0.14915560792346572
Ni 5.506109203194923 2.0677754155048325 9.628777308277977 -0.09282967963822722 0.44645612311769556 -0.2403744914311473
Ni 3.354884240266131 0.5646648031485233 1.275098924759597 -0.37544019692045016 1.6040855512946568 -0.8055654440886062
Ni 4.672297211690187 8.191522104675133 8.570694311711858 0.8821478086300356 0.5734943303168316 0.15264073825858873
Ni 6.301221293902051 0.5053708286496205 11.546711141295996 0.18303889093447187 0.5077100848321707 -0.8946066032186786
Ni 5.774607082953027 0.6505287071520749 7.208966721185931 0.003614971044767968 -0.5982278285077698 0.6935447933442249
Ni 9.304231997011508 8.702527047760682 13.785714683511237 -1.4444033328082544 1.1244318583790698 -0.4977743137756976
Ni 1.8329621510710417 0.6870922625906167 9.787182744707403 -1.0196930860080826 0.1947734057625807 0.19085658720667775
Ni 1.3302513633354334 4.337353726600819 13.150833112860646 -0.08514593784072433 1.31883605372769 -0.9466698995728212
Ni 4.085130124934691 8.576387538168097 5.890564547046977 -0.6095049440834858 -1.1472966787923855 0.9504499354405437
Ni 1.4422686418255022 8.931604598973633 5.966307364822839 -0.005163803589126591 0.16924672224638596 -0.12313938636536213
Ni 2.7900411774313563 4.150809121252541 8.787039687924928 0.7121307838765284 -1.1705703046083453 -0.4223070366753179
Ni 8.581227334831093 8.887880176449558 4.2309770279239 0.424472676868069 0.5369119032071076 -1.7267287147498909
Ni 1.1130608699569735 3.8561264637471284 4.944738047928124 -0.38902462047310427 1.047272538288248 0.2113850461773327
Ni 3.162400724127194 2.4627176012102527 10.800398794231864 -0.2699671174865996 -1.3455783548185407 -1.356855984614889
Ni 4.135717083566791 3.26685351126804 1.6985469586348636 -1.3628715946813497 1.2683431871844606 -1.1567945909804915
P 9.01679056199424 6.034792334854844 12.558263741623882 -0.11631130769993517 0.5526915346388674 -0.7909834325093733
Ni 6.299466405799056 5.247771201927836 11.933857929322851 0.07793887856932384 0.26956114029743256 1.1979669514537434
P 4.635259836463836 5.192362919139089 0.46545820781031194 0.430229119735872 -1.6140416340661041 -0.13052230909299456
Ni 3.8820988076714418 3.8790785528836573 6.148491535047835 -0.2981448654723962 2.0954225940854427 -0.7865732192568197
P 8.578170135030613 6.319204278831154 7.078421518829513 0.2196871382851249 0.6203249175171252 1.1526911103350792
P 1.2426270294769834 5.444798954628211 3.1464940489115283 -0.5580741391070195 0.6929701517876776 1.4156365450882071
P 4.574171257973292 1.8898112893548786 12.7094778313323 0.4167711944587532 -1.0746324183584397 -0.6445071711902836
Ni 4.854195981692117 7.154327818286548 3.694088408944505 -0.5299799519739647 -0.32172933766055556 0.36734944949251574
