# total energy = -340887.0098968251 ev
CRYSTAL
PRIMVEC
9.11465201098262 0.00000000000000 0.00000000000000

0.00000000000000 9.11465201098262 0.00000000000000

0.00000000000000 0.00000000000000 13.34021454122224

PRIMCOORD
 96 1
Ni 6.467948435253003 2.260834729628768 11.275295696353503 -0.03188553585468702 -2.4688200495442514 1.1440594028020104
Ni 4.497652351355019 0.4398703689727043 6.197050041555746 -0.722585146440633 -0.7390705456901658 -1.5937322330847907
Ni 2.8478547741652664 1.4956870419276094 4.581216391947454 0.7351830377103016 -0.07740588888398926 0.9087345579796284
Ni 3.0815271063462215 4.622413707320729 4.601200266359698 1.9680727691831588 -1.5519335518814499 0.3195719249979206
Ni 3.906375764355343 2.8380565233131962 2.487536175994222 -0.16637634267712637 -0.33503711051305524 0.6550569216816718
Ni 5.299796411343205 4.899380636289902 2.450064018875123 -0.6285210801746725 -0.7352663414527273 0.909327197258305
Ni 5.283763738553631 4.200578500172203 11.717697204174224 -0.07276890433261016 2.5138503503110123 0.6526868787875985
Ni 5.4801844881928075 8.085589520344056 12.471339466712065 0.07706007550879632 -0.4511352737609198 -0.597452640904642
Ni 1.9179324084141292 6.737614528005889 0.31154336116203624 0.2338922261409133 -1.6864148456221923 -1.4004261558963558
Ni 3.125824314849534 2.101127798066 13.28390521974607 -0.8314675086663486 -0.8540253393622065 -0.1301528415687178
Ni 8.149665523590619 9.203793251538183 6.896917680487032 -0.4319715563482754 -0.04087462672717476 -0.5101721732194181
Ni 8.714227065708975 2.431825600312339 1.319990276439458 0.0991247686183196 -0.042246824484353046 -0.3476643123587625
Ni 7.004901696598411 0.7200301605218582 4.560578996990004 -0.9355007703298791 -0.6576658200594286 1.1353562186010577
Ni 1.1300801226920336 8.192559075692797 2.4029193931009383 -0.4860611391038274 -1.6614951995623775 0.3508388534320022
Ni 7.898757384561975 3.982793006349536 3.6314195276075347 0.6524140847421861 -0.07182299547957308 -1.5107722471517917
Ni 7.658039426419484 3.9328629429377764 12.614733905670226 0.8704750002777977 0.24847243794793336 0.3974190151843865
Ni 8.577525515681673 7.029939645519935 9.33349474886373 0.0023613011433249657 -0.4557095233951635 -0.34766791190318835
Ni 7.10631131425435 0.511410360705555 0.21674551203455492 -0.44406114052295775 0.9100581618870583 0.14331149043786287
Ni 1.8493264231457263 6.620445677119039 9.579554804517286 -0.4597494977924921 -1.4393506008756953 -1.1360784414790628
Ni 0.4331802144374302 4.813866971644206 0.9066462790525959 -1.1960198550297014 0.561889913308684 1.8097298383334706
Ni 6.419595206629531 1.7953038810059863 6.750762413451574 0.977665319513071 1.3053768428989907 0.11362244801386237
Ni 3.5800803390034686 4.372608441178691 0.41330662731384504 1.4361845444428878 1.766933054882918 -0.7663944303160996
Ni 6.376920406174282 5.828364192889631 4.9256873447636185 -1.2124330062804023 -0.198652943322645 -0.2510075456649612
Ni 5.89501052798762 2.943421899917785 9.027229682649073 -1.074309230691066 1.4226744257715949 -0.595305255544336
P 0.15605833638501587 5.788241494981897 12.379558567381824 0.08948338887381363 0.8636237816839192 -0.6395539409500663
P 4.149490875962107 6.154914828496257 12.352865397665198 0.28185281318059197 0.3754203994261083 -0.0630475632797882
P 2.6944460671036894 8.476380222932441 1.0527906085057077 1.3315416742198165 1.6613977547525647 1.6305257477640567
P 6.096043291516237 7.98820857885241 5.743909650801154 1.9581706795780984 0.23697215061781768 0.5567551631852798
P 4.735754404386306 1.017404795219203 12.45578531315015 1.2899628223367656 0.8310615314771816 -1.1898798035702347
P 4.34725147943873 6.093071914978771 7.981624154279819 -0.2647477780691892 0.23438279262408668 0.4546612846363073
P 4.94299424589656 0.9622976094967686 3.6562988815850335 -0.8749173523198674 1.1383929485448523 0.27574438629000897
P 0.13659490859942433 6.061699282948236 3.3357338379175285 1.7540531135964565 0.07525618953083812 0.04201773919268247
Ni 0.6321220768074746 9.207712551879013 4.555723621893355 0.3367990875094845 -0.6024439234716463 0.571177766368513
Ni 1.876998506482364 6.523848595695559 4.697636018443568 -0.7735212711688679 2.768496521169826 -1.0708145872742463
Ni 6.195821386472156 5.712744832835202 9.136059538461915 0.2158867907024282 -0.06562817952277084 -0.048565053392897004
Ni 8.694676137264612 2.39399979469737 10.202822908415271 0.48169360616375106 0.29122371287253074 -0.08447745101879
Ni 2.5081699250908884 5.703766900659119 6.78735409519178 -1.238181575999416 -1.9333798457866636 1.3973305476901676
Ni 0.507711634942048 0.05319857760297071 9.190126742396236 -0.35570492327505193 0.5871232339541759 -0.6954260695273378
Ni 1.6897379820583784 1.203799427707424 11.135703890191138 -0.44655048260371477 0.5769401227735871 0.6837907992812546
Ni 4.324300785814996 7.011956437211903 1.5926477979641105 -1.325206476030408 -0.12522506524979723 -0.46128058972503777
Ni 5.6284069582917535 8.295244744622494 8.03459759997949 -0.09011562314117383 -1.119005545157176 -0.4760798595213995
Ni 5.699683536583094 3.368410776642884 4.639006019740366 -2.182252090276177 -1.0062127921334607 -0.38997078643645744
Ni 0.675732952018545 7.560175408374202 7.019967304815515 0.4161106780566189 -0.9380173661041459 0.16002211832432442
Ni 5.4574981194757815 4.572975835114563 7.065324547341244 1.257805006657298 0.35838889786511824 -0.8416069110931957
Ni 0.7831527711738839 7.8058243932245714 11.498144379337402 -0.21440583528152754 -0.7411210004612914 0.3953970996583513
Ni 4.84510288389541 0.20376898204563168 10.125529748368164 -0.904210959077662 0.8282687992233928 1.216345196850615
Ni 8.0971104404157 7.395756201750484 4.792711864455689 0.5227590087454933 0.9032118283891863 -0.08614455430856775
Ni 7.411260224726645 6.810012208487744 7.197232701905194 0.00960615563119636 -0.8275424625803296 -0.6036597981566184
Ni 2.4072616132924978 5.504165137487503 2.301693891414499 -0.5040112958243449 -0.3259860560543805 1.183548462035568
Ni 2.4232760567781604 5.18086843262896 11.40028036129212 0.7266210070729034 1.0685800415167725 0.8076328681405962
Ni 1.2814744916714642 3.3968302614398658 3.9020927894014936 -0.75139975667948 -0.09672335826567859 -0.7604104448185227
Ni 1.647528028852855 1.4574875355824684 2.5368017812784314 -0.11683015631788264 -0.15555636924348695 -1.042963883610565
Ni 1.4289495603100664 3.775106546893467 8.235434398491066 -0.7303606766209938 -1.471445424527711 -0.9076485240043013
Ni 4.152453137847616 2.7632525747151115 6.91656795863771 -2.4568875597727233 0.17231456253843225 -0.8217734213070363
Ni 4.112485389023125 7.074482949626044 5.796482963279983 0.44172375063903274 0.6498581510895518 0.2924953804961027
Ni 1.144326323698346 0.42541544243661283 13.443334154424198 -1.4177795595731388 0.8694511869989736 0.038080351811489256
P 0.3690194449276828 5.479774328854814 7.885093609815613 -0.05059313956651931 3.349675107504793 -0.2283946933614518
P 8.77362725250241 1.9032851627217786 7.9980852157112965 -1.0044145625824572 -0.27143007518537127 0.32292335796865673
P 1.8921014847724853 3.3658039861836357 10.445320958084656 0.6619868160322857 -1.1913677009696708 -0.9210349726135364
P 4.219017441078006 6.291124187317967 3.853040466973041 -0.3823598068584189 -0.5543085014170002 -1.8387627352307108
P 7.165438061489122 4.134314980456342 10.43339534746619 -0.46892576497512145 0.9265741572642107 -0.8537990822840135
P 6.751878958316112 8.05719737950294 9.950065406504876 -1.8965655051717916 -1.6094023355218796 -0.5152303044686158
P 2.257845123787392 8.621257615763751 5.938530256679137 1.0301901288846647 -0.31956549724001737 -1.012182122343018
P 7.04537075128045 4.06121547177392 1.3875025034732111 0.069355507775687 0.3571635100984494 0.31534657406266337
Ni 5.443570931287909 2.6911374484438744 0.5522932205863701 0.45352974213502534 0.5136868712408958 -1.1681313561495497
Ni 1.4945385957812274 1.2569925365192216 7.104517550749525 0.381532168750801 -0.05795369369664858 -1.560142055834171
Ni 6.980747868916564 0.9172803434889777 9.09577186535379 1.187473251011271 0.00017252102212228352 -0.6090807120618736
Ni 2.592124984252209 1.8503654934686435 8.969226772000404 1.5949733045807435 -1.1057412239481021 0.4147742186333825
Ni 6.53145933007833 2.1614029914471544 2.630583346712884 0.21974395966498927 -0.21657430368775601 -0.24250696439311784
Ni 4.286456750896116 6.949001536155857 10.047249471514284 -0.21194914621091887 -0.16124133544340616 1.027112004179973
Ni 8.706197057336256 7.62207300980342 0.4498335950251676 -0.8560606246246805 -0.6962876461966847 -0.3515168533356333
Ni 7.830178743249437 4.141679619236317 7.892030771418879 0.09563938117288046 -1.0250417519145056 -0.01483038014461317
Ni 3.034395241084774 8.567280646883786 12.233069704084796 1.1072316924506995 -0.2890161636982506 -0.4846848275815911
Ni 0.24765420828056015 4.811506276787753 10.30080632840117 -0.9665545543118903 0.4184411259620084 0.13274091401086818
Ni 8.832589936001984 2.2538437915789653 5.628890034845392 -0.09196938852046097 0.8159372742412334 0.40260184493690665
Ni 4.00896117211353 2.6551892611317203 10.779106804413487 -0.5097389423367414 -1.4942305407430265 0.49714207950833733
Ni 1.144189603919015 3.403283435024299 12.460347196453835 -0.951938089950296 -0.8806383139640446 0.33545234367360294
Ni 3.064145465067246 7.817773701938119 7.916096186976759 -0.13964509732986916 1.8877466213285812 0.15984831175062147
Ni 5.720200618134731 7.949015575444128 3.2992351256272676 0.45918411220732536 0.26254151444648977 2.3197775701598826
Ni 3.377953817240203 8.37557217230556 3.2952729864222494 -0.8606292178319694 0.7609148952587669 0.9843823265219306
Ni 3.585011365711348 4.2740152509769755 9.002149806328555 0.8112383261036674 0.672216464180094 0.20495317450905992
Ni 7.200575044777245 6.340908416298441 11.251497340097915 0.5928753059466048 -0.542859121929478 1.3219416892362073
Ni 8.01110458456441 8.753802884499384 2.54822152871337 -0.3043844186242048 0.5858682785011522 0.19915302288751507
Ni 4.753491517091542 0.478392533997067 1.4009356775251007 -0.5270977453301632 -0.38492551070306613 -0.02345360303724993
Ni 5.915172138112997 5.9781634977768645 0.3562534633989296 1.4653555095798891 -1.3469420679352868 -1.3373353980834584
Ni 7.971082147828186 0.06482613910249266 11.1920935074437 0.556853636436357 -1.092908333849492 0.0027793625173500518
Ni 0.029188761422018542 5.155611732060507 5.357229656244661 -0.03457542398202432 -0.16687050870472553 1.397381198422445
Ni 7.35275327382484 6.230147165736247 2.492151835744444 -0.012524357719255851 -0.21528772366584858 -0.7818884121866405
P 8.668507971500617 1.6604434906736771 3.497671124813787 0.341812738673992 0.651210294242072 -1.3696749907564283
P 2.0282379263785524 3.376222033368674 1.3861152534455972 -1.2305749672967519 -0.6608771279078747 1.0005095711010963
P 4.732755683892974 1.208858059542679 8.172281709487587 0.31789582284707835 0.05027740809831341 1.4666492886906484
P 8.51869955196143 1.6232648253475426 12.357400848478212 1.4532751813765876 2.330699616389025 1.4135830049932883
P 6.346659761682306 7.945980396342976 1.3131223861910535 1.3111350855390065 -0.7867395696313547 -1.5753131071476547
P 2.027444951658431 3.155374016488987 5.95624549421968 0.44887810229562697 0.27735955329592876 0.3706985684704067
P 7.319812921657973 3.954309718988866 5.712119567711061 -0.14255481477749643 0.041636958814496035 1.6675609461404828
P 2.3774840453541595 8.556415981752933 10.049503524942859 1.2571874276779573 0.8236827225146073 0.055540970490097895
