# total energy = -340858.6232975089 ev
CRYSTAL
PRIMVEC
9.37377144365308 0.00000000000000 0.00000000000000

0.00000000000000 9.37377144365308 0.00000000000000

0.00000000000000 0.00000000000000 13.71946202312738

PRIMCOORD
 96 1
Ni 2.736082045656675 5.175531091779949 9.069072383222212 0.3098007045437697 -0.36402681287718597 -1.4270879814582584
Ni 4.645491181569298 4.858416401490333 11.055114913386229 0.7509734677753389 -1.705986854216849 -0.5340934599217059
Ni 6.545226585280357 4.36264699993173 6.044699057301683 0.382028134550613 -0.7870984956326703 0.884000288457742
Ni 2.448963424209115 2.7359226915409516 10.338780668123379 0.9411376569006824 -0.31484469472558035 -0.13407865898568522
Ni 8.0550974579883 7.146300936017605 7.448954708993895 -0.37062400647872945 0.7231937265589095 1.1463335435481676
Ni 6.722822060368358 6.174578285879182 9.742972502222218 2.3591475873170724 -0.7040559772881939 2.1873675571258713
Ni 5.852936063948718 8.78399255707876 2.423570814557163 -1.3015320152316037 0.34920594581426956 0.8269521372944985
Ni 2.10342745869165 7.698903514260392 8.250033472998464 0.70872304374656 0.441348112467169 -0.28095266996382584
Ni 0.41735967760546694 6.555622097888432 9.298434511491545 -0.9743604235095543 -0.9726362417295958 0.8500385868003166
Ni 1.2788823950810808 2.032505503423212 1.4904137351781124 0.17819493257860924 2.9520717442237414 -0.486500283523775
Ni 8.716923221902224 5.5225574869680045 4.6486201465003845 -0.3483405124901807 -0.17596192948303244 0.619418860763088
Ni 5.570354347913519 0.20661198480693418 0.07765326059202521 0.6028499006608133 0.23766069204441004 2.0368896308465563
Ni 7.240469844638636 8.040914941688914 5.459028625291983 -2.670661675007523 -2.7597552846420856 -2.498178190991394
Ni 3.9047663828292505 -0.10030122994492921 8.815440623128204 0.15980820254130543 1.3273605462589333 1.5386610031422596
Ni 1.5201726476008866 8.784067547250865 5.775756178818106 0.5342806362318476 -0.5870134478491891 0.3629382077986975
Ni 1.5102645711114946 0.0877450630030746 0.4967705203562064 -0.7505158114126301 -1.0858606829740913 -0.7990420411477916
Ni 0.18812878213731946 2.174789981221205 7.136603769387258 0.4663847437208226 0.6041063987757338 0.8630609672019135
Ni 3.9539974308162757 8.611740131753251 6.72589759480182 -0.6995349494893888 -0.8798366439983557 -2.1334857195057517
Ni 2.9394366448627918 2.806441574634324 3.9991133931090315 2.8348798336910663 3.0326696576824674 -2.288656937495678
Ni 7.0420458492484315 0.8525698283034114 9.481877345249442 0.5375899031107386 -1.6496714674545718 0.058141384227422446
Ni 4.836425533520501 6.000985411227293 5.546654641396841 0.09794720337045068 -0.021602665871440215 0.34596841271357837
Ni 4.273418068898126 5.236648082045639 3.102848666274257 0.6881477906983697 -0.758765710126248 1.4338214435273502
Ni 4.958509533707671 2.0408481600699093 5.94550768190391 0.004684035739230643 -4.00996422411968 -0.23570948185531018
Ni 0.2273402057539466 0.7900083398475459 11.085586232444005 -0.5379231180804412 -0.5392670337028455 2.081739954392028
P 0.7790044694682677 3.9976042158954153 5.320297744274622 1.7721585649479157 1.0388352061541721 0.7714623317573102
P 4.976441558612312 3.391917969573702 4.552954246568704 -0.6232680593058492 4.578523064808108 -1.2276505945611051
P 7.450526690476649 8.410007195018908 0.9576976132004579 0.507694658213203 0.19023412313133045 -1.288149937497743
P 0.5544885810712311 4.0904607965046065 9.2920547225997 0.9432734722967625 -0.02921235989789808 0.007593496076541762
P 9.270519419925405 7.498698502282689 5.299691382357281 1.215829433556461 0.2876128555928208 0.05485628571824746
P 5.77831146893259 7.37279937708967 8.074082157433867 -0.06750611327177405 1.7674349342200013 -0.17325610051609516
P 3.1480218085732425 1.6839043146209494 7.2814257271338585 0.14853185829653776 -1.4331215892468478 2.1000904318747575
P 1.5814677395253263 7.136046029982227 13.46185137168294 -1.6996773670590533 -0.7819999980638404 -0.05363141217221087
Ni 1.0889135415957316 8.631021979755785 3.2458464880843994 0.5898534884011455 -0.37900837388768277 1.0000948521611808
Ni 3.484708933782301 3.7616476393665885 6.387178235928712 -0.1504830684856376 0.7596501696137304 0.7322959459704936
Ni 7.926808021059428 7.900439601792959 2.9768211204115076 -0.043371939227731755 -1.346544832496868 2.514861050963714
Ni 3.168812833789393 0.31441598147098276 4.026360134766283 1.6260635982276446 -0.3186650969129351 0.1604108691223108
Ni 8.264723110336709 8.21548268857817 10.396141588143754 0.3793379893129596 -0.970902803978257 0.08913269040261423
Ni 8.945661994365931 0.5344268352788031 1.9971007684180724 0.03358426371334861 -1.287932679280614 1.1674412720610603
Ni 0.9088190190223266 5.648672208905826 2.9429621203288847 0.05953672191305231 -0.24837679291033352 -1.0620939195717967
Ni 8.351580477177489 0.9857364385505701 13.619515396402546 0.3434770137502923 -2.6512593592215112 -2.1206615711578896
Ni 2.58702033105468 5.111864435662684 4.573396567484566 -1.6176113536952335 -0.15390160724888333 1.4043270336126588
Ni 6.9290544074290095 8.854342712284895 12.155456957210784 -0.03967186466832522 0.2837641712706919 0.05844477440045418
Ni 5.36353145324754 6.646744530767692 12.679801363850052 0.20647141092579924 2.8032228689074175 -1.1546492625027147
Ni 3.145809598496141 5.935931436926083 12.469399563220353 -0.5033638920483331 1.506940017889895 0.6562401433564956
Ni 6.138676740983846 -0.023740951111336443 7.097118631642448 1.0269304842967864 -0.43962830156258487 0.5126178065464333
Ni 2.544060336209947 0.17907371885562365 11.207895203147489 0.6502466447772219 -0.15070058381308238 0.24140807490198427
Ni 5.542936066237576 1.9620334891874056 8.040524055416817 -1.9629279917574258 1.1518058795166484 2.0990082545541724
Ni 4.155805357722724 6.940612267704715 10.20342434485075 -1.7981264497665872 0.0721217576669145 -0.31203653585282387
Ni 8.153850140879257 4.797936827687537 8.2625052759967 -0.01869449108570974 -0.5891721460634046 -0.1954326366131344
Ni 4.776367779435796 5.9152903920541435 1.0828993297928993 -0.5587655087470893 2.2608900517950548 -1.776968584742049
Ni 8.858945234097849 2.138532233008369 9.516368137532051 0.3553560245760654 2.416600944338535 -0.7473415274497065
Ni 6.689451433781571 4.898067454990927 12.747822136835172 0.3939855640228053 -1.7544884013616624 0.3853985936847427
Ni 6.689498302639136 3.1643134234630845 9.894490144960653 0.30948317330335084 1.8658428792769541 0.5549787880111474
Ni 1.4737349835247775 1.0252750067930059 9.134266964096119 0.9992479307798533 -1.0977846881051867 -2.155863315870003
Ni 9.122470072646829 5.848642876595698 13.537226805797271 -0.5810361472198317 -1.1200658681008904 -0.899641851649741
Ni 8.492515131877589 0.15542275595081337 6.245853632333665 2.119208640761447 2.1051231092026588 2.1726017116706067
P 5.54524201402981 -0.08417646818802119 4.945948679880059 -1.1169376068845538 0.7378801249264906 -0.9109475064705472
P 1.4529064632225746 1.7392376878630307 12.804140693463284 -0.22043790040822037 -0.044437147267452494 -0.897808655095744
P 3.146868834677126 6.026172735283108 6.852171670855365 -1.1391671077067156 0.5471047845797093 0.5743939593129656
P 1.984258701445067 7.06832053079977 10.719509521409787 0.7741203382054475 0.05772229441213284 -0.35976752338019974
P 6.596697964659024 6.05081638059116 4.241234161784901 -0.08484151922642807 0.7965928082763507 -0.6990384694689445
P -0.012794260738288432 8.81044534028885 8.723273014725228 0.6100145367300527 -0.02541304075646591 -1.3392213022522614
P 4.574475488585729 3.358556716758427 9.38518220520562 -1.451066346650727 0.8198839175938073 0.5166055875495877
P 9.13854609079187 4.332407213030332 1.3891366956186648 0.3243109823448027 -0.18177699350291274 0.6682852474464878
Ni 5.915121664166906 8.206446372839501 10.186851516815516 -0.7791694705935807 2.371142040674788 -0.22821265925763276
Ni 3.601374894034875 1.7356944022310627 13.36493782276286 -0.3454282239393922 0.5507017579023483 -1.1086838515161939
Ni 9.055335121069701 8.134305827274355 12.901549177519257 0.10288192166790669 0.3197850694499912 -0.8333189600527907
Ni 7.694029153073557 0.7537337188459864 4.037212150047048 0.8320130967571735 -2.0182599315605114 0.6902452966573467
Ni 2.6089924514814866 4.9208644673108894 0.8547482928030659 -2.3654799572930036 1.1772022081025661 -0.19323357207928657
Ni 0.079334915201483 7.390028369130827 1.4286762012382521 1.1398001133050242 0.24388584701851548 0.03229022749227342
Ni 5.875067538491248 1.838674656074448 3.5458221745393863 -2.368274232208689 -1.339340601438945 0.5258402187739782
Ni 8.770166244096874 4.45167908176356 11.10860727790313 -1.5103762972649537 0.7329703463296989 -0.7846939999562357
Ni 8.023826556220456 2.537067502661143 2.5956535746182845 1.9458234708666553 0.5348863881366465 -1.5490186922275
Ni 5.756311227191244 3.959546703552056 1.2359477094194333 1.345297076132696 -2.4502721113387347 -0.5157039016709247
Ni 6.915921753539097 3.97837861052196 3.7802742607403537 -0.5818020788515786 1.4226566851597822 -0.49618408647044226
Ni 1.9730382969438351 1.7058389399617033 5.53105574822182 -2.0080063721533032 0.06279405250808541 2.9016518970102934
Ni 5.08259014722714 1.5393701316598027 10.715283825211664 -0.45681509775451645 0.35171868493379427 -0.06660031362805305
Ni 7.121151107047842 5.5917359207349975 1.7154264334653455 1.7671636828364856 1.4613116785278188 0.6360605830848272
Ni 3.2337449490609322 7.3635099695201465 4.388266454854301 -0.571729267996609 0.42535842190713197 -0.06713664574749728
Ni 0.536761841762727 3.7190344740678416 12.88625211978696 1.5086929960252597 -1.1560571985938346 1.3848403856429572
Ni 1.8174336898256669 4.736716725935202 11.164651183025907 -1.22626091330243 0.5460184934940661 -0.2178169178456055
Ni 3.7349136430111054 3.249980321321696 1.5970553841745312 -0.5539380054514589 -2.3983628240639536 0.9701916368438452
Ni 7.895555866834611 3.0011441827338103 0.06406972829233015 -1.4235547714940193 2.678767077723477 0.39550508599112527
Ni 3.8395811757268565 0.5356060557351564 1.6243564937065593 -0.7899922722406976 0.2233447896423702 1.6728142241196222
Ni 5.564870691578331 5.331726246503446 8.143570863037946 -2.1956691350130315 -2.5458307598723513 -1.3398180552959957
Ni 8.6582059171439 2.6727809666284226 5.02185841897064 -1.206080581699813 -0.6666896208245938 -0.2009160283252088
Ni 3.2887502403000535 8.08739947462259 0.2145431328842042 3.0152206089680846 -0.30810351934700486 0.003571005180709979
Ni 0.7737392220093355 6.130015376105702 6.939152771480119 0.848913729167254 -0.9808807411265753 -1.3863133706440576
P 6.315091120861191 1.7378972385366513 1.5607263952981953 -0.3235807890469976 0.1483796489893896 -2.6428857904458356
P 1.417848557763421 1.558389514059969 3.5150218361015018 -2.425839175107351 -2.5152163774206038 -1.5226458586609262
P 7.233720729149173 1.8486389751929186 11.649140187945594 0.7621914479783454 -0.06539883712078413 -0.13845133413208413
P 4.61093008600034 9.31447303455053 12.000893776107727 -0.9695324059932917 -1.704387113829897 -0.5774782546652443
P 7.728674612586133 6.492274150002614 11.84683771604353 0.1264280844189629 0.8435501508624955 -0.5383062124514728
P 3.71500375231719 7.470370964769972 2.3336800952547296 0.7369221318885953 0.6499910771229902 -0.09894453428671347
P 7.39558701563812 2.1534084083997262 7.191097252701762 1.787997074642069 0.2803677439946333 -0.6622966339632207
P 4.26024791992216 4.136279791660848 13.189273344606566 0.5673360240249197 -0.27069396835029513 0.46971380809405555
