# total energy = -340874.8043646083 ev
CRYSTAL
PRIMVEC
9.24256444339952 0.00000000000000 0.00000000000000
0.00000000000000 9.24256444339952 0.00000000000000
0.00000000000000 0.00000000000000 13.52742731564411
PRIMCOORD
 96 1
Ni 3.8709707135504745 2.388121450454401 2.219350380726178 0.26695686990536605 0.916971086956808 -0.40755430384617547
Ni 7.627703334317691 6.904583601050985 5.696872532843882 0.9181949320615799 0.28804017293822654 1.526336420138636
Ni 3.6904541933118176 4.5020160228441375 6.18855383873687 -0.256819524361048 0.17767171308528756 -0.24381694145379298
Ni 6.969235337217561 7.689388207394994 12.660697273013279 0.540699652384314 -1.0890246825243697 -1.0981155890820444
Ni 0.06270894918412984 0.481567167953448 5.583540211346446 -0.31456161626752277 1.104873476631168 -0.09404478299225094
Ni 0.03498310527383732 1.489198904660968 10.402185223765098 -0.797975033335858 0.1036841058542279 -0.29517704109332393
Ni 5.0751474252300435 0.8219865176269998 6.211997602680619 -2.0181740567149244 0.5237056889294787 -1.3293837473365493
Ni 2.364358818047786 0.33747282022538827 6.769895410849262 1.2160672605988798 0.26264872944831535 -0.727197962622296
Ni 7.0685097186564745 6.572341147873011 3.543590773367102 -0.17805660722853206 0.10146421538477363 -1.2638584119402299
Ni 8.79056578428681 1.0476169176944883 0.664278797175602 0.21421017433095368 0.006808538281401177 1.599429540579884
Ni 7.06277932888903 4.264325000829006 8.103875617582014 0.21123875040745554 -0.355049291968924 -0.42517510225173233
Ni 5.674204220031567 3.129097817641597 6.229245151624214 0.44353663547805555 0.3065870827024784 -0.3821410059793935
Ni 4.249462957690213 2.573573499944373 12.702308221032656 1.1021025987542503 -0.7675113175293621 -1.0211043645333124
Ni 8.235059951717869 8.160685038074918 10.608506058829125 0.0568774299133343 1.0417346391891544 -0.7211437860084161
Ni 4.004220760771851 0.41700508465903957 10.242440442177015 1.4072547487824152 0.9380322785024813 -1.0257308075617302
Ni 9.218505746581114 5.676884563632468 3.9968267094590195 -0.7799554568299859 1.7155032783477164 -1.4027568609120615
Ni 8.18414266586488 2.301490896760431 6.928612419304861 -1.1624011385339916 -0.36070829002691424 -0.6078964619457853
Ni 2.5703848153157143 8.296042389920453 8.81430900730873 -0.9563832702058431 -0.14781940561054543 1.0721929556790115
Ni 7.951202321818241 5.98298904541958 9.59108090115776 -0.9796777219574098 -1.415648115052433 2.243004429763886
Ni 3.330336166684466 7.29183779599643 2.2570101325752607 0.5163631325214784 -0.18643197577642087 -0.3011489424060427
Ni 4.902745876307219 6.463722534087506 4.39667112527739 -0.36553502199159627 -0.08711565997258545 0.16843271098552282
Ni 6.178302910848043 4.355188648899572 3.841356613786167 0.5156583931449701 0.2946638489023312 0.7960806445266226
Ni 0.42324658822348404 0.5944974379107482 8.139141545318568 -0.5802501609834265 -0.24268719872472397 -0.30158885815693864
Ni 2.026173396127124 5.79872004413966 0.24213114982848763 0.9659948251536783 1.92233104417167 0.6206396205440666
P 1.8584300995313847 5.351999191510763 2.540098781138354 -1.0754358880963413 0.4173514924422554 -0.5537989087704334
P 7.022278412822991 0.38457939688302806 6.856633178287268 0.745423227381071 -0.4348144251137092 0.7365745187411896
P 3.472699382148909 2.421440894182851 7.089116015408924 0.23677623255692767 -0.7748821560721365 0.14832514160237037
P 4.926952151792604 2.652495755144716 4.029590675082592 0.4372279196512083 -0.49548114686614664 1.1554902703467713
P 3.6452950249186946 6.171149166202877 9.42263701820013 -1.3426879206446232 0.1435431468326947 0.8580897392395673
P 0.273889524473516 7.703279781298978 8.568989172851582 -0.11395926252799084 -0.5519271456690172 1.146378280743174
P 1.701666969135201 5.407556244562556 6.649325237372977 0.8371157080910616 -0.5361963651973217 -1.5045213811460734
P 1.5572796321238704 4.404784248080395 12.253278575881327 -0.7303617050622583 0.723243091739606 -0.18180758963053203
Ni 7.050995059609203 9.124656750292992 4.688511557825635 -0.5090208332237943 -0.4563199032856528 -0.07638464670832651
Ni 5.548570045662406 6.517458802003515 1.0323158527589962 -0.7936710066438654 1.0184347881209492 0.8740791726892883
Ni 6.975464825448623 1.3645814123473223 11.875795619745787 -0.09756642299226423 -0.5228986196471511 -1.1819530925239903
Ni 0.7472132494695701 7.48002564447215 6.432723898214872 0.9201607975386991 -0.20832286231224126 -0.11648614271490261
Ni 2.312794552704923 1.9340065465126706 9.08526309341105 0.26227489104866447 -1.9017755886178216 0.12464348171471437
Ni 1.7544420103805407 1.4943654980158094 2.3354157284401187 -1.1004493794215435 -1.2160011832476347 1.092366345303093
Ni 6.609172765975057 1.4052579371320406 9.16600890651642 0.4311773425817542 0.24448388561383055 -0.3271268545270431
Ni 2.5026275775977487 6.188423518582481 4.485274966415472 1.0038113817808196 3.1985968286373168 0.8841787230171354
Ni 3.9345965250973958 0.27503560242700503 3.6795683012665 1.6011712058613392 -0.08209918059460054 -1.130646214719898
Ni 9.169926829455807 6.221400987437713 11.694636741299329 -0.30952842471898945 -0.23554595969425243 1.3660363655625765
Ni 5.62891565574047 7.712975231082928 6.340372197317597 0.41031978240645467 0.11603748521325821 -0.0978045071449993
Ni 2.841681800547669 1.9039127576694437 4.681829183951662 -0.5711538551091131 1.3499633712601138 1.010216771086531
Ni 9.222045648647134 5.567813064204052 7.8339631684583875 0.4488611330147624 -0.36311304281366497 -0.5087639800179818
Ni 0.22897435977371688 0.13976513068439644 12.331629640617752 1.053580997004779 -1.1230367778037562 -0.36219952986046006
Ni 7.5124393169147785 2.999249034024123 2.304478093490815 -1.4641820580970784 -0.597768629483164 -0.7806311427407717
Ni 4.767702771642481 3.497025810968127 8.60752881680689 -0.5835627702964271 -0.5775440749061731 -0.566928761284172
Ni 8.501735654879303 0.6062022211389615 2.9076117833349513 1.017682483335957 0.20011512969046827 1.1541599815711219
Ni 3.098967058541806 3.935372900485243 10.703779334251383 1.834529928096286 0.7948573136424827 0.002067166941673859
Ni 7.561674456094099 2.3639706303538626 4.635808608580594 0.2949484700222856 -0.19446281650069733 -0.2942956669296351
Ni 5.362350863348728 4.994006954635851 10.30926510517315 0.6291479151253938 -0.11124777713409874 1.4467150116605665
Ni 0.817749726224747 3.781807697281859 10.327527487659433 -1.6024153626810853 0.9533218576717002 -0.5215433911708374
Ni 1.8917125730032704 8.734786909695632 4.27086596347162 -1.0541201573377006 -2.056882529028716e-06 0.5671619603409006
Ni 9.078924542923126 5.2098855252781275 0.39037818162511667 -0.9643552326677262 -0.16806118657871705 0.049036079492044575
Ni 5.948967166816411 1.179536035679556 2.6688939124437496 1.1921146064380244 0.8485308919065386 0.41182233509391014
P 3.705306993886469 7.508825474335631 13.45740907474019 0.37044582902965234 -1.5988857522612723 0.7755889523311739
P 6.9921476537232 5.530907505588878 11.761664740706566 0.06434031394928275 0.43508130562185077 -0.40807366668475525
P 9.024134622695039 7.857205444503861 4.344278726187489 -0.00870961195885597 0.9845257940783302 -0.8643917701981952
P 4.215487291907749 4.007335504887382 0.8077335594651017 1.2908691362011189 0.11745493438607514 1.9293756097232775
P 7.1695771575387495 2.2803439100057306 0.20376064479695907 -1.2559972640245982 0.4582541441938882 1.077654235903899
P 2.3270558291745482 0.9416231921250389 0.41974920195251436 -0.5799593692158851 1.1212873992128174 -1.4643316963010653
P 5.6363744050022895 8.299083193522854 2.866880727421801 0.09386429155032866 -1.2364103430316062 -0.19355290309191825
P 5.168423382541421 2.5042450263224305 10.544832185948673 0.11973601711076798 0.470016684046455 0.4327102342865129
Ni 5.03105115171314 8.83719452037836 8.267827614367098 -0.18801397555156008 0.058086619730087066 0.9679046405818815
Ni 4.224979405280598 5.129900375201566 12.678148158367975 -0.1776899679177327 1.5857772399037722 -1.5956621031176519
Ni 5.392259800909135 6.103974210025797 8.239271788196941 0.5529992956872734 0.08947721822622653 0.06189210951910631
Ni 3.675471996839191 0.1173389730525764 12.418826763493568 0.0748854364549807 0.8141128194379852 1.3801905455757715
Ni 3.9137730280876317 4.908670359921626 2.766372463670059 0.8085682354706719 -0.7067404660988925 0.1683818031429294
Ni 3.5085790161444272 6.984106622920495 7.0272684732027395 -1.557352408904176 -0.5650454282185301 0.2719288691986607
Ni 1.891074836077539 2.229574505178997 11.827868303392425 0.5251550197814956 -1.4291312371405323 0.8946647101501237
Ni 0.3964810467274456 3.5715670907656167 2.240453003173001 1.5266930321471062 0.8601800461096929 -0.0011950487493656839
Ni 6.232741613638769 0.09089876981430257 0.4710130839607941 0.4125926376010314 2.023993748720495 -0.6065083233490071
Ni 7.510914293831507 3.5111854192322007 10.458418832512015 -0.6333233866593221 0.2844575977932907 0.36319326123229706
Ni 4.564486513873429 7.215706795166681 11.37813529910996 0.5403008742839984 0.31013854749916264 -0.7467144353886689
Ni 1.4598537635131652 6.207010315070114 9.943388961085931 0.4788167988365883 -0.27500905078588117 -1.0540836476728104
Ni 2.2451667108849316 4.048233851211485 8.4673708771465 0.08762602395010069 2.7107333462174283 -1.5410891529677782
Ni 0.9243118694888705 7.528854110829266 2.382342075097008 -0.6217012290393615 -0.288736941894935 -0.44267274481586344
Ni 8.948243928532957 2.93604838042769 12.647670803112895 -0.04834291007976191 0.5846860852675931 -0.46516732637395375
Ni 7.218507292101417 7.700497769492524 8.408729580440843 0.21367718464561913 2.085865289414311 -1.421585049362158
Ni 1.3514846989594684 2.8118190758079677 6.5005504551638955 -0.39577093805800223 -0.04542445088138628 -0.12071586452553403
Ni 1.553748972621993 4.282514367058574 4.485518970108795 0.12937559708306104 -4.137001917098185 1.0314198875267075
Ni 2.0662399116785335 7.709500026965897 11.763247067687512 -0.42325680218309686 -0.8605281734777309 0.2994859528813229
Ni 4.172287547112528 0.20613875655044872 1.350138981620533 -1.1400214852872108 -1.0153679762701673 -0.7236323567582247
Ni 7.542440680116595 7.940582615620186 1.732985397727116 1.4984232386681355 -0.1101655998135135 -0.8959232651475731
Ni 8.186037391513791 4.67440832920282 5.7558253039610925 -0.5914213471088975 -2.0571460671027477 0.7808005784391004
Ni 2.279789356157268 3.2031215138471882 0.46276409546491565 -1.4420266050459618 0.012461879912436604 0.6294389640032515
Ni 6.391630533787392 4.5359269906776145 0.16700573997728435 1.0072602595613684 -1.6311435838537134 -0.44541919721274903
P 7.575649213075353 5.201132817036563 1.9005087212962986 -0.5715120097794802 0.12345100406850998 1.341838428160134
P 3.7298182739885077 8.213229015216731 5.27357233774838 -0.17832271640572514 -0.2819034639128693 1.03840300371276
P 8.85648375174071 2.9437751640495993 8.733604785741994 0.38666434777104375 0.18611547297726655 0.898456315982072
P 0.6106608340805993 2.2798355689779735 4.097687114904535 -0.5966494282770562 -0.3536950919338747 0.8555029523489976
P 6.020116425574138 5.402971932748599 6.35226368034146 0.2929340106954181 -0.7265605861486132 -1.516135568346234
P 0.2494752912949582 7.693824638182694 0.2727868865714899 -0.6996066832675887 -0.5407063372525334 -0.8374540652670868
P 1.9188302561930826 0.36969979287236737 10.799634891214525 -0.4619976703967205 -0.7221971669735949 -1.1858161750238223
P 6.13802381632139 8.948659843919303 10.510391619189914 0.06722997679225196 -1.2440596320467479 0.13056293252294288
