# total energy = -381168.8929068411 ev
CRYSTAL
PRIMVEC
9.25192391054503 0.00000000000000 0.00000000000000
0.00000000000000 9.25192391054503 0.00000000000000
0.00000000000000 0.00000000000000 13.54112584188001
PRIMCOORD
 96 1
Ni 0.2706206185607281 2.9879087583738624 0.5332577521621722 -0.06325505130490396 -1.8059729423941995 3.1257073395664428
Ni 6.0298765069170335 7.859472174031778 10.071781066466668 0.6044321575462687 -0.6245800932490534 0.4625437727081776
Ni 5.672705992543221 2.0010338132446943 5.9342088402992506 0.1981636623910523 0.3710767777454319 -1.1565706478951436
Ni 6.325928813339716 1.3611892741159761 3.6410057530080606 1.0679128402464189 1.1966186649559651 -0.032504914606240796
Ni 7.968459835198039 1.018738570346197 6.598184246817938 0.02932883087110433 1.2747709450876756 0.825999800683558
Ni 4.368240262621672 0.3542737370638677 4.019575041703728 0.5216192387140952 0.26751274240883605 1.4356320143735273
Ni 7.381804605410988 7.082754675710048 5.329800094127484 -0.6556778430951224 -0.5332282837079332 -0.5242530767925164
Ni 3.705487960415902 3.2628574268406663 6.4074031038119 -0.44847495331993736 0.8252559805389981 0.07739868979513767
Ni 7.148147272409805 3.440864438796428 7.638427063416151 1.6547355122410405 1.93743524680296 -1.849762428775324
Ni 8.551978662851358 2.457070384258802 9.37434515270062 -0.19618982649413308 1.3955451736549707 -1.3077183465479736
Ni 5.64587541381808 2.057553815117758 8.176159045878833 -2.6078167146568445 -1.4232333835988586 0.7543372420412492
Ni 8.92191683192886 5.17505426873405 10.681253390478528 -0.8190259404688862 0.4759461621570126 -1.834908137371311
Ni 7.556897261401776 7.272391355754603 0.6991179134944033 -3.0160495326272834 -0.801931961101077 0.5741736157720433
Ni 4.2228740374735985 0.5676832350512674 12.430820842795136 -1.7657794008944494 0.22574748554659185 -0.17405185694451314
Ni 4.701189240753272 5.295264513346379 11.910611078624708 0.12408555232871535 -0.5438973333860053 -1.7691586017793273
Ni 1.3981784650618772 4.9473921822893825 0.9597214742669555 0.6291998514092519 0.5905309740841442 -0.21997407339792438
Ni 0.3759852264067256 7.231349822228836 0.6656740597097003 1.6199608277640167 -1.0665897505596211 -1.151025035486566
Ni 4.693602663320645 1.6060044270973377 1.6721797365419728 0.2223058068548946 -0.719154266382213 0.6320404061818405
Ni 6.549233243722474 8.337778125387752 2.7711778197787647 -0.8216003860642818 -0.049499392281708306 -0.5075547902012292
Ni 0.4771337326233967 4.160053475561976 3.1691243374682023 0.04295927717034537 0.9869449450427842 -0.14755535331588135
Ni 8.649059098217876 8.750534197341098 12.099239298986147 0.28814713082973603 0.08686497741436007 -0.34634456510607453
Ni 0.36478299719279444 8.657931693044569 2.872343904650462 0.9800356195174605 -0.640035251461859 -0.6570112171945653
Ni 3.232178047857023 6.623378160240845 7.30587036684936 0.10969303105246915 0.017264443507402527 1.9781244969922063
Ni 7.889522422203934 0.40184805391302164 9.89420241857814 1.095269377882501 -1.2966623458441282 -0.5639421678520223
P 2.5313448277089505 4.488135941828258 8.094533023857997 -0.2600480586006747 -0.2328470727058506 -1.516049693500647
Ni 2.9104238974003955 7.794042569637227 5.358236806806654 0.3765167178140806 0.4471858021948686 -0.8745075184759584
P 0.23959151686128777 1.6324649288745456 11.030708725680308 0.988718234893123 -0.22485608408057403 0.7284732297902937
Ni 3.836624726915952 7.939621589030362 11.159756407809276 -1.1460576641789615 -0.9451298087792109 0.36045709324805664
P 5.630063876217644 7.689218274135212 12.38794927876184 -0.3019382710765574 0.26190053842838124 1.0910365707480758
P 0.4462859686284435 7.296677655462704 4.877635453181125 -0.3976969514361215 -0.18393234928301871 0.0317999181194162
P 8.509947173489872 5.1973606567707105 1.2860886338795676 -0.39351248104112874 -0.7035798089827238 0.5628211668737018
Ni 4.272686394665377 8.551108982023715 0.7866836705295643 1.1129881353185027 -0.5161073077569305 -0.8165905915545163
Ni 4.30640965654577 6.361160138782935 9.48879514961837 -0.2787844586679134 -0.1519509112804157 -0.1385292385578711
Ni 4.91774901875995 3.2108338598849886 3.9203185538833645 -1.5187958887872166 0.4466453563103663 -0.5507680923639096
Ni 1.0445144297697289 0.22325446999478654 5.213549672858038 -1.1982927102242782 -1.0611153577086112 -0.03923503424122275
Ni 8.611801601484723 7.3688149045385405 9.833037025816147 0.05551140280374311 -0.18083082753955954 -0.18599668801121516
Ni 6.4183000195437865 4.3888535486215385 5.336990689225822 -0.5656182700028646 -0.21260940550273705 0.537276742745694
Ni 5.495069057535392 5.776235018727471 0.36530295530464024 1.1452405675943051 2.325025191712067 0.4233655598468193
Ni 0.34684074156463396 0.1711587380342616 8.149848425265537 0.7270930616133154 2.036360497815964 0.6610229094571196
Ni 2.880577191549601 1.0582442845380422 6.078624892883505 1.7759388579259543 0.18601879949840222 0.4636935700419046
Ni 3.2208629451739723 6.483331791219309 13.368854882720846 -0.2241336040922527 0.30478242539357187 0.09539126971781635
Ni 1.9793010444773305 5.975650982121154 9.764790210655455 -0.7911906634241729 0.5149163727726229 0.32733588521405566
Ni 2.8618235422130973 2.0293539516852657 8.507957084702362 -0.26889805279213685 0.13304893216959024 -0.8287971609230371
Ni 3.4459622487542045 4.0975289752087 9.96178587080966 3.5275134280749314 -0.39882926526835183 1.011700297610593
Ni 0.418349785021353 1.8122668140277818 2.9491080407678294 -1.90033319974434 0.592884047697353 -1.1277182424398255
Ni 6.279345377518652 0.5924811661398862 11.338092788248698 -0.4250478326452487 -0.07097427432603261 1.3157461019484566
Ni 3.342988337991854 3.521550465369515 0.025101394185923907 -0.707601528547607 -0.4439960916129773 -1.2318196383371303
Ni 0.3824421439557862 3.8929689422387472 12.228949418851915 -1.0525479277545742 -0.9781995947499863 -0.8095223718538251
Ni 4.386697850399829 0.6663503753320479 9.937886301512147 -0.047054530285641535 0.7823401550120785 -0.6619029980692278
Ni 5.0527160816711065 3.872068846604233 1.2319158450487688 2.283927650340808 -0.9088865101764606 2.2170010637215882
Ni 6.448803611977162 3.4091951039770634 9.887974023544427 -0.450407908676592 -1.464790895325671 1.4608599357023808
Ni 5.7446582031450895 6.634249170586377 7.370827197942925 0.7548350076132743 0.4829418767485553 -0.010827943853439418
Ni 3.8720780985279313 7.68757143171691 2.771028863807221 -0.538036503729854 -0.3483837070232903 0.6510025491066401
Ni 6.069030648008343 8.97155340257037 6.211489918730402 0.22187051908968886 -0.9520445336211733 -1.543703964882806
Ni 2.3288572256474227 0.8974551025848627 3.2558555709857746 1.4019521056225792 -0.8826352897894154 0.2659592818787871
Ni 6.516462929983009 0.08917836733577898 0.3828455278290332 0.5489876034247191 0.2684128856256023 -0.16087932411829714
P 7.856326519974347 5.687027970428226 8.121222048150551 -0.2611209799498793 0.2616192597425365 0.1544811339014372
Ni 2.327663727490339 4.856658566579915 11.993510165346434 0.36311535680651014 0.6276373920181384 -0.8531133690708985
P 7.8706670017067495 0.6932299892527897 2.305173226172082 0.6772175169391111 -0.11294624788244419 -0.8433591178976122
Ni 7.88833817597055 1.8574532093703982 12.433975748776263 1.0215648491094989 0.5785573466620358 0.2588874626336703
P 0.7804497243416334 1.8614222846369795 6.7394453934210645 0.050649446725751474 -0.33568734250254445 1.0584061863075642
P 4.177511855580715 2.523971044521386 11.384389414435114 -0.0633344983925877 0.21257418138942746 0.3226703614175862
P 3.0001768091978405 4.523311755729287 4.048742656355066 -0.4921685375531459 -0.07687984117719018 0.3867314535635533
Ni 8.322910284004545 6.609805588175403 3.0202803142019294 0.1505352618798117 -1.1108970571174286 0.2758204909435831
Ni 5.0607189956701575 4.544581928311734 8.08517562822951 -0.5700765628845343 -0.5505343790865487 -0.21616524117479546
Ni 6.431687553135263 5.557649069430858 10.06658148534821 0.9699340123070845 0.5359477395216253 -0.825546000975591
Ni 0.9613951472639826 7.336831004313432 7.978593467224813 -0.5093414497880067 -2.0884212230669457 -1.3885507446150085
Ni 1.4562065304977676 2.668523100384006 4.916673945226206 1.0991072635713521 1.4040079597103432 -0.5262801345248743
Ni 2.549053009667543 0.9051971123356205 0.8436838472425711 0.06888756700033297 0.8322486098067473 1.9456051842082622
Ni 4.289136315000998 8.933703782720524 7.506780515920323 -1.6850447047475432 -0.08467491174157675 1.3952906344420033
Ni 1.7707811881644955 6.5935684620848445 3.253932096048893 -0.4670987390687117 -0.4809528713429846 0.14022462398242302
Ni 8.088901377902825 9.17998999156992 4.548260493174189 -0.7191961753637419 0.4494368030125743 0.02063387420026769
Ni 7.191159465683315 3.770436464778139 3.1276747941073393 -0.2965037303245474 2.0076657009844325 -0.7886627547959966
Ni 7.273908671241129 2.5010632814443343 1.2574030444529127 -0.11705358518259841 -0.4215210504389127 -0.5088871358594075
Ni 4.396014537564041 5.500768242533561 5.70572888379965 -0.35697736222957227 0.21632542090174356 -1.5902082790919325
Ni 2.065704759895982 0.4066479519277123 10.39267848878883 -0.8293661460526297 0.20780144259113242 -0.038331291480030755
Ni 5.7653270006871455 6.142842495273575 2.878802672584263 0.23655743167790225 -1.5116700763757125 0.2552228692978895
Ni 1.4116862736614306 3.3641844951847153 10.045348320460556 -1.6593588699456647 -0.46660303037921574 0.097611931518219
Ni 8.48002645224949 5.065539247916984 5.774044163195708 0.9233044853740033 0.22479592026659995 -0.03364057087258078
Ni 0.20119880909035107 0.3967280393383689 0.5887480149276123 -1.5210926552411932 1.3251470835473822 0.935168583801441
Ni 0.22599488979423024 3.8406863214195166 7.55887254711137 1.614027750109033 0.35305874390145653 0.3395460541270023
Ni 1.973102255599453 1.9654139070061456 12.443792965012555 -0.2320952821414906 0.6233832447274748 -1.6049206456014424
Ni 1.6516811743959652 5.571665733833821 5.940112492811151 -0.06337872136696182 -0.6418818177522946 -0.9623669985931038
Ni 7.48869207989773 6.721707605306638 11.911031115960613 -0.2546623688087291 -0.5092491471845165 0.022763004728128537
Ni 3.5086532837340507 5.4232186180942055 2.078156924001557 0.29706217393117873 -0.31345064259153116 0.00452231335038576
Ni 5.682161458562909 2.135251470336286 13.110395917861567 -0.5008807206151632 2.5970738743180437 -0.5451592308175645
Ni 7.080117877456026 4.318363141964005 12.27596491950969 0.028093158691790326 -0.324693305384886 0.23808261007317702
Ni 8.296329507219259 2.755232129284702 4.729657409973016 0.1867831884682525 -0.8555944836215394 1.6368316353774262
P 6.193117448650269 0.11031808779408038 8.671804952630207 0.03740852255544525 -0.13775070852063373 -1.9289452070540778
Ni 7.859157608626035 7.897312541957924 7.507741790792578 -0.19036370673065928 0.12093158008076593 0.6438224864184332
P 2.6002531554140704 8.166839583137511 8.920663196267736 1.504932500541563 0.13411208332678196 0.4173108690123071
Ni 2.773717472833954 3.0564285052836526 2.238916499798902 -0.5554169039898306 0.16658948712919697 0.9557060416331604
P 0.9783076637845195 6.626162989274041 11.799032878822917 -0.6116230188677532 0.6021258780105953 -0.13780058792196268
P 5.257757214673372 7.601426770161813 4.456302847959432 -0.10315574415458365 -0.22533276660667645 1.5794590109952282
P 2.227909486175005 7.818338121269027 1.1850409736312082 1.3888852451362919 1.1829123711134661 1.8521211588154878
Ni 1.8402446312915148 8.863805499179684 12.70868479241928 0.19216862114988192 -2.482704777946144 -1.476699730948115
