# total energy = -340885.4646826097 ev
CRYSTAL
PRIMVEC
9.15596049269791 0.00000000000000 0.00000000000000

0.00000000000000 9.15596049269791 0.00000000000000

0.00000000000000 0.00000000000000 13.40067367973826

PRIMCOORD
 96 1
Ni 6.7944094523403225 2.1152466385708597 11.388187440062897 0.03911033573790038 0.987654569515299 -0.625629103338858
Ni 5.135459265565888 0.687034898944602 5.8523151281412185 -0.28526338152403774 -1.946989980370931 -0.2588165001864188
Ni 3.226826033593434 1.7568914971698584 4.530070813960645 -0.4373135373864791 -0.3716663317003147 1.4545625327294434
Ni 3.830423579307928 4.119843493452021 4.76288125498958 -0.4298545100052726 0.6593678903521999 -0.15970870084896366
Ni 4.1830562453422715 2.9556173250561932 2.613010435864235 -0.8580951385562061 -0.19249540836168136 0.3916088362605126
Ni 5.397283114501809 5.215583076659685 2.518563040028677 -0.9677871411674107 0.055335796457827276 1.4660342808144686
Ni 5.298764978589426 2.874046872189704 0.687521996047812 0.9943497221472875 -0.028818724003905203 -0.8356465797447028
Ni 5.624213597641997 8.07589600796941 12.307285653652563 2.1173515329480503 -0.4244037713033465 1.542180072039112
Ni 2.094032277891585 6.955819881522424 0.3061890559585472 -0.47858745643460154 -0.1738014314966039 -0.7264646840006972
Ni 0.9160996364975387 0.21455345561915068 13.185177466622001 -1.088631303740693 0.1651203587828382 1.3614461750887328
Ni 8.495358030325733 9.033975723756752 6.661206706533581 0.6782883814057866 0.18821889247351456 1.488854364032778
Ni 0.08207860867904837 2.4036960208927667 1.2699353957529678 -0.9615725277162666 0.327846506301887 0.09458111511169517
Ni 7.4440065440421606 0.8639903180107219 4.863653588398398 -0.6878413152015445 -0.2391416474653107 -1.7011464954054123
Ni 1.0527889720956771 7.654886628273945 2.3520866178539817 -0.43874049964099276 0.8925412360492178 0.16884588726354147
Ni 7.767523255410947 4.139162570289858 3.795794820773149 0.5904440707972929 -0.0729653366141324 -0.5723460756450015
Ni 8.009002559923326 4.189813344255221 12.616841356318822 -0.23351813063094626 -0.8427801054656904 0.5622902340708962
Ni 8.54331695187862 7.375547426735757 9.424305310718463 -0.7529380477008775 1.3504163996371323 -0.1611166369400838
Ni 6.798740221697809 1.1235920153122627 0.25444963827943123 0.9063678575196649 -0.5876449107856009 -0.5856281374658882
Ni 2.201047145228382 6.787927032244972 9.451776854862654 -0.207052737350566 0.6394708943179568 -0.9233052567049518
Ni 0.20355714695458077 4.982078613818282 1.413275621121251 -0.4319952104973593 0.022623136716154586 0.4161960386815735
Ni 6.789007435594197 2.105010274634982 6.888321224481561 0.8089649566884585 0.32787633109855796 0.2584460042208775
Ni 3.7677693410134636 4.723587534535902 0.6123185981732812 -0.6521734294862896 -0.5515602492479017 0.2760104954672021
Ni 6.293312885393405 5.839488542955376 4.812275831162455 -1.100464548930195 2.756858936930897 -1.722449884868879
Ni 5.940570347832022 2.8513858697377388 9.045629430391443 -0.25640763363461 0.3546569416265118 0.23828032790627995
P 0.23609376849530989 5.9960829368688975 12.797992036525748 0.2922004749635032 -0.6303254803732627 -1.1033241298661773
P 4.375752591848965 6.078724637124025 12.569429961209018 -0.6124516854166355 2.342025325814489 -0.9202199329114088
P 2.5371166785614707 9.104815390815684 1.00619520426626 0.4130675203549209 -0.6903707664916174 2.124341076892006
P 6.864837101172855 8.003637167019548 5.519268892993843 -1.3314177470474424 0.242807269242356 -0.501613999236762
P 4.948366366938226 1.503665095224804 12.256631217302965 -0.8242082560007741 -0.23389505435439073 1.3088478321667265
P 3.983557020119695 6.142550838373581 8.250366499332314 0.9079827674152684 2.5643887253801965 1.0159842696979278
P 5.151033554523784 0.8612801536770728 3.684072874098754 -0.7239403749169467 0.2676978618364486 -1.005865436096371
P 0.31212120282263944 5.705298784597394 3.57961435095775 -0.22398113767478844 1.9459723377396936 -0.09924123959152586
Ni 0.9043314803555138 0.4339879538270459 4.636874178607889 0.9733533224012786 0.10438498857599442 0.40178731945541124
Ni 1.9325302891036178 7.046473047290871 4.683106285994135 0.8594007447415071 -0.40224394737685565 -0.1940668666138593
Ni 6.049755177827856 5.45775823417665 8.716682318798712 0.4850093008005454 0.6228404848501273 1.6314803983678419
Ni 8.819533970856758 2.7920186212938822 9.903164796188575 -0.4928786762462931 -0.07138256550804481 0.81002810784565
Ni 2.6811857183924515 5.424137546902462 6.7944094523403225 -1.02951367164293 0.5174849048307475 -0.35163281008820735
Ni 0.4664934451017804 0.4933469619063742 9.574821977994564 0.7913138192655984 -0.5923942525451281 -0.9214885152111872
Ni 1.5330831965897194 1.5690294978529178 11.486937221778122 0.09484773850952052 1.6928112360668395 -0.5514882583593858
Ni 4.336455209011051 7.290598424412793 1.0604250432249456 -0.8103153000687658 -1.3448185938343806 0.02727657632776593
Ni 5.954569811569014 8.179285114913894 7.6537549515454355 -0.5206720443094774 -0.31520002118247004 0.466239733502526
Ni 5.777099827517924 2.7661988124395216 4.607366348829225 -0.45213980376603424 1.49551274988956 2.0935986535028266
Ni 1.3531685710619932 7.567584544080212 7.014904210784152 0.7856481363393889 1.5874191463825695 -0.5789592100861448
Ni 4.97207114889707 4.90188155503979 6.746850646265073 0.9432562459055819 -0.541323402011242 -0.7813101710856672
Ni 1.0733990393762325 7.827980063164616 11.495889004443692 -0.7799194613857278 -0.9890596773929416 -0.45863878122681656
Ni 4.915441532668623 0.22427159218582388 10.411359063782267 -0.7456944787645867 1.9454658304169203 -1.4053804145778375
Ni 8.754902045075577 7.736685980155101 4.31378413500244 -0.9807465295415561 -0.5561632952375519 1.0545842414583126
Ni 7.539274313946282 6.594965162881266 6.919665739953907 0.140436482882913 -1.4805311888790633 0.31335911131898936
Ni 2.4645373789910745 5.7084301231180286 2.426606981068748 -0.3247647820527697 -0.44538371598912324 0.34216626535866873
Ni 2.382692247306986 5.639485739900534 11.583918071908005 0.7135456619461841 0.22118197766309652 -0.4598487423745178
Ni 1.3385556579656952 3.827658479210759 3.830193764697203 0.030054139072903076 -0.8529462473654149 0.15217613991734436
Ni 1.8956409238999938 1.5764916057310399 2.590819134190365 -0.26606829665282566 -0.02130878878010524 -0.6487484629651408
Ni 1.2807082989792236 3.490929716715432 8.163703501187527 0.5492459992924283 0.36327733630567116 -0.4374048115487048
Ni 4.108581661930438 2.5902670297669896 6.7353260386746525 -0.39112392620429415 0.5856502489530753 1.31224194544994
Ni 4.397351502872878 7.27063843033389 5.847558606616452 -0.2015238371125368 0.10332106608785432 -0.3032269079809939
Ni 8.524528920754808 7.65178275763507 0.4056520870034731 -0.1874169653975095 -0.5817820242469206 -1.301346895803991
P 0.23958859865123522 6.1784147359915 7.89428295175286 -0.32591612204839354 -1.9103502176607101 1.820696621757619
P 9.042728822077592 1.7596016615035075 7.859789701434765 -1.4010033685560646 0.004813876448875581 0.16241452981590093
P 2.0040658091671353 3.827548607683719 10.25750596446839 -1.0111277129365746 -0.6621536806274533 0.07670603460348725
P 3.897600862132199 6.085408488352281 3.935563305916579 0.9013390368465057 1.3168159379738678 0.7564427184200263
P 6.852146939799754 4.201487194003203 10.483548319431671 1.1686221797430392 0.5795575057917761 -0.2534102415691829
P 6.499129723420772 7.949479660149496 10.279469282723651 1.056232061474381 -1.1652715181032511 -0.5111149967486617
P 2.7895373559749 8.868655699404151 5.807811666113733 0.23416913395138378 0.49262285148174517 -0.8290175044639594
P 6.908987143121694 4.021288733697291 1.601393987334618 1.3574985032948943 0.14722573789060453 -0.5511689273467539
Ni 3.0871701667652194 2.1547088286993326 0.20698147621398888 -0.7639793931167036 -0.5374248382877842 -0.5476660563998181
Ni 1.912936533448181 1.3136239772882399 7.055267347434352 -0.56394962405119 0.43192476227074 -0.5937805913696935
Ni 7.2191636199157285 0.5391533171253391 9.073287756131604 -0.02064801526765476 0.6852211039698779 -0.2034907310309205
Ni 2.9460401902825546 1.6960318271503778 9.40463281380198 0.33036130230394073 0.3682331376490497 -1.0696977000609835
Ni 6.6947010415516734 2.05799441702252 2.7576306645225324 1.5591820059137471 -0.3658461254741118 -2.515968167984964
Ni 4.373353730175261 7.04554829527162 10.576173679110484 -0.37938838293492083 -0.8490952490504409 -0.9793193101767264
Ni 7.563363646249765 6.2220886679898335 11.351965544386038 -0.23852535403755049 0.13696420806359638 0.21773952764045082
Ni 8.00013043411486 4.0939962167159 7.877036784391842 0.08785665190366804 0.322509924580322 -0.29833307022380234
Ni 3.4726818872662326 8.82516488661755 12.413084609423452 -1.4708399297332282 0.5466347869218263 -0.5415982529391834
Ni 0.2914543685864469 5.209814821490094 9.799872742426313 -0.1512718829355201 -0.6235138567680681 1.0653761898674943
Ni 8.915369410317252 2.7500843218070132 5.670066648259954 0.6986368631551516 0.37555126857701776 0.9818832142491607
Ni 3.7591810499831833 3.163878804560196 11.220102315613126 0.3350000866275327 -0.369785312627518 0.7386334581527473
Ni 1.3064365482277176 4.000266648190336 12.770466472214094 -0.013902726124021218 -1.4524699118664728 0.48346483913156096
Ni 3.326534444382082 8.665484933986328 7.99887515191843 0.974845847786405 -0.22578810897654017 0.7488836751258457
Ni 5.343226323198211 7.900852353473784 3.1200519680200656 1.4790641174152335 -0.9264448307751979 0.9547004831867816
Ni 3.1954027768600417 8.845335467789946 3.3091353724792656 -0.49946327144234626 -0.6283341609748468 -0.2813910430528251
Ni 3.7791593559832597 4.132139948519895 8.874113567509855 -0.27968768720847315 -0.5340502653885965 0.09385940645432223
Ni 5.492587508248278 4.364673879539114 12.219631980572302 1.3703948996415882 -0.48377054329743785 -0.45048581310237895
Ni 8.123534470901765 0.04872435985793115 2.0688359899531754 0.7069343272772535 0.8924355637092889 1.3954186753794353
Ni 4.655329848362405 0.40481614780191166 1.1590576286446619 0.4151699114099043 1.5978668240784546 0.9578562552069438
Ni 6.305133230510775 6.0144681057268965 0.5988575049187842 0.9141536721126707 -0.35688737361892725 -1.9645981803709975
Ni 8.032148828286385 0.07950669935025761 11.346497604723691 0.653049661443656 -0.7973199162503624 0.8435275251546762
Ni 0.4182928061894058 5.323293797001068 6.001759632432622 -0.4950399455636699 -1.1090157809343157 -1.6021076016326794
Ni 7.675102989249274 6.75417816152257 2.485315915946424 -0.4983934354169352 -0.8263147608208156 0.3964404533212011
P 8.900747341260368 1.9690808837655354 3.617069554525629 0.028368009619731786 -0.11903873393342725 -1.4333169930871055
P 2.1503505914600862 3.5672171803234223 1.6521692823639593 -0.5208137120936642 0.24547324611029334 -0.49658620700486733
P 5.183940076872214 1.0413073975200147 8.08918313797276 -0.9450233651083336 -0.02622396669353548 0.44663661455961784
P 8.717335138788542 1.8612969157394594 12.600077708080722 -0.2674942304660748 0.7084309664274381 -0.5780169007775335
P 6.443891813201495 8.200472007711408 1.0476836084725596 0.36630763849156267 -0.14905687756207234 0.7712725843440073
P 2.0759767236147058 3.5362791895011227 6.048326847976338 -0.06616965384853765 -1.4992089677942244 -0.7541701203357657
P 6.9374896484279445 4.337654639847902 5.93913835559627 1.4468672209677147 -2.3924027498257767 1.5784614229686493
P 2.475121669429245 8.998862614906939 10.348227799941236 0.8813597655111015 -0.9913464165445895 -0.5125596996149882
