# total energy = -340854.67019596335 ev
CRYSTAL
PRIMVEC
9.39696434006861 0.00000000000000 0.00000000000000

0.00000000000000 9.39696434006861 0.00000000000000

0.00000000000000 0.00000000000000 13.75340717139724

PRIMCOORD
 96 1
Ni 9.344482246260515 0.24143150506785224 10.506860417659915 -0.7533224276234897 1.2438470018153096 1.6217688275070328
Ni 1.7892665738431324 7.332479427808127 0.3832815001423195 3.430707280287459 -1.685224681968833 0.5883429652938901
Ni 8.623312221683992 8.564054964859709 1.8521303855626192 -2.4256717962915517 -0.8930662553147524 -1.1673985917485832
Ni 6.801748281569839 1.3102563190670784 5.17766248574493 -0.7168698412234106 -0.13258227694581684 2.33092638768785
Ni 5.540337382891694 6.259299120859637 4.1030810914205285 -0.762886417162841 -3.8361105992289026 0.13046934436787208
Ni 5.088418576168988 2.078476943852796 7.049693762284788 -0.2091384162350011 0.23983867353233534 -0.20766183168947464
Ni 2.6260380531377527 1.6643151396546636 1.0162581957507268 -1.3003325956068637 1.255884649706134 -0.7893602950836534
Ni 6.669025557912026 9.267530505674717 6.892602830825401 -0.7977983985486776 -1.0255531443332855 -0.6222167352231994
Ni 6.93010141683195 7.805391052758782 13.424122610255074 0.5443236222901464 1.0519372907537692 0.004459321322934255
Ni 1.0654184144434375 5.401544220301361 11.107966369176152 0.5298861067085777 0.8879561877816965 -1.4335987859935828
Ni 3.9854404954511042 2.2524335468231604 9.780845318294528 1.4009177508207937 0.25545683968556654 -2.2887700660347745
Ni 5.39810493137055 4.49999006917886 6.498994066926359 0.11318793157960508 0.19017447353798858 -1.0786451390622585
Ni 3.579623195544117 9.126181368797004 10.895779156680906 -2.3003749972635545 -1.6839473579183064 -3.6305347035341793
Ni 0.7469938221469021 5.199443709276964 3.9048399136307874 1.3618071579725772 -0.921477973688226 0.43155066676077297
Ni 2.9332154188733965 3.78411993246293 11.301683848355806 -1.0329895460066725 1.4708502141458732 -0.17635145161196725
Ni 8.763590104632437 7.0316919977909285 3.692211983510254 -0.4593615183254541 -0.3437176690061887 0.3454804173335663
Ni 8.690491119406287 5.2145634248225186 9.435951356980762 -0.656190778175799 0.3095358809181572 0.6239332036936738
Ni 5.201915110885715 0.24983990871618209 8.613635227856266 -1.2612263736340212 1.5467952022136198 1.4280279767740245
Ni 6.882599762336747 5.675014675122208 7.964749471701789 1.2722934300814606 -1.1825097363584087 -1.4030227129789385
Ni 8.215784674275891 6.5738155157072 11.714588338731692 -0.6794723744115587 0.10885587986315445 -0.28061405567748443
Ni 0.4096033368201656 4.692928540018722 7.309482237096731 -0.5213580146329085 -1.420788778713108 0.17293471262093443
Ni 0.8838371146466822 -0.09651809963424827 0.44832164879179437 -0.7707257107016017 2.3547309463066157 -0.7595498965904403
Ni 7.859010131007968 4.4933746063174125 2.5216875837662642 -2.042330856466786 2.9957768984211763 -1.2430034228680915
Ni 7.802694124007028 1.4342398659334885 0.5786650610909153 0.1102293631719134 -1.9498040527809581 -0.10654497234179068
P 4.527551365446799 5.75732268535435 8.090138804426257 -0.017246445785273526 1.1876259745390514 1.099824601353351
P 5.484632178569724 8.929258585097406 5.026609103843044 0.1783258017295187 -0.24477699137421716 -0.3425830411811132
P 1.8089250231416416 7.74330530968266 10.152476462107835 1.0846139550511837 -0.39273523655547204 0.4753141849999686
P 0.031307865931091305 3.3784341900560286 2.9516052779925084 2.8398402630201347 -2.613834895826466 0.9856169702599799
P 4.185379704688379 3.163431647058949 5.186684511161517 0.1500601220156061 -0.4228665087232137 -1.0466732141413524
P 7.144605920721562 4.634517009980704 11.121294083631255 1.2955459728514978 -0.024754581236860595 -0.11471310997487986
P 5.079810956877671 0.09127929204155284 12.152868391481238 1.3156283454236697 -0.3173602620585824 2.0810462707591126
P 5.911987320633586 3.3888460264913767 1.5835952163878406 -0.31136650636899277 0.011942517073856853 0.2644125062169575
Ni 8.981890982095948 0.41298624396522454 6.389461171747926 0.9762902935424154 1.198052569189014 2.0980147802926514
Ni 1.0080217565489376 8.030936989691297 12.204360936711181 -0.5161785273144982 -0.2882222070420456 -1.9908748546793391
Ni 1.1197610589430926 3.6876131091858317 9.41313458798377 0.928338448253485 -0.7435928590405517 -0.9740511197992515
Ni 2.1589243551551562 2.2922108966704786 3.8682829034462793 -2.2810868384579037 1.312725827064894 -0.5482491825967978
Ni -0.05684035760842365 2.8183939121915214 5.807499655583437 -0.914387899610664 0.009186294484958373 -0.3678402730860052
Ni 1.8751736213990458 0.33298330907386814 5.096476473049233 0.08484794698433129 1.5918339876208134 -0.850546893895303
Ni 5.121655638869192 1.5648858604828064 0.34676301751140826 0.9475978107037294 -0.5997188112309995 0.37715897938376985
Ni 9.318997679101072 6.438640184369221 5.797803867827127 -1.785385348050835 0.30081804142918517 0.9689505653478926
Ni 6.709761398117111 7.824964929378666 3.3791023142171777 -0.001657847318397145 3.093730786659846 -1.1019933268698956
Ni 9.059246792146295 3.4269789075876242 11.258002999541661 -1.585996812113746 -0.4331254674470605 -0.1252147808371521
Ni 6.484619530649147 2.042702700793798 9.496150189627086 -0.17448020273118336 -0.378838938189354 -0.9484113077439603
Ni 3.3537107770042227 7.93022972337575 8.4566673966291 1.5665312471899666 0.6446928048385284 -0.14454973372033814
Ni 4.030639893694808 7.795862530966867 3.7434987352222056 -1.2830804933946354 1.648136004646652 -0.5222265332807909
Ni 1.8516906076337616 1.4402069382588008 10.14540712587109 0.08285174248990892 0.7195774699625608 0.28829625481309057
Ni 7.516641133999419 1.0343520504946464 3.167711964293878 2.483947906324625 -2.2650840352717445 -1.594511020232344
Ni 1.213148090075303 8.282390357176386 3.0628972848863727 2.3689164937783787 -1.3615158519844035 0.5323425386688703
Ni 3.517180367824904 1.6938591953881783 11.821108567158165 0.3727369390566742 0.272541305971679 3.660176180549696
Ni 1.4207740161032956 6.719073789730316 8.134878691116091 -1.1146331271210932 -1.1020110674817087 1.9251687707307814
Ni 8.058845973638032 0.46535834505288287 8.5476873324562 0.2753018994359517 0.1808107729349015 1.3906371948303922
Ni 5.251737815561 7.5405376141935445 1.2872694650164027 -0.8923571450628697 0.31985011835997174 0.4039411325736204
Ni 1.6385016787450055 7.99404450788157 6.269325681759021 0.5761564505300271 -0.3545600110373313 0.24843052896640438
Ni 0.5112286865470237 0.8698873211554601 2.560829698827454 0.0007613036460567534 3.922404791741457 0.6314763061482543
Ni 4.198018621660891 7.143544063756585 12.007701268011754 0.01592232765721129 -0.30747668439628334 1.271238763564701
Ni 7.781682511850495 3.270810758021695 8.068559615626498 0.9803976308425697 -0.30592528074876346 -1.0817543741152016
P 3.750384830655259 5.970624377814608 13.918310841755291 -0.9193817532808295 1.3138046619513695 -2.474889395666783
P 1.39127694519124 1.3353462137262655 12.458674740126702 0.8964439135377336 -0.9131815380073885 -0.4788216839325947
P 3.4441189704559227 0.5962148316023378 7.304626825647142 -1.0076793493766583 -0.43340211814721485 0.07845592741505843
P 1.0860259571354216 3.503517181744583 12.83092514388684 1.5309728904693827 0.8887403742458887 0.7023536498851065
P 6.393732092018563 0.04116152268750465 1.7265474753737395 -0.30874732357859086 -0.9064791862865484 -1.487983274281734
P 7.590228761368743 4.276671212783512 5.993033318561336 0.5913773812448396 0.24291988356082034 0.40092574278606435
P 2.9360626990538212 9.331721168752209 1.9802016118959755 0.2959938805676644 -1.7693735460036109 1.2609885465916026
P 5.049364792572141 3.9225842013030507 11.753991689400195 -0.8117042099964924 -0.9897060527276889 -0.2712161594023523
Ni 7.041718558690312 3.376066155054487 13.353334338548285 -0.9977993712587847 0.6362457025124397 -0.859546526290752
Ni 3.499523471920555 3.7954150835417098 8.02273343986453 -0.3590692117615945 0.5475457287718699 0.27125601150135215
Ni 3.6888535084723535 3.4260674020513164 -0.05942734187796456 0.2996384192987872 2.327545129920443 -0.3311305763697974
Ni 5.90060759687618 5.554338859686522 12.944307975335638 -0.013130623844687063 0.5894559958524106 0.621060510131569
Ni 1.3420650431949241 9.262897802278843 8.427895771360374 0.4730680692782691 -0.8059138285669604 -0.7525513537854202
Ni 3.125157811498324 5.961669070844494 10.013608123803165 0.6897287620322444 -0.5038822264456484 -0.6253100294365425
Ni 6.884601315730907 6.974004034003381 5.735088528143451 1.2976380794938362 0.13321682520602218 0.7575912302021727
Ni 4.00631115314326 0.9383583014678822 3.710242878593418 0.920588371994421 -0.568902340070775 0.5480131553265917
Ni 9.142757613807794 3.3954520923885334 0.7944080848741908 -0.8962834767004694 -0.3276739852797647 -0.7690344390421078
Ni 3.4083823152540917 5.221770896434353 4.66738383228781 -0.6567332809428303 0.0072757077258068245 0.21189155350010605
Ni 2.3411784775952067 2.678379144243248 6.127541465434596 0.014321044608362433 -0.6531360505098751 1.5558724819245398
Ni 6.752931052073779 2.906631406891808 3.699941926336713 -1.6648296632522488 3.050343677923463 -0.06264929940010501
Ni 5.7706287867915815 6.223910153336605 10.338917871836324 -0.07496591198392896 0.9261270424244631 1.3113088921127094
Ni 4.504105939538682 5.254077659669665 1.8553074991896872 0.5865141396152673 -0.7878903954063463 2.114539517420552
Ni 1.729407911304173 4.169000795927719 1.4650675469892673 1.7465691465145854 0.13754656292962764 0.678093234675845
Ni 3.7455266001163827 3.040462972336057 2.5181796969961234 2.1407375159721584 0.762696412639222 -0.14603737400945815
Ni 0.42767933733193053 5.557618400224372 13.190109068799192 -0.6403219294643424 -0.02062847488362899 1.3664248592502468
Ni 3.346832199142603 9.11327933682432 13.508569369560037 0.24218351961542803 -0.20585434616709064 0.07615324742381079
Ni 5.778381282332342 4.2001423355908445 9.254777885434274 -1.1761735097277357 -1.5899843360065842 0.5742114109885144
Ni 4.594730263169095 7.330928928699975 6.305538763050447 -0.8281528424708189 -0.25551520372732767 0.23153786697612383
Ni 9.13150005058618 7.606429127807858 9.622681253513013 -1.093478090310033 -0.9100321937451294 0.3421559809460236
Ni 0.5007059659330321 6.234209226200451 1.7122030093822607 -1.955728388685193 -0.5613566665130333 0.9875021030978348
Ni 6.653323230580378 1.38285726518576 11.551114989125294 1.1319147970196763 -0.3814264964108722 1.8220896454504039
Ni 6.046645818935517 7.654710730339284 8.538871100557605 -0.8326944390949143 -0.20716946543408837 -0.15132047678526842
P 6.5771514380308 8.533110761446713 10.485735102235454 0.48675610828832294 -0.1799257992267869 -0.2180640008594051
P 1.8749293003274583 5.830938503616549 6.311947492697477 1.9617992774696213 -1.1027129786447394 -2.06530134922003
P 8.899047344899172 8.957082996365516 4.659118262496716 0.5750387919858161 -1.0336732023372583 -3.6409016485908006
P 8.62936386668793 9.405703468621791 12.566887361822134 -0.7935949019902914 -0.37705742080889904 0.9303040566202881
P 7.916077895152254 6.000845014977135 0.5444779653008072 0.26856406649148584 -0.0694030731841708 -0.31400394399183984
P 8.057680750065845 7.478545840760338 7.755889724262279 0.8391219398878129 0.6160388885472617 -1.283128058803119
P 0.5000199875397284 1.774945600262383 8.272563951616418 -1.1472851088281595 1.9388503819829317 -0.22201012999134667
P 2.562580353275022 6.461709731705664 2.833642366147874 -0.5312742453053559 -1.6584584696185827 -0.1273048305969614
