# total energy = -381167.0640483713 ev
CRYSTAL
PRIMVEC
9.30227197748922 0.00000000000000 0.00000000000000

0.00000000000000 9.30227197748922 0.00000000000000

0.00000000000000 0.00000000000000 13.61481532712490

PRIMCOORD
 96 1
Ni 7.9815817051110365 8.58700145641635 8.74717820364222 -0.41617444141501875 2.2783969503305666 -1.9976381415451019
Ni 2.3614095866525475 4.530178427952518 1.6758340202642228 1.3864175003220898 -0.915437681031417 0.8651175926206262
Ni 4.845004512539538 9.43668956120147 11.70362155520836 1.0738009235960797 -0.2313486337834532 0.9935524230569726
Ni 4.267314833275175 1.9483701170912406 12.866885519259366 -1.5329801507073986 0.6103809189305359 0.38205873067823237
Ni 3.4452916846288626 8.192268857628806 10.450132997148774 -0.5538559872606139 -0.4881283060455012 -0.2726222957212595
Ni 3.6814763639712695 1.8385940083508012 4.776403979405292 -0.8674426412093771 0.20979816130618706 0.48413255462254684
Ni 1.9360073979559094 2.618729027376048 3.2928795436198928 0.2603776740259516 -1.2498556699032346 -2.459762053107041
Ni 5.09424027912564 5.386229286604128 2.0749117101790144 0.9440918544329999 -1.7757239137016707 -0.9106176339349543
Ni 3.993186187527187 4.804865210004585 7.860540545299953 4.160221806858074 2.1230966629619434 -2.787206438874503
Ni 1.4081964997326637 3.5511608392407545 5.06997995444171 -0.6086281979054873 2.2411797178503208 3.2854162975257224
Ni 8.642712761835085 7.732057568101161 10.92198142861645 1.0994533340568613 0.8299081345990288 0.616295741753074
Ni 7.799424620003395 3.9048053037764108 4.915030153703531 -0.11206564504970377 -0.8913446446379552 0.7507099297013071
Ni 4.1422457898029945 1.4182801622930092 10.007910440701568 -0.3600922537094702 0.9110840320484116 -0.8841149596587355
Ni 8.451551077688315 3.452175365712493 12.415404411754674 -1.0099473194752284 0.8065674029905593 -0.3522182502780321
Ni 1.674185657712845 7.742010998857221 6.4522110230814835 1.715440543430581 -0.29596456999162574 0.1931322706147319
Ni 1.2373230702391356 5.8772310955734195 0.2534320213655961 -1.7103451311855447 -0.3969155931854067 -0.732694209850177
Ni 4.1446643804539995 6.814146602414221 6.212752874315658 -0.6446588662767995 0.9079873954009589 -0.6442552030804776
Ni 6.977429378172286 5.28448103837068 11.510141744945319 -0.4565448748122654 -0.20059721153320936 -0.43507333520205077
Ni 2.951722448660812 6.800788540203284 8.663297758956661 -0.3724122087274038 -1.179695149727749 -0.09002820563369011
Ni 8.017246614941632 6.705654207173161 12.993625250735086 2.5546054207411877 -1.1008664123543042 -0.5018238012547229
Ni 6.175266579679422 8.874460257560072 6.8687695420400035 0.6796091570997392 1.0676798983000064 -0.25124537270738023
Ni 5.635046450962172 1.5900466098730626 3.38276460471016 0.26120299814072434 -0.9292928417469545 0.8453108423073442
Ni 3.04989862454816 -0.015407352674077574 2.678497053498257 -0.7515959318506862 1.3046754459565917 1.0158384881486828
Ni 2.3822838844250707 4.180608358436633 12.881670549954395 -0.5807839219997094 -0.49705594755243426 1.1957761144500116
P 1.2100302049697136 6.704900723162656 10.105460573701174 0.5350861628522785 -0.6625126066287688 -0.37189644543324984
Ni 8.828181455680257 6.688789188518267 1.738366681545966 0.8754079188030408 -0.5108308898493396 0.3014533610203389
P 3.418984860163312 8.254221987381483 12.788450624447261 -1.4655779100033406 -1.0188986151312454 -2.004317867558122
Ni 6.06951835460008 2.57204092553991 11.475887059509697 0.46131298562487 -0.3054650532828933 0.05197125086096855
P 5.14177488768963 5.763966634932492 9.746832882197273 -0.2767897968353878 0.31840927214838716 0.48404822243885665
P 9.470456807598199 2.069718251869567 5.307204627764049 -3.1204815723911294 -3.12319845710166 0.6985216777335259
P 1.0377149233573166 0.8246445288211327 1.4407200323984717 -2.385439431134066 -1.9015840414323055 1.2929504442101798
Ni 3.8071221482909983 1.599907017911777 7.464757720033569 2.1601866258357054 2.9794213398812883 -0.4957140888125592
Ni 8.645745302420575 1.8084360433871116 3.1072006184335175 0.7510045781235906 1.4833514319366776 -0.6725766757329901
Ni 9.222560568141883 1.2149231999021322 9.522419297507875 0.8322288123124054 -0.3251324498048336 -1.5251084612688057
Ni 3.2298789780698973 5.6639765160568905 11.14740244933471 -0.12145839911851342 2.0502022887950626 -0.6601502770441792
Ni 4.111911081676346 8.729549468477913 7.936457315153492 -0.3008602075210302 -0.9064087380599292 0.7088171461222631
Ni 3.6978762690394333 6.38857697282636 0.3859810215395976 -0.14787519854914533 -1.028335077953797 -0.6040966285837208
Ni 0.9749617982354624 2.1947965976134824 12.829757362084912 0.5738992790647343 -0.9763630557618797 0.6228849649348176
Ni 7.061233544229622 3.1963907998252075 2.635732649879789 -0.30844496184682363 2.449558115990846 -0.916999369091582
Ni 7.374301499458795 5.938458648130793 3.519497766710401 0.1668810502276868 -0.47744434396909385 -0.5714389904496997
Ni 5.960514334413616 1.3514898512383229 8.55960719638502 1.303382181066465 -0.31847509238931604 -0.41466031876333753
Ni 7.028973265853905 6.996954846543288 5.691196823606782 0.01757554698991812 0.8213263064672888 -1.7787557585494593
Ni 0.7669583511131345 3.1284004957167535 7.505575158177979 1.521452095463141 -0.49210117465032027 0.0004890238212765772
Ni 1.727394652034963 5.40166175541189 7.056504269279733 -0.13130752399845128 -0.43755290709079486 -0.4254173001695254
Ni 4.909059955704241 9.218532684480786 4.861714183256464 0.29794766185992555 -1.5077722839832035 0.6832428971975846
Ni 6.301777475270471 7.689881068056322 9.971803672963578 -1.5031018750907275 -0.3064569848825174 0.855006215218237
Ni 7.784885169282158 3.6563416257442833 10.087461608121828 1.3844315802403124 -0.7694609850565651 -0.7243404385688429
Ni 3.717866850997166 7.057661471883522 2.8867767780911042 -0.9011665158243835 -0.079078905711038 0.5557691451229267
Ni 7.5623841316614016 0.5639474332307859 4.936187240536787 -0.1316394534165733 -0.17254724737452865 -0.46470915579061256
Ni 3.600881481662384 3.5403609017568423 11.23125591743224 1.287320756728228 -2.260009448962314 -1.8110321020846618
Ni 2.553361963896761 3.933995832479698 8.853864097712414 -2.2626126909131163 -2.875850619676473 3.2591087699794454
Ni 2.587622230695425 1.9771234390230006 1.1803652604079595 2.9458203639973912 1.9793655684881588 -1.4719403618862585
Ni 4.9739991146837355 3.826852266640161 4.3610156862309895 0.4427773887145277 -1.0130429276814166 -0.6637721900674827
Ni 1.9659328061262333 0.9870175424035507 6.4551105411811704 -0.7271588818542445 0.5755005621135831 -0.8619728763440574
Ni 9.245034856652765 9.052273181767639 13.542221144922202 -0.5124535130544272 -0.23289978032065697 -0.28377625545554996
Ni 5.247244044616933 6.867020714953892 12.095742076092817 -0.603171031445658 -0.24108720122745575 0.15708360452129075
P 3.340092293581864 3.552398041381461 6.164407107656408 0.5044625244291506 -0.4496157517925998 0.7822218842666593
Ni 1.8483986027591077 7.88734039016744 0.9675395156183964 0.49396882398667835 1.4297714418276926 0.8950115519665811
P 2.773435108594779 8.946766815753397 4.869855531478619 -0.10808120648065903 -0.4632197157292796 -0.15726872394890334
Ni 2.8971274158502336 5.078993855752572 4.682719870538599 1.1611657234649937 2.5640711941397774 -0.8725776484430973
P 6.788249077904994 3.3216924000907544 7.371946164255586 -1.1407781609475771 1.167754175315789 0.9321444522631365
P 6.611301264968749 0.06385544432240868 0.9220997786490466 0.49159286755533393 -0.42391089082732797 0.32283928289528274
P 6.705449557195 0.5705343718460816 10.458179462199235 -1.135515369886741 -0.09936722364642887 -1.4798179648621224
Ni 8.271087006036378 6.416176813063024 9.185779385703134 -0.693355045930922 -1.4954320172502955 -1.2061129775996455
Ni 1.0813518800644941 8.466881221506995 8.850991556200759 0.3418281652929597 0.4194214875974067 -0.12551919945144835
Ni 0.09746362187247501 4.473881079414501 3.2924702436635687 -0.5525519237372096 -0.10679436934843543 -0.5906330468796473
Ni 6.974089862619552 8.557820229984797 12.19597405403352 -0.6905463728375333 0.600601728056585 1.8301827068711836
Ni 9.394271202091529 3.5950861663717055 1.1198065411883058 -0.05029489159981016 -0.34634173689259706 -0.39271801016429136
Ni 0.9514735621055066 2.9482061899451195 10.47321007286806 0.749188093740142 0.0956982594352739 1.5420558877564214
Ni 4.380681618905183 8.665670768476167 0.851175538035488 1.9833623483523777 1.080687366303268 1.8288354488146699
Ni 8.37246316340044 4.777265369767919 7.267874208542826 -0.2904706367565901 -0.05819512028349332 -0.4723160216035931
Ni 2.0863879228180346 0.8063934716777769 11.070886613181463 -0.5864262078871514 0.09371825289076763 0.17381197301956516
Ni 0.7284608995393436 0.28733322047530346 3.9582347619386393 1.9931896188554448 -0.9944057721962035 0.9926761910996065
Ni 1.4888099865850193 7.593639764689778 12.065258531618415 0.18315227658388458 0.11041911058521628 0.5284020659638836
Ni 6.642780152518758 7.248348740171824 0.917347248019821 -1.8965048271371856 -0.04691003428797728 1.254763391617497
Ni 8.225394247275846 8.895139207626167 2.549605706570315 0.6995706878233307 0.20797036406882893 -1.3622367893108283
Ni 0.45678898375647325 6.213043105193779 5.150784137864625 -0.509897836512109 -0.8149723392248028 -1.1118524790521627
Ni 7.21755822073018 4.837171999738975 0.6286354308734445 0.36237179377226625 -0.5341466817571445 0.3426336919133906
Ni 5.905947208418241 1.9880070969525245 6.050396604822363 -0.34042228608436853 -0.558990994494334 -0.7237246593617148
Ni 0.43720584130071755 4.741637669024263 9.255541772577036 0.7296333115366659 0.6619906726870277 -0.7065432624864219
Ni 5.652757976344919 1.9479608171349168 1.1181600390912751 -1.7276468556887858 0.9862183512894048 -0.4275225194379863
Ni 9.334085503968435 9.250262733367629 6.476376464593721 -2.7007911474030517 -0.8427657072879874 0.29445970331132515
Ni 5.737827251358166 5.0458777683772675 5.957598072224807 1.2736561147569418 -0.20014829692124883 2.7439774529825387
Ni 5.191132741513609 4.238533604528211 13.113885019720462 -0.5235478231953757 0.4332861613946409 -0.034504975755405086
Ni 6.019918641711 6.742165623731608 7.732166404680457 -0.33994508933763395 -0.7873936582755859 1.6869501493003722
Ni 6.300205391347318 8.190082823771167 3.2817149570839828 -1.5573122996948598 -0.6209165283545371 0.28454784351425183
Ni 8.271645142340455 1.8383893583726394 7.48123204327561 -1.233669289951359 -1.1345596908416913 -0.898004316046318
Ni 8.331291308702943 1.0674170770060094 11.533477423818828 1.7010835033779608 1.3389662488186618 1.954279057833176
P 5.295262371311123 6.018597719124683 4.102865552641586 -0.4670231486357699 1.7927214767009318 0.38336896484922367
Ni 7.763322503401273 1.8062872186164105 0.3134949295017937 1.1519290353580742 0.04520487867141247 0.1316361109824636
P 1.5624467696363977 5.9809142163276725 3.0387991539143924 -0.11284520352820565 1.6628727966361945 -0.17079992566611873
Ni 0.3733141181185438 5.295346091756736 11.577739493186572 0.03437153550133435 0.21276572857494325 0.3543736060581381
P -0.6404381532503507 6.873234632472629 6.94960070205095 1.1359115768838954 1.5486080870526426 1.1672983187252928
P 2.3260330472457267 0.9628688449804357 8.771807828514016 -0.8966714561675073 -0.04759343350824706 1.2567395415072613
P 4.279100811562959 3.2113488527745018 2.5305993049621063 -1.1662791334321592 -0.8244491683669866 -1.9569329505162556
Ni 5.635539471364108 3.625569710846108 9.324255793426445 -1.0847311973553384 0.5442259203700176 -0.2508363101944196
