# total energy = -340873.21574442607 ev
CRYSTAL
PRIMVEC
9.21032942198032 0.00000000000000 0.00000000000000
0.00000000000000 9.21032942198032 0.00000000000000
0.00000000000000 0.00000000000000 13.48024810343468
PRIMCOORD
 96 1
Ni 5.21848969487169 5.944429430537094 10.732973584889494 -0.14603608845787752 0.7837365211389727 -0.6353368175449252
Ni 4.3693710149957115 8.407464905319227 11.225272133813988 0.27643472748881426 -1.2285286262906843 -0.5718619369197313
Ni 9.099915883608404 3.6358143369897853 0.2612998056630238 -2.0067097648290666 0.3413486545533798 0.07488697911687749
Ni 5.111428826956054 0.06024752712461756 13.589168544921211 0.09188119968202886 -0.4796668055417094 -0.03767154640884479
Ni 1.2242922340462772 8.725405473148525 4.31456863455999 -1.7100836499940417 1.6198770098009585 -1.0339706789730192
Ni 1.4937588387097136 2.9901886729197313 1.7142964899393038 1.4549026896776815 1.0953485678598684 -1.4792312391207167
Ni 4.207379743066925 1.465133135209903 11.86415491579517 -0.7499367989807084 0.4631711218795314 -0.5369481557616818
Ni 6.672220442394089 1.156430527679931 1.4337185439946025 0.998687430290693 1.090823426296005 0.021719136844646467
Ni 8.890822987581151 0.3406992915577528 1.8428174251504872 0.9002967116249204 -0.3289754777000076 0.5594463368641979
Ni 6.428671704412913 4.714472843964311 12.562229721161884 1.233415007848708 1.7113602027136203 -0.09840948771884987
Ni 6.601862736784355 4.321652298833382 3.315332639303472 0.12512299245429417 -0.15110347567845592 -0.055557939770962385
Ni 8.73468948509441 8.99875883678137 11.185734953178969 0.6279819198417508 0.371794886858379 -1.4124650893387611
Ni 8.367878909938858 7.474974324516514 8.124950027120338 -0.8677424318379829 1.3630857675746848 -1.28804452226813
Ni 9.003271898143954 2.4955755682392837 11.76538518632565 -0.29871410771230494 -2.6293545887286203 -1.1231131395676464
Ni 4.287537239063981 5.544618245458819 7.902552810402779 0.3995437748368732 0.03130009566486222 -0.5249282484826702
Ni 6.164289201529366 8.563745773074949 6.775401919603767 1.964575554663178 1.6032198608602517 2.113040307167206
Ni 3.602813727067063 2.041414229894476 1.1768664063560506 0.31607111093351375 -0.49722049815475655 -0.7176350015242092
Ni 3.084548496714957 6.717240532068179 9.95846594069925 -1.3528309226158959 -0.08268359234316083 0.1308778926602004
Ni 4.307081557862758 5.032312098171185 3.3716252510217775 1.0360828402200157 0.4335705254042791 1.4010887291810195
Ni 0.8183432855148893 4.456288892707331 5.978961718224301 -1.2290433611435736 -0.7865405662466712 -0.2495628427986347
Ni 5.753849296425742 5.972281466374748 1.8342840550434811 0.334266808005934 2.212678010866202 -0.7504451060756947
Ni 2.519835575645494 3.801112117141362 3.8778092924161287 -1.442740857504167 0.23436325224006088 0.22841680484863885
Ni 8.508668003792817 2.710489392391337 2.6079019814222444 -1.589594042546701 -0.24940060618915755 0.5569716500714601
Ni 2.986799271733139 7.6498508471519395 7.465550315565096 -2.646909566893248 0.8816258746882946 0.37688592822804123
P 6.591372171698677 6.216824919921554 8.372231711571422 -0.8073693300665644 -0.9321063999363496 -0.2504578438090783
P 7.208132663706825 7.628142100964985 2.7157715162514213 -1.3995008158686093 0.8644905005595885 -1.4591799768967968
P 5.687175722540566 5.454237283926116 5.2554636408593485 0.0825627504945804 -0.1796954283835357 -0.6053968354523832
P 1.6820087595052833 1.191549513344274 13.26941722634929 0.9299219906905211 0.11563896422325891 0.15206378270919618
P 1.1334323353893816 1.5940040629349193 3.0950510352287384 0.2023231930853806 -2.1229107722033826 0.8868385292374856
P 1.3283965862529568 7.100417862410079 11.294426049382723 0.2374496044748685 1.3963702406594274 0.3758060649003012
P 8.555419635377449 8.368007854549216 6.046484484471988 -0.48277166971927826 -0.10057949878697517 -1.1121507270188717
P 5.932087589259828 1.882462366638449 6.835685367012698 -0.42323751890938727 -0.04863550161951624 0.5145253079817914
Ni 2.3606350334980593 0.0005581459562704393 1.7178286512302232 -1.2479157725680443 -0.07120670205181284 0.8636052697411577
Ni 0.11893114033216054 6.072895103772409 9.656481347369008 0.9815399719771289 -0.36920655730591256 2.1007056968612527
Ni 4.805047222412553 0.3640668180536889 2.5344615785919866 -0.018594218062419593 1.6252351887890784 0.18312682266258787
Ni 1.405726511151416 0.46620200185359245 6.566282313621511 -0.5368296279059465 -0.9053368451519892 0.9815633690158966
Ni 3.048526898778097 8.323365388376892 13.095157795777729 -1.3008457877978563 0.6090843116062994 -0.1176022585972168
Ni 5.786030187039751 0.856917065703936 9.217645075965427 -1.5179960185937407 1.3686640329934106 -0.9854380214799545
Ni 4.303977676884819 7.748677680663191 3.731656102771214 -0.5634518584791651 -2.600016758996451 -0.9132596995434917
Ni 7.365500350321292 8.177759292293075 0.5233594634942376 -2.1896229288189515 1.2693361472253495 -0.6538212495023579
Ni 4.4313012692855205 3.090461528132871 8.243521964609355 1.147034169159618 -0.2902163546539389 0.09149399154593921
Ni 1.8016048856137263 3.7399463201843988 11.605927675990426 -0.4723569021438575 1.0393262868579778 1.2844586046890847
Ni 0.8456159916388563 3.534463873247212 9.306035685333937 -0.7048974993528828 1.3341821971664571 0.26159534848313654
Ni 8.009274738199755 1.0399567032080501 7.220519635597718 0.6186153910251863 -0.6718115154321914 -0.9601766758100044
Ni 0.21231190612158465 4.932103715263224 2.425244572584553 0.5588197590237924 -0.933382952655928 1.4190244877238336
Ni 0.4633044322522281 8.534852970025108 -0.23933224922241944 1.5820049173455335 -0.840447857788088 0.9012045681511704
Ni 3.803534433750259 0.9797764114874058 7.191227104255762 1.11368696115774 -1.4582116994462564 0.64711144158235
Ni 4.830154580115411 7.843682227510214 8.703697647994503 1.5887126683830124 -0.36030411260996015 0.732862359996925
Ni 5.023193872152905 0.2842676038668455 4.960650209930957 0.3887014328057306 2.2998255525179876 0.1596706485221766
Ni 0.7687014525923412 6.81896861931252 6.604660834829156 0.7532532649484511 0.6117145501402949 -0.8930739686242362
Ni 6.261881850912891 4.266611370868495 7.021605074492485 0.013684953686260302 0.17421203667146126 0.013915581639827647
Ni 6.055432319398007 2.4767588654561075 12.950919433596653 0.6965455278437618 -1.2745763125783662 -0.1789832328078595
Ni 6.89029340949995 2.6784282360583767 4.955136906805157 -0.23200452219989723 -1.2273472043880733 0.4126867399767344
Ni 3.6927157514755735 6.154581514435158 13.255829227516195 0.998525707901848 -0.8303004849414409 -0.29373233822699735
Ni 4.4818383462171365 3.3633820062880804 5.44087033299649 1.3760194449172172 0.24809011490785018 -0.4762981461797927
Ni 0.9526796226532864 5.6755799179375215 0.10176861269331008 1.9176516364181297 0.6470764745793566 -0.9083406649753195
P 7.979599057158446 0.7592138923686749 12.982664675634233 -0.5533106562801051 1.6168834743902736 0.6853355180605553
P 2.826815851594236 4.037043912782015 0.1522476645502638 -0.18579717040589938 0.7232338357682254 -0.3793734705365854
P 8.77163211596241 4.568572017342528 11.666749927664076 0.7453062421872326 0.5581541004153355 -0.06624961515685365
P 4.166218781374308 7.738804207641377 1.5316528965955796 -0.5206918418038194 -1.0228164621284126 -1.0387992107099142
P 6.195631952176038 7.048370291471394 12.32736356062256 -0.29763527282582936 0.743205650904462 -0.31776186837237536
P 3.421766283793003 4.564906306276593 9.682228822959008 -0.2927774305128958 0.28236189160652664 0.17685693049347606
P 2.846139122489539 4.952596697981075 5.8324990615145245 1.0112724660445551 1.1801798026736514 0.02083416313653186
P 4.991289291418239 2.3912777991170655 3.5047835870412474 -0.16840160063727125 -0.2025908449244704 -0.5156236832522926
Ni 4.284267572158437 4.029694069991523 11.660899526485478 -0.10874300843437401 -0.9782384184077216 0.5311932555557755
Ni 8.522953224554787 6.671732294940584 12.104642140313238 -0.5536456710220207 -0.6359286854926531 0.27338514202921305
Ni 1.8576497394735552 0.385602410049589 11.165230918065944 1.6694597058250924 0.01594186804123706 1.1653082848784577
Ni 7.741355468860633 0.2552366458773336 4.0929266648459635 -0.06651315323088546 -0.01789564933349821 -0.14827834752483496
Ni 0.14292312715540917 1.8473802222913516 4.9803722880854435 -0.31852034380495464 1.2371063406573661 0.5831953596546794
Ni 2.917712591568377 2.53739046331301 10.05281379106637 0.08739462466558498 -2.2352024172209637 -0.8161563322305752
Ni 4.8562106017373425 3.998959201079404 0.9678075885472501 -0.27977921848101495 0.2911769187949953 0.17070839439357696
Ni 8.823836262499388 6.922934816579528 3.779659418109265 0.4185431987575114 -0.2921935329849677 2.2294061222541606
Ni 8.5860992423137 4.83986226720962 7.877357954571462 -0.7398719585455387 -0.36379644203393474 -0.4169036062715594
Ni 1.8185426812173788 5.31333766612042 8.183305752604396 0.9466519018506921 0.44673868735512096 -0.6131127160394021
Ni 7.809631640045993 5.859123360454969 5.782810255912488 1.0698110857103962 -1.443092584416631 0.3954073840709964
Ni 2.150961886724189 6.665644267265754 4.456084423396618 0.758805562225248 -2.1269096089501303 0.030681231133940706
Ni 0.6788795580488395 1.3657352612813456 9.403875171543008 -1.4953749387601147 -0.7814089014470607 -0.8482023049225264
Ni 6.6217478377676535 7.497742258574277 4.813216784511758 -0.6938759514313986 0.44574572731423234 -1.483063982603246
Ni 7.285794160460494 7.282165290711805 10.171911638359067 -1.810416837098166 0.9259010424565861 0.6516471246691744
Ni 2.660891769049484 2.9473698519510636 6.68817089069556 -2.0116601668558065 0.061034646614817466 0.8509181611917925
Ni 2.664861420982694 5.669049794455744 1.9341323140753657 -0.30595510554543437 0.27070656675578536 -0.0508888164300672
Ni 4.595696437164581 7.196085552967522 6.0345681604089085 -0.5172745885921542 -1.6656850692740086 -0.5837327202153882
Ni 6.423182348143324 0.2533466863026356 11.439891227428076 0.44634813678492163 0.36458037138781085 0.7312975866129664
Ni 7.314364601984435 2.7321797179196685 8.645610864126338 -0.015173108196012577 0.20463770015117014 0.9037039375342565
Ni 2.6863583295954863 1.5832648189578347 4.6336595725202825 1.0317754710939133 -0.8628714768989267 -0.0764898048276231
Ni 1.1460965381925476 8.350268760295473 9.25133277645478 0.8897395049343645 -1.4287352872536943 -0.5516867475234369
Ni 8.098218888359881 6.247440054552626 1.0474640426297668 -0.1357825290506694 -2.2160099034529126 0.3476815387499432
Ni 7.2428740258694 4.740344659000015 10.079518219871824 0.039084881816603655 -0.6849490812554139 -0.04789810923285945
P 7.044999310943425 4.052719893270007 1.14791742029741 0.8085108998701753 -0.29145819748083995 0.1271924733888132
P 6.153172334050515 2.7413163645965706 10.705527724574472 -0.7621518529896616 0.10246771694862354 0.20181848553482018
P 0.6457481614498952 2.369780890504273 7.297856007726694 -0.48075103974482364 1.1475455615783978 0.748892416876594
P 0.7742700176940096 6.99869898549505 2.0937252162514657 2.121018697386992 0.9306233876329197 -1.7360062833970746
P 8.557759059022542 4.116998781534221 4.379395537418232 0.4013767142805539 0.17699011363723066 0.2779100264827601
P 3.5025040305366772 0.27051013497441717 9.44911446705471 -1.0352474888029137 0.2841431518766655 0.04869283722001291
P 7.760061647692074 0.2326842335254557 9.30403980697216 1.5839311878339688 -0.8687557035938458 0.3465487106970806
P 3.031174638355432 8.64400458269443 5.359423390895839 0.3117418874305405 -0.0816032147947885 1.0691125169814748
