# total energy = -340870.88303385 ev
CRYSTAL
PRIMVEC
9.25891172935530 0.00000000000000 0.00000000000000
0.00000000000000 9.25891172935530 0.00000000000000
0.00000000000000 0.00000000000000 13.55135322105143
PRIMCOORD
 96 1
Ni 0.903745683850168 1.800339784470588 6.864261614487304 -0.45026469823050835 -1.8630612027667592 -1.2820690214109856
Ni 2.8261160698891534 0.09740560058725124 12.504131255653027 -0.2090376289910787 0.6423721271251518 0.36270269474912376
Ni 2.3920212639032705 8.480931445971317 10.314314433743723 -1.1445237440329386 -1.1560859949492412 0.5513023676008247
Ni 7.000940739913526 3.6346227384391763 8.74838714075312 0.5071737527127266 -1.4419913809326521 0.7139482967012413
Ni 6.101928211613652 4.956906405200884 2.7968773533158484 0.6667405286671872 1.0539764326709848 0.4720118600996129
Ni 1.0915145569504263 4.018312030309644 5.853398657794989 -2.3949856800616045 -0.4040524613405041 0.030389925145767018
Ni 7.945423782508184 6.575521533987552 12.706371807401778 0.018064056590562438 0.1966621381448613 -1.6989870258602482
Ni 7.159444045597178 1.1858906417003219 10.070443964183486 0.2756525979071511 -0.18963557031538308 -0.24063108752664367
Ni 2.7378323488953087 5.617631587564988 0.4534422274215136 -2.297025106954715 0.40005336748344006 0.3552179563363044
Ni 9.117898261469117 2.0382752917699913 0.6583799000853676 -0.6585471942231175 -0.6549779888146203 0.33437813677281764
Ni 7.896008971921489 4.041579674867329 4.006308777462615 1.3944408848471985 -0.9938169895722692 0.9606847257946746
Ni 3.6829820331167693 7.103372077653946 12.353101743318744 0.32000849831470696 -0.41059129090028645 -0.5164718901852008
Ni 8.829825748487314 5.663500235053557 10.098996595415873 0.018184898439142876 0.34907456244272783 0.47474751386322106
Ni 8.926664703691785 1.2726096066534782 4.8274797851395785 -1.6989867687499323 1.2166588714362918 0.1217849292199967
Ni 2.7325825460842434 4.439212887431738 9.542957295738388 -2.667890025799657 0.28721587726471826 -0.7458400032035155
Ni 6.953118462101968 7.955247487592031 0.8379638954343351 0.5340289252323577 0.9133599725667819 -0.36426566836086943
Ni 3.3614107783881684 3.6582977751021297 6.2042021478588545 1.414234522534358 -1.3525133913754772 -0.5004518606078607
Ni -0.14587415042034785 6.0244403814094065 4.59942446228407 0.3473023010336535 -0.11950358938498773 -0.6738167187876782
Ni 0.12927477391297876 4.679389051310114 7.913123143907333 0.3864866845425989 -0.3754854483360888 1.3073920735568063
Ni 7.198961079808162 5.7870696677104885 8.304255674719274 -0.4553742515429319 1.484086253220173 0.07747093779396981
Ni 7.607121674729151 0.7361167950085157 12.660039288447894 0.8143727579675909 -0.8772344304888182 -1.0548575497243573
Ni 2.416557379334176 4.975266826672389 4.425655063346652 1.2437241030842 0.17354714939395272 -1.3282465484083126
Ni 6.805494377411265 8.28566100278724 11.173049771199828 3.233732495998186 -1.683768666248597 -0.23124090456099528
Ni 0.8418905997944284 0.13791519010925096 3.009998977839845 -1.5657519458217808 -0.3101974257615561 0.5490583087616544
P 7.9846445315517 5.228766564175322 6.30482151662198 -0.41936029534216807 -0.7086965613839988 -0.38114110395996936
P 1.6542711969090895 6.227034623576822 9.022490733979975 -1.0717808078422575 1.868381072317776 0.42471975988186855
P 5.122668697487492 0.9983791663393009 12.381993250711423 -0.2520845807792239 -0.7651155636036759 0.8761005739946911
P 0.19348439915893687 8.954182188620333 6.167897955932598 -0.4426825150078763 -0.20022543001608742 1.1081475193967496
P 4.417630364764024 5.460804144859824 5.83864087878166 1.9538918496970867 0.611085144086412 -1.1709564843031703
P 3.9618048935266934 9.084695804889785 8.942510404804409 -0.041610733562250916 -0.5555806832612045 -1.8988902966502266
P 6.643380096249103 7.231015431363556 2.750395765887081 -1.1496096431962781 -0.739544657113107 1.6092871501002541
P 3.047098510262523 7.81856743627466 0.8779179502673333 -1.22861193003311 -0.0015197790786360924 0.3678839818397471
Ni 7.885879722758692 3.990627884974395 12.657993069010072 0.41334031440033336 -0.02457640378778348 1.1387295059486646
Ni 6.961923686922645 7.570336019405759 6.698989118618167 2.419704522964523 1.03318829228104 -0.5842991342418196
Ni 4.792625538751616 1.9841939897956813 9.3284394273627 0.18882078772357158 -1.2933679913635727 -0.05199773322352981
Ni 1.5674874195755497 6.112770396960668 11.619363562670303 -1.0270312715407086 1.3430589308307967 -0.8335130783414678
Ni 1.355439828783623 5.258265456161309 2.423158057330664 -0.44751438917888087 0.10429088620029135 -0.26905026209928506
Ni 5.917296257723956 2.58696764518543 2.8226523111032282 -1.345812582316534 -0.5383172681950665 2.208344930708487
Ni 2.7620536613357807 1.9404363741253188 10.942730644486637 0.6787180127440375 1.157365375882297 0.37201625884056577
Ni 5.348669467884843 8.337038702608409 5.0383931592747935 0.6428976606113186 0.7930639691874858 -0.45410438369157274
Ni 4.836364636599011 6.322058832130553 1.0505485030922967 1.1571581449674975 0.8426541214107875 0.11382145139854591
Ni 2.14836374930715 8.114065596266117 7.558632755290791 0.9414065942913528 0.9774166938373748 -0.20371930210195885
Ni 4.5278762237964 6.4062223375143015 3.5335969034619312 -0.21752329786458668 0.5754092879513575 -0.5106611970406947
Ni 5.801865408260898 0.33121718871196565 7.483626313364087 -3.4124524478423295 0.0035905455647357518 -0.1959666547397335
Ni 4.8324203403071 8.762226435747298 0.32956632479448245 0.5411681073803002 0.5861125333014745 -0.3937338530233154
Ni 7.948747731730711 2.791635883525118 6.713353393893453 -0.538991925664588 0.6654902011998538 -0.5197096803962082
Ni 2.1247164893786468 1.0599509277036496 8.859617222076176 -1.4785694371670022 0.23332144123910784 1.4807484470961918
Ni 2.6438543973391977 4.212193636771217 12.176324124040383 1.2866409570523842 -1.8010539078260273 0.5231796412226797
Ni 3.118429164330334 8.84485296182481 3.392012406731824 -0.5181233097456948 -0.455398419912648 0.3769736028458411
Ni 3.4268064701951455 1.5016935945747887 7.1902669619252855 1.831494997924704 -0.5619248803116774 -1.6923366104232662
Ni 4.835929467759294 8.824066705544665 10.811147623940858 -2.5877749655146207 0.5599790694392163 0.4353867526774115
Ni 5.288005079845863 0.05964868544925464 2.597428363379331 -1.2494098406150675 -0.6642470728213722 0.1341218535187948
Ni 6.474247560182553 6.317447894211839 4.944820748041654 0.6791620422599917 -2.0213182587708607 -1.0564662889723742
Ni 0.743652623064823 7.707534569766198 -0.19493619647952784 1.4950039285739414 -0.11918708658583345 1.4644772207399939
Ni 6.001348656169905 3.8870021476526224 5.333161717041362 -0.9935580794839276 -0.37778504300354293 0.9611989464269316
Ni 4.0573846367694255 6.5546797242385075 9.995735659206545 -0.3548490030326598 -0.44991888485531545 -0.3921749931766278
P 5.781930971837223 6.692656023163548 12.538836433566109 0.03024491492747049 -0.394480758491669 -0.13412699572511738
P 0.12429162775263404 5.507635719142662 13.780370355607984 1.6789311356506373 -0.8720608567076787 0.794533868864793
P 1.946112086864619 3.3005519532080387 7.813818540574844 0.2239294585012466 0.16124082122277392 0.8396644426548442
P 0.01810765318800852 8.09989020278509 11.44707188600563 -0.5314171986411235 0.5830642333934539 -1.7935701978544725
P 6.315762772321867 3.771608333835498 1.1175608008442683 -0.8536016215612267 0.2827367584474421 -2.7230599861035816
P 6.491561724656438 0.8783429343044195 4.49037670639764 0.5189776873261901 0.8094475527518317 0.7264752255236584
P 7.116399366111033 8.02630037431534 8.790545742410306 -1.2272657004178604 -0.26920349984769765 1.6746366220403417
P 0.3596883415232998 2.746517207866701 3.083623990173233 -2.572644280520769 1.0906473057294572 -0.895671297037767
Ni 8.07900209847863 8.431090725456386 4.294179446174079 -0.5132189304655419 -1.8476366406815727 0.46665008156706733
Ni 3.049681746566381 7.0431521173661675 5.139472695938642 -1.3174707979490472 1.7607649783989934 0.8350485411493878
Ni 9.257911520920498 7.867935952303939 8.940531775420414 0.7751017282821102 0.3415137193763344 1.1045837133048912
Ni 3.874067448310367 4.36888219580413 2.1649233124951404 -0.3825672948835347 -1.0427085730666492 0.23611185950005142
Ni 4.795245810701407 4.486072238449026 8.386674801179558 0.3249825544905306 0.22915908233130208 -0.2845828105172454
Ni 9.342797221399948 2.229990312944458 9.056518159572473 -1.0449163793512455 0.9255477728822255 0.2491802626482354
Ni 0.5237173655802213 1.0964865924169909 11.213717688108195 -0.09344648728661972 -0.6450967251451665 0.3879149323486932
Ni 6.425656792717875 1.670455774182004 0.7324789686867034 -0.8392646361132644 -0.0060955713747766 -0.936948044299367
Ni 0.8496958621749015 3.907149539040415 10.983357822184477 -2.211744186198023 -1.637156879927329 -0.4435024398060104
Ni 3.9365743597345353 2.404752267192891 0.26035225789176786 -0.4742500054015122 -1.050757668623371 0.3630896457748972
Ni 0.28812991823299827 6.880223051993469 6.7721391487924585 -0.1563832360201565 -0.31728338607406004 -0.1542721032144246
Ni 2.1765571347739834 0.7181470996016094 1.2547510181843722 0.8209005317837798 -1.4856772518563768 -0.9103003598048517
Ni 7.372371232980024 0.686700132639523 2.6045290225959197 3.5189380277010947 0.18363872930199987 -1.271990554129061
Ni 4.217286038087066 1.5924124092887568 4.668549643636544 1.2652910306216982 0.18532511586548728 1.4520942736946088
Ni 1.7625171310610594 2.051432204987847 4.3405119651279644 2.772270129279645 0.2239366575900982 0.8248700579544891
Ni 2.8433746808941374 5.793699048332575 7.165129017247962 -1.2862995145525653 -0.2322742309215161 1.5832531879303378
Ni 7.8924535499118775 0.4903436191384477 7.791390679288699 3.743406646535263 0.8983894672998786 -0.3133151454549314
Ni 1.849134247987899 2.966314507570201 1.5764157879189544 1.136850543758397 1.6221645202835544 0.5578815634802392
Ni 6.394982018973502 5.108771071350967 10.991732507621178 -0.718362366608537 0.2381846828686801 -0.4760400074223995
Ni 5.9449526263247545 2.66253888071262 11.56605260213141 0.45830325226426877 1.2313725234973825 0.3252710322652269
Ni 8.292827400275362 4.227368992692445 1.7254120432914917 1.2751926060061263 0.08801940273377744 -0.5137195242510443
Ni 4.706934312973113 4.406334492754324 13.02039704927144 2.3855163071185883 1.2832280747160933 0.00935084508728067
Ni 8.7678465950177 6.828873128906752 2.218762956879735 0.054235878525429174 0.44379837377987436 -0.6281742383582148
Ni 4.991821760404638 7.140009590393604 7.711993661536584 -1.2184846117911208 0.02142500264299536 0.3400708162822208
P 8.952645209314095 9.04027154759262 1.1884914699359979 -0.47081038359234395 0.6727833924271575 -0.4964106006589515
P 1.319293038352583 7.297735147512654 3.605107180412519 0.629402197228045 -0.2101285480624123 -0.40780241530123956
P 3.5738472434623967 -0.18515878595309893 5.729213507524412 -1.7781410077835957 0.1142071168727388 1.0796951775933277
P 4.325856034140953 3.688037398786684 10.480602632202585 2.0828079906452257 1.019361927920909 2.3494486148617537
P 3.6681585158319083 1.8659669490646484 2.7150545007550937 -0.8996400518775282 0.42168740081344797 -2.065756177369262
P 7.961052825092097 3.2272584099057555 10.613121728699333 0.8340157290094992 0.009335675578629082 0.304442782665966
P 5.576447949286999 2.540923078378677 7.417590830773609 0.5703028199627275 0.6505747175406021 -1.922133326338567
P 1.6784462147921444 2.228666288602337 12.983808608762644 0.40651146440395797 -0.4417144946676522 -0.7935187973367173
