# total energy = -340872.6864382471 ev
CRYSTAL
PRIMVEC
9.22781421408769 0.00000000000000 0.00000000000000
0.00000000000000 9.22781421408769 0.00000000000000
0.00000000000000 0.00000000000000 13.50583886407516
PRIMCOORD
 96 1
Ni 7.757638996939519 5.141876592377188 2.7169693816080964 1.1786019166635702 -0.6110008119027219 1.5047355540394085
Ni 2.3744273749589637 0.4887447294161914 10.903696210748086 2.715696346649658 0.793528053308098 1.7440648920354929
Ni 6.170131949265625 1.638998251940587 6.09985845160029 -0.5069418392075785 -0.2439087298366509 0.7540197108008305
Ni 8.183124290404196 2.313745267565099 11.827522237807614 0.4276307628810765 0.0774259434886473 0.11436395416557724
Ni 3.513536466050943 3.900274166914215 0.1909945337904495 0.1501735076650188 0.5217624491601788 1.0100455356159896
Ni 4.795030733099026 8.65944561331425 6.487124906227806 1.0325519442486217 0.8906854137874014 0.3811485601591371
Ni 8.793737996054961 8.76700501778245 6.261712470345258 -0.8734698212400634 0.01015457193549864 -0.19537581523327
Ni 7.662509458447525 5.6781510253447145 11.277024051747492 -0.19851076131782586 -0.5725396797130462 1.3267748489587925
Ni 0.7703397903986184 8.53038540132967 10.057744632062576 -0.13167930551557322 -0.5114376701954031 -0.28757171794224023
Ni 2.3368517147844177 0.48006689276880843 0.5790628854879967 -0.5054845379357616 0.6074840569987151 0.37628171898513907
Ni 1.2577695562649884 2.0288272706227373 12.322012204459726 -0.4391163949231728 0.19626361715486199 1.420958985742385
Ni 6.028494226274683 1.4877174629176217 11.327428219479666 -1.4445496285781314 0.39668625078342007 -0.23416939106169993
Ni 6.748309887354127 9.241286993713484 8.184012006148006 0.13199040899808884 -0.28707652347337653 -0.9372146676971924
Ni 1.5772088068205568 5.615974012020526 1.1494064091638792 -0.057091602806669424 -0.15579316784464137 -0.7250336079811255
Ni 3.3178883454662835 6.015473780177855 12.409299946287591 -0.3348882436400168 1.068138840214296 1.019467857371154
Ni 3.0729544682528775 5.62945584883659 4.262929117796266 0.06584415218831885 -0.49199910185481716 0.02861432130258298
Ni 3.052736326935974 3.419901833489272 8.534258315026934 -0.34110182864989647 -0.5178903677992823 0.412287961876419
Ni 3.2058534510214973 3.652147465923699 2.5815465916052585 0.07287791910664868 1.0234037020904503 0.6313408090116547
Ni 8.260850170966624 2.458372802416687 9.345635118775803 -2.4286846149759462 1.059303501310853 -0.6119300085852106
Ni 2.845682627771811 9.065164928366874 8.530423235368648 1.2751571247825009 0.4382856714917613 0.011360419318141725
Ni 8.503209487966695 1.6249627462614404 2.3032320186365967 -0.6406893401060901 -0.03650092313951134 0.6178268336856199
Ni 1.5694758983661685 1.359949144946902 7.005640410411954 0.1141765207451195 -0.2485439146158171 0.5325711097399087
Ni 4.4887226624129015 1.6908401131538981 1.530130343392634 -0.6360410427008013 0.6884174994199886 -0.09806881654997948
Ni 6.808964311304838 5.7489006782323 7.454197085401288 1.7315505616185665 -0.15182261323266757 -1.2086025767907185
P 4.529952537083794 0.4449366034062106 3.324408719110521 -0.6321931297096209 0.48517796516792566 0.20725302628683015
P -0.13753134558974472 5.609652959166999 6.996672820392892 -0.05703015344111469 1.163603643482525 0.7189640047482779
P 6.817306255508617 7.190968143388753 10.021076066042047 1.8636862379452679 1.7907432699286383 -0.6978681033099272
P 5.5097987797100325 0.7784418114283953 13.454827926141332 0.5277834585432781 -0.17136942501634359 -0.592286009102038
P 3.9152047705886788 2.0734898922447424 10.342028678156709 -1.0378964963899868 -0.8090683150355421 0.75728192649187
P 1.0918811370710242 8.061114128609537 4.892071351950094 1.035685604781597 -0.4750776435091302 -0.2353083897621496
P 3.194761618131074 7.737337805293153 10.54449523079023 -0.48934263806857664 -0.9522036849068568 -0.32090709886957636
P 3.6649464444752944 5.487430557641491 7.730283141196041 -0.15586335896094447 0.7318017799428946 -0.2694858069748069
Ni 1.1450887148132725 1.7493536841673556 9.445767978227188 1.3445154607716652 -1.4508493455439144 -0.7517537975847892
Ni 0.7667713945760503 1.5246102648276996 4.756486152414084 -1.3946404024525143 0.2032387629211145 -0.28658467143862254
Ni 8.029979482875518 6.667105120768663 4.507317631179535 -2.7165041872629345 0.8241707178946194 1.9621887995985559
Ni 7.806620235693569 0.18486541947612392 10.367514055924405 -0.01071070154928478 -0.33514741083867444 0.06008745221019974
Ni 9.001751387915133 4.719141187599155 4.9736599956139615 0.27521705303162924 -0.6185403148128767 1.5601821650434873
Ni 0.8812876483088853 3.788608385044817 7.415678342596623 1.6139930402163558 1.0873490945941597 0.5347354643810791
Ni 0.9159740797995785 6.113657725231188 10.387286493806528 -0.5083801143160018 0.44525387527947835 -0.49067755482991615
Ni 0.7186935588502634 6.413377136446627 3.37347485375691 0.8703708705997656 -0.48188001114294426 -0.5173836033661927
Ni 8.62550571200728 2.375193283552895 6.795057995027077 -2.9075214684171926 -0.9307439723711841 -1.0366168583466149
Ni 6.098847083143725 2.219353954223882 3.2496532719985316 -0.28848908755018704 0.22749634991689854 0.42824782763978503
Ni 4.548445077110757 3.9702394555790996 11.239113421910782 0.5663093825326182 -0.6587716515290978 1.0411535698747036
Ni 6.3757091981282334 8.310237433553601 12.083214823812156 -0.8871087521797366 -0.11942002853224594 -1.494643459910729
Ni 2.14961013310423 8.371879233643476 2.8921271403515036 0.012995383818403426 -0.6418977585918946 -0.4753200985372395
Ni 6.353248697915846 8.88568393858423 4.4050780617041205 -0.4880414027586498 0.19047246439438165 1.1593091298722291
Ni 2.7479693012520974 0.3143224274792458 5.103694664797566 1.0549498523278475 -0.6481249704485289 0.48531269097357704
Ni 7.096724475077691 5.534049475913054 0.5151602708738674 1.579030665208558 1.9544266391546339 -0.6835462873706163
Ni 8.893564492068773 4.2368125575246545 13.468981547844605 1.112665204761445 -2.304555353893489 -0.09854575618639802
Ni 5.075870036083345 6.444465643108722 10.846445004742455 -0.31688949306975106 0.4727510522584826 1.5170603941533485
Ni 5.239839069885289 2.1392011584782753 8.718330142465973 1.0396913835068804 -0.6070189444368385 -0.8725102855402715
Ni 8.438910077334022 5.014661943269552 9.123505016469899 0.27347255953669675 -1.3521570364773228 -0.5657733075234901
Ni 2.50645894317542 1.431972236219578 3.1085313838316955 -0.29018370164379054 0.800308566565041 -1.5975752609799647
Ni 8.539520937570535 8.662250868887202 3.6738854282697644 0.9125264209218931 1.6909297027734103 -1.0259192694234525
Ni 3.8352457589451503 5.954201092663368 1.9061056443390165 -0.5464103296158461 0.7040330944700585 -0.6565239931455016
Ni 4.073729393903642 8.592442453066857 12.669503087963381 -1.8054553793278325 -0.21274773085281426 -1.5090452371583558
P 5.236424778562945 5.461934106496532 13.281493583520344 -2.378027712051027 -0.0011557108709980095 -1.460268324864969
P 1.5884206012979818 2.908727055648162 1.3578230565126643 0.12020524343770266 -0.9078565262500494 -1.5552968119267279
P 0.6060210224314938 5.617376639807002 12.355870901000111 0.43014787287597533 1.4005634528051687 0.45406144626877937
P 5.047826708168206 4.4444752924382085 3.783755477459897 0.03329244350454266 0.4871278898054449 -0.22331650750759605
P 7.887963419494804 7.188209026887724 1.8667905411529517 -0.027163190678353218 1.1945067608192848 -0.012877370183300402
P 1.781457250411768 3.997858304032542 4.793438012336225 0.8818241067420297 -0.6812747177276203 0.9244545398180465
P 7.799514818617342 1.9443558577450855 4.61717383864809 0.9072129791287794 -0.5951386480594848 -0.28459412337115503
P 6.669467441251149 3.61017936610203 7.585622386212669 1.132589711599514 -1.3199251730268107 -0.18680427151417506
Ni 8.709109710332768 7.350646243501806 8.641252054473352 -2.3623918052859834 -0.1159626661112648 -1.0929584703611372
Ni 5.439833491045148 7.572381395352045 0.6692140181194386 0.24233187226783426 -1.6803370148592287 0.3474663374153435
Ni 1.427155317110758 7.665268574948555 12.61350871027695 0.06586292124139624 0.5343446567005636 -0.9372591477818826
Ni 0.2603978485593054 8.957134905365052 1.495677375605874 -0.19107693074759996 -1.7322121064619649 -0.8613180163688778
Ni 5.819133573514341 6.562194099028875 2.8590777231326587 1.198090621515801 0.12493015971719776 1.0176549725321313
Ni 4.6553031676857195 3.6642082193245176 6.713982417843 0.5303334786586414 0.58546795773894 1.6301611653357861
Ni 4.096531323248265 7.721641293024759 4.115201960092853 1.1450184242811698 0.1583321322164112 -0.32190083024141336
Ni 5.141387518214799 5.842959790255668 5.712186895921286 -0.5931843525465913 0.6018152887487118 -0.6705686441640258
Ni 1.7329558580057227 7.13258376177668 8.034920977478532 -0.3652676272628225 -1.7134955038890682 0.43805890019293586
Ni 6.113491624572263 3.1557925579844355 13.105985167830319 0.8663393808428692 -0.6107359882771094 -1.176321862380142
Ni 3.556150512879542 1.9092347961968723 12.618680900239582 1.7843502219181013 -0.1797008277001744 -1.0600617196331164
Ni 0.5279832417428629 3.403836208645489 3.2307048779409646 -0.1049658007801289 0.25774769260227226 -1.6600260712160184
Ni 7.655662420174069 0.39891657028821437 0.08573931457411126 0.02499215116896341 1.7178604657259833 0.24075989979502407
Ni 2.1963674685915646 3.979264258047348 11.845026478913974 -1.6311003893206037 0.800766480038066 -1.1369096791311066
Ni 5.324873379440407 7.146296293952362 8.437219541738743 -1.2641571741275712 0.684977363390188 -0.9773447029488587
Ni 6.338382688942074 9.156806353021446 2.094971321350913 0.7682016587281673 0.22699832723455743 -0.44702485113697205
Ni 3.0816932084752002 7.3549094937475425 6.2187902145162095 -1.456447408456982 -1.7501846317799858 -0.2191477208418871
Ni 5.55004127824176 4.163063864962037 1.4948671735028964 -0.9058330680621174 -0.2759575307420795 3.740232105462023
Ni 5.045141414182254 8.884428955827909 10.009163880452821 -0.46167036896428876 0.8568013594454471 0.11222402500443898
Ni 3.047079676718146 5.379326712124592 10.105757873087668 0.14796852959390003 0.9318839995128985 -2.17765084405874
Ni 8.233037538411102 7.5108041899628635 12.932637906269191 1.6696458536939698 -1.3012052280198043 0.8565331933857249
Ni 3.7433920945597294 2.7995435558482518 4.911776426787207 -0.7430120468364171 -0.7442384630443505 -1.398037086838889
Ni 5.398843539548257 4.8831563604730235 9.15107034359991 -0.06855666602347549 -1.7239475524603278 -0.5092383485512391
Ni 6.690977476581912 3.820342838713841 5.138593336019108 0.10495988724285794 0.5163171097748914 0.36622176364597575
P 6.606275368344643 7.557856815510509 6.172884606296584 0.866978814199081 0.2899399610641007 0.1728105283382443
P 6.694963892396109 3.604836461573282 10.694625311359422 0.8820256812298745 -0.14878176952381472 0.13773631034293052
P 7.665000968331397 3.4480651229914128 1.4540248670361622 -1.2779097478269734 -1.7140038109840545 0.41113790743237577
P 2.762355463877863 7.572381395352045 0.7348745313738555 0.7761911046915471 -0.3243050688075318 1.70890762740807
P 9.403511970596716 0.27348473491970376 12.137657083119077 -0.9210059191478139 -1.0590703022541244 -0.34863284691961893
P 3.8088265263617207 1.3039547672604708 6.815302897005696 -0.008936126147365256 1.505982281962316 0.6432213624993245
P 1.1300750608093464 3.7809216156623524 9.735886771356775 -0.1793393305956976 1.8786667705145002 0.23823147694621552
P 8.89444113443532 0.5815322486173456 8.14373721026593 0.4532487205594968 -0.12075083152852754 1.4362858459074426
