# total energy = -340891.6914921517 ev
CRYSTAL
PRIMVEC
9.08191435495667 0.00000000000000 0.00000000000000

0.00000000000000 9.08191435495667 0.00000000000000

0.00000000000000 0.00000000000000 13.29229967245194

PRIMCOORD
 96 1
Ni 6.5294877727862435 1.9410139928969048 11.551207922141442 0.2247668668008774 0.8126845716318908 -0.5521999397144296
Ni 4.232235687258311 0.40495893066106986 5.812270828203515 1.3507159331554222 0.23018392405139068 1.9119630706737845
Ni 2.5589202034345013 1.4593274165561927 4.745417434572513 -1.0083198111741345 1.4837340120870768 -0.42621742747331753
Ni 3.2524787609859014 4.145176455748788 4.7680277686812245 -1.7369596484492795 0.6872774722782743 0.1892308786777967
Ni 5.056165126128217 4.5649425396597145 2.6244053472691995 0.6412536972499924 0.42759399610587007 -0.8499174878414202
Ni 7.434237167967775 6.100830494670453 2.549715683182582 -1.106410739211301 0.10934387524316652 -1.0560448851642394
Ni 4.804505277898625 4.514692307243463 11.57763266030127 0.6536821528213322 0.19554627937286323 -0.027802109813932763
Ni 5.776942181158654 7.783227892901682 12.337859735134654 -1.5783899463007658 0.525051918544728 0.6867233995470173
Ni 1.7130216136130474 6.610925299277573 0.39575985955779475 0.5537279463231819 0.3234188095478365 0.6521302349531801
Ni 2.8534648514959287 1.8709197775004416 0.37907093364272076 -0.4847089959513072 -2.1182635032393584 -0.13912573449128943
Ni 0.4157427958284397 8.978698450179118 4.794838488203368 0.0909885126644304 0.6858960185497155 0.03861334149682383
Ni 8.532267865568008 2.4244806244614714 1.401194082434301 1.142211036739362 -0.12102825355963026 0.18589847187045405
Ni 6.621106125328291 0.955653525435118 4.8969891368836995 0.32958791447302593 0.01266114040743626 -0.08856216261112489
Ni 0.6615093897990579 7.505412131178721 2.8266341517620894 0.5478092668459018 -0.24421032023746972 -1.2505997471581105
Ni 7.596267602910546 3.8201801486792837 3.8196352338148385 -0.6343104331629399 -0.4454461937959425 -0.35859252923549206
Ni 7.741696298316553 4.1065419918596255 12.547333182750343 -0.12796560410941188 -1.3546062693487637 -0.7424332915148116
Ni 8.0631960683392 8.99041411976469 6.849481761400141 -0.18554623073735788 0.4956490399025785 0.41477241886116956
Ni 7.077417832814673 0.74247193216688 0.4424754108866788 -1.2083004721692674 -0.5571081756493244 -0.017785091897562916
Ni 1.9850249501152597 6.552392360921756 9.27814460744623 -0.1870259006066779 -0.17909944667074962 0.022442388163916187
Ni 0.003559202256267678 4.873064649760234 1.1615686789859796 0.29006131713331335 0.3402536217169882 0.873040961232761
Ni 6.307625685727394 2.2152514803433423 6.981859745802687 -0.8739976687190754 -0.21919631469163542 0.418240322805112
Ni 3.425334837902316 4.232816929780386 0.5924087358387663 0.2584246640646388 2.36809682609056 -0.9936858633110435
Ni 6.20656214220163 5.737599327945713 4.656292975726743 -1.7484514511389628 0.17669829342842472 -0.21749707261234152
Ni 5.426770807351782 2.711432792078296 9.418764429173509 -0.10487324106632259 -0.511981201403699 -0.5367422103984627
P 0.27984556959301893 5.648460338036891 12.290671924256582 -0.0922756069069701 -0.20599627106159363 0.6790813096207272
P 3.862765245335673 6.210567266455302 12.837171582765844 1.2101187563249287 0.6298503405090572 0.10342622420715092
P 2.4433528426000892 8.681992306488725 1.4681877322520709 -0.5257283757864623 -0.4110008676338792 -0.2107463841520693
P 6.56282748057588 7.828937168114225 5.670308699526819 -0.9545184490829626 0.6435805456109561 0.8924270790688565
P 5.01691309205935 0.8414657073991926 12.638571003078718 -0.3977347466525924 -1.3891169015311238 0.6255877085779613
P 4.109239320438629 6.182703953053339 8.091766862873502 0.005325525977971473 0.6452785021386693 1.569649481103974
P 4.603577003548877 1.3301099383674289 3.8940987582327113 0.4072925655443566 -0.5682600785010858 -0.18914680360442265
P 0.08038584080295094 5.368601145572261 3.542265394089282 1.6715716099617728 0.5509547544534188 0.14951659080731022
Ni 1.531655782896881 1.208875462942787 2.6300007147356106 -1.1037805006773056 -0.25956032033097876 -0.5591442322427467
Ni 1.7595664249510719 6.476204180957914 4.812636315867587 0.5594211400532172 -0.5914853675776136 -0.23290775074045694
Ni 6.379845069095194 5.627290395553197 8.824225984406201 -2.5402872043463023 -0.2697323757679742 2.242836536727453
Ni 8.645364945683601 2.3028011352308657 10.285050100456738 0.16119736957934822 0.987570494441925 -0.514652577588275
Ni 2.340182294931804 5.304537321342324 7.137486522896786 1.0015151295474751 -0.1909242072198196 -0.8124102349245814
Ni 0.3947254295067896 0.04508898045851529 9.556299124576586 0.1733661437313982 0.13820785066271035 -0.5327922246117792
Ni 1.5484845702938292 1.1373826327275809 11.627120011907298 -0.03682951012352367 0.20791097158580324 -0.3066991828003105
Ni 4.007866991823014 6.883873154878157 1.7892497540002816 0.5117809124674347 0.5669174484302623 -0.7811757023903321
Ni 5.878577885292084 7.953096019978055 7.818650083664941 -0.46911139862336626 0.10862010970326454 0.2863049354146746
Ni 5.268963462608462 3.3003495318274094 4.582228147351356 1.4822592273137634 -1.1445399419828546 0.9825226476053724
Ni 0.6452227926922327 7.252399077702423 6.8991825379947445 0.06038364329437988 -0.14297416170310215 0.37513552119583776
Ni 4.973129182701181 4.890338450963146 6.643969844848969 -0.2775243610085672 -0.6867462823651528 0.0932935066485232
Ni 8.273142683695516 7.121964622983065 8.993915197768748 0.7861651851851235 0.2980512773173254 -0.05750323642279129
Ni 4.991901499781317 0.32443232018480395 10.190169524259545 -0.7442867997837826 -1.0011837143499853 0.36985601796445333
Ni 8.204319936316091 6.87678926164037 4.822126916423341 2.0604067401318904 0.7042884050139742 -0.22360241417913104
Ni 7.44379134192438 5.956891233227263 6.92944892594891 0.9302847733465784 0.9066457937713999 -0.5583541322412836
Ni 2.271414039038824 5.334180689968141 2.573269628198224 -0.7542397972314365 0.6659074912429306 0.8880999124484124
Ni 2.460245203397889 5.277282496205658 11.568753272585134 -1.3353723608198165 0.1852731795816293 -0.7041408236925164
Ni 0.8402487308685984 3.270370132368518 3.8368890548060537 0.9870256776820484 0.12494301523300416 -0.27044020046827616
Ni 3.504429230476532 2.6644792945919376 2.482164403820196 2.7510893814369717 -0.6725082843888999 2.059286767594834
Ni 1.4850746439012268 3.5001970583626743 8.545061558393739 -0.9993767430482337 -1.2367705545845022 -0.3700393376198531
Ni 3.6075906962304094 2.991355557943778 7.162409112413626 0.13170861609161189 -1.1377619998290727 0.018825874457251448
Ni 4.21182862558484 7.152434445819957 6.053260335195831 0.1573833951498967 -1.291711429596756 -1.3108900594077357
Ni 0.9089815672953895 7.569203497976435 11.554969651088994 -0.29719330019240425 0.3502462141533258 -0.3120537622440045
P 0.4016440319023618 5.395093089898704 8.126579657180022 -1.0109212533527234 0.552174742903449 -0.08250027268776113
P 8.809811169858746 1.6638339651824636 8.173767468058092 -0.1589849353090617 -0.3336839389192705 -0.8514352100375273
P 2.231898629452142 3.2814591498599768 10.664385317808714 -1.2892395710174958 -0.9336737444234694 0.03953431064919643
P 3.9718572011975954 6.087561817721213 3.8953747672069534 0.17450822775564137 0.4471523778537719 0.39901592735786123
P 6.67671468724492 4.118702675251161 10.46535970452732 1.100410298653492 -0.09518943811965541 -0.0961713424169505
P 6.506619512308361 7.602643106824553 10.132932575089667 -1.5700618860510445 1.8551995406304955 -1.039666958026848
P 2.264829651093445 8.299925249282996 5.8586340012533915 0.1708634319142025 0.7037536155564267 -0.11183501709613643
P 6.914896974493901 3.8893116811485604 1.3416448778562924 -0.8825350167661252 0.4052066295496054 0.8013802023626649
Ni 5.091412035943413 2.786985238033618 0.32656657007054746 2.1602401047814603 -0.24370561268690932 0.45509297285708716
Ni 1.5978811027557835 0.9830809069455246 6.989210647324052 -0.8109048540236486 0.694492759079791 0.6159429863993456
Ni 7.095509006314252 0.6377738064952672 9.190641270322184 -0.008270210428592207 -0.12257194389766632 -0.4968150351862219
Ni 2.7950499780274067 1.4030740387166365 9.177947478554932 0.25412835068213013 0.3220550964310905 0.6028311316077359
Ni 6.25175374829295 1.971265849788019 2.475026019095964 1.3145425685586587 1.4853622917191194 0.7704410895816474
Ni 4.091729389461125 6.945357715416387 10.552836704099585 0.3804098822208997 0.14450062564995758 -0.4812919998499582
Ni 8.02899357868086 7.262761542041289 0.03665914750554857 0.13631269052252654 -1.2563029681904752 1.3608054561809402
Ni 7.8398899568895715 3.6730712991079035 8.30013776608013 0.4222016214457051 0.3568498355127725 -0.07048499339443991
Ni 3.1718676887056465 8.384668592618628 12.596288334172097 0.623311768059591 0.3615698666962612 0.13854312251494205
Ni 0.18964762846429198 4.759640620725972 10.24809760711583 -0.13718506582515083 0.11894128912361451 0.6728240158571057
Ni 8.487221570107208 2.4168790621024616 5.928512067086958 0.4728073594177148 -0.34241334837246834 -0.06427989302499251
Ni 3.956018342471056 2.2788702907673155 11.506080797642413 -0.515090693566958 0.07410999174153689 -1.0636625496104972
Ni 1.194262662661249 3.4779554499789045 12.795393868300273 -0.5206396484096453 -0.39252492031687886 -0.6620158694980083
Ni 3.2065515198275816 8.350348038072989 7.955242076352528 0.40731544836249206 -0.2352626241258787 0.578595398988823
Ni 5.414973400536545 8.13513391236037 3.853955788360476 -0.09260573655287922 -1.1045268919250268 0.055700121775781486
Ni 3.044866197632293 8.352791073048586 3.6835618184399133 -0.5915704710922521 -0.24461372632347547 -0.24442115069669518
Ni 3.627961430246251 4.254177592466636 9.383326799155757 0.6525467536653085 1.4733745232296238 -0.6803185244619381
Ni 7.284476399389429 6.166756111353911 11.368824008820203 0.5572580709636274 -1.7664010936388483 -0.4274016775894059
Ni 0.25925323686563606 9.01849539911243 0.6615166553305838 1.6759278300479394 0.8187883705367834 0.0025816446842471664
Ni 4.838044787805225 0.303115250687709 1.9129744903554382 -1.4460578376925417 -0.5254373269086048 -1.7964997127964415
Ni 5.954139413161814 5.57839336838365 0.2648013783771286 -0.23430077443324165 0.5414002779957644 0.8474088624869536
Ni 7.807794471373752 8.761940399017238 11.59466034162374 0.9348703358347318 1.2148452152663207 -1.1619180282499861
Ni 9.43311203755435 4.717836568708622 5.87376083789039 -0.811659729911802 0.2836055342056406 -0.1448351261712409
Ni 7.636500483735413 8.665880990329963 2.9952998333709204 0.4838823862849538 0.7147720781541174 -0.3358876314388086
P 8.408145341361806 1.6233740364974099 3.6578418368381014 0.03703339860421364 -0.21264077296130476 -0.2462360924182469
P 1.860947835481095 3.4767929649347544 1.7327175613884178 -3.991439425842617 -1.2946458296347316 -1.2092918895482592
P 4.766751759706983 0.9949691329048367 8.02242099722421 -0.05794829438000988 0.3553827640489428 0.14955875689915532
P 8.623713661736314 1.8128318529505871 12.317881339821211 -0.061784380296648435 -1.0746064502165107 2.3842641798790423
P 6.39284128861221 7.789639724473321 1.4616215081355066 -0.5092355203377616 -0.5704303466795273 -0.2821973410042043
P 1.6981091101560646 3.044620985943293 6.062937114996937 0.5382797300889117 0.03535858200495201 -0.060296740007528424
P 6.888032671676756 4.1636309058246646 6.026277059299947 0.9900132995554627 -2.004347178134161 -0.44002322300815827
P 2.3319359166498677 8.530124533767857 10.18202123065321 1.5955659438594196 0.15695890601796839 0.6499651089810612
