# total energy = -340864.0397012901 ev
CRYSTAL
PRIMVEC
9.34227623865450 0.00000000000000 0.00000000000000
0.00000000000000 9.34227623865450 0.00000000000000
0.00000000000000 0.00000000000000 13.67336560702824
PRIMCOORD
 96 1
Ni 0.14379537710331378 6.549570711547371 5.968383053929682 -0.865475233070361 1.0234780069718115 -0.20013595562607467
Ni 0.4197820903598295 5.071753449060947 0.8852862134174629 -1.0483701422278011 -0.9512611184879293 1.0058489810361386
Ni 6.978792237521075 2.487651896107257 6.471084382886169 -0.7513249375774866 3.489100632624688 -1.743616748754481
Ni 3.869785568374661 6.539892113669329 6.952919738521606 -0.7646175409213348 -0.820596884500432 -2.9305876062080367
Ni 6.383390307054505 1.3222963948457258 8.126573049276649 -0.8135538616107214 0.005618888848674194 2.4543401107605214
Ni 2.062998743070197 8.35749729451701 1.2830083875905933 1.5973446330263974 0.9025883358725746 0.39999628899325956
Ni 8.18317976767687 1.6491919724041852 4.683633266103117 -0.5818015646309463 -0.6470057692424211 0.4172676744791975
Ni 4.445251081976616 3.936405338131723 0.22592519338269787 0.8831590235033693 -0.13353075690201519 -2.0590738802530795
Ni 0.7050811842773802 9.454476678143998 6.097896893797318 0.6283729846325824 -1.5768740238768713 -0.22277014808582277
Ni 7.094197372257996 -0.043610678334447275 2.078132295871973 -1.1874606526057807 -1.2943997750621965 1.971603922264869
Ni 7.063171673847788 0.76890761352717 10.580901047091457 0.9560258868664244 -0.6454515373814239 -1.4064397090802874
Ni 6.412911899037722 7.304538715138415 0.20858873191331337 0.16144933768915423 -2.2695184168940137 -0.36286390291733633
Ni 2.1949116794002657 3.3398916768278113 3.029416083468624 -0.6539660026103382 -1.8849999118213794 0.23422004179397726
Ni 3.1415084471557844 -0.12551347730839083 6.512706090672126 -0.6116317606185014 -0.16886311365472206 0.5521788566685071
Ni 5.455319272496049 2.9355953430728485 4.536370970396964 -0.04720288293804773 -1.0643572616846766 0.45226347382809207
Ni 8.993958527757705 5.619948859182203 8.671621046632351 -0.5951718152902653 1.2555622333697085 -1.3219136642117493
Ni 1.376294749802369 6.193125515177863 10.278391612429767 0.31222756881770747 -0.4395172299060172 1.140323589908662
Ni 8.910952405994768 3.0892290709728476 13.11949824237684 1.0911872373933271 -1.278584662406811 -0.28858653235999976
Ni 5.313587604148778 8.973545654819944 9.835975990140273 -2.251169996293813 -0.7578385703262884 -1.8690307900866328
Ni 5.3963414844612245 3.7235882921261303 2.2815510122778457 0.8261424969090094 0.11409527388522285 0.5224263079964229
Ni 1.4303771852425085 0.802645374643939 12.586414897822689 -1.4732130579510951 0.20800430263055789 -0.05570320709957503
Ni 5.255590755088078 0.4111161951941233 12.012707600553407 0.17079169813600265 -0.4637010262410723 1.35181919352193
Ni 4.9623740823079405 3.470104318936062 7.718970484065084 0.640915082963651 -0.2570540089693573 0.4639542799024591
Ni 3.8909738502157794 4.34209367100235 5.653785648423978 -1.154046338811393 2.025589632452705 0.9323863930706137
P 3.358585570991867 4.62227786884053 1.9297629404664494 1.67348913869946 1.0540337682714815 -1.115586749283614
P 3.022954965425715 4.41937297761158 7.88177926116974 2.152753566596428 -0.7993300047018557 0.9848978327057684
P 4.804414880645844 1.4539944588290816 6.125093193298059 0.6339782466345016 0.3955387674425382 -0.2787880582123392
P 3.9912351556473875 2.1199772840529936 11.90400461457875 -1.0895669281810847 1.6014511989956033 -0.5909498067891178
P 8.074033957822467 7.194748288243871 10.034049056250959 -0.4435140097702362 -0.6409739612260446 0.24458801529186266
P 1.6730614874412482 0.5906607254249613 8.384384364684003 -0.051692800388601294 -0.29384263855261655 -0.043221786803112665
P 0.8303050510315052 4.9434466312452825 3.036840390161365 -0.04513237356226421 1.1245897241131728 0.9733054998824787
P 6.655586858960517 -0.0969419947886847 0.0682892344682653 -1.8362443396842312 2.318316155123007 -2.800574632651293
Ni 8.391605943988758 6.108839501610591 3.5723994378406903 1.240892804282992 0.05410578070546811 1.4075655951546144
Ni 2.1985831938462796 3.2618930149708887 13.39059987954221 -0.760871186505025 -1.4940739605605045 0.5551171133612246
Ni 8.648247606447917 9.284428571410292 0.5170062218820247 3.966328489707601 0.6409179111771285 0.9801960563547247
Ni 3.5231404194704674 1.09698872590293 -0.0071804732906013535 -0.2623484245990772 -0.5034076008020749 0.5688516893384977
Ni 8.524387711981625 1.1675602783843284 7.264795739044807 0.7601880443950714 -1.0060842369753964 0.904832651822061
Ni 8.391988977302464 8.565138719649596 4.011765741262044 -0.05613978041636138 -0.6823049587643475 1.189884431555925
Ni 6.8452537451767395 2.609026745172431 12.027693545395268 -0.4938155862382657 0.43250480314392614 0.37410759415195566
Ni 3.897784369378996 7.753836792115894 13.351015722139651 0.11781797415244871 0.9581678729100918 1.6170313128220473
Ni 7.006333267004151 7.186237474858836 5.428243488354987 -1.4397234108340817 -2.489787652934854 0.7446763219127175
Ni 5.201013179022905 2.2970040709169086 10.074603876124105 0.2310401014040989 0.47369336156709385 0.6290532985290586
Ni 0.8318100916860927 3.0344179380090717 10.807209273787862 0.5284894834713671 -0.37690829682554444 0.1722824237489162
Ni 2.737838045889074 0.4536132742360391 10.368581010166087 0.21114464803175245 -0.11273130365816068 0.46481148569643177
Ni 1.290215019253838 4.966522052827102 7.19562179104464 -1.2672059882562239 0.4141823506856544 0.02046238161940992
Ni 8.873798174565259 2.8142765476633387 8.723019446193762 -0.2814015845757863 0.8484239340150291 0.3893593781047036
Ni 0.8514428845825261 6.8203192106820545 13.215102423250336 -0.947165094041685 1.6638904392674312 -0.67689947147806
Ni 8.33478622169701 2.5771976110310324 1.7853453677852613 -0.5218892045460303 0.7568376398655997 -0.7212602569816223
Ni 4.929209002706542 6.572244415263595 1.8211281531061843 -1.8295748980838553 0.5733889150872189 0.9730064805848211
Ni 2.306962937073272 9.556027217655883 4.264667690660798 -0.006833477982065651 -0.1807909754405596 -0.9945962909404549
Ni 0.46242490890647264 8.502115726130995 10.278241201787068 -0.5446725209891329 1.3733935772585961 -1.1129076597895542
Ni 6.271675371315484 7.368019480178275 11.468821782325143 0.5331364953250753 -0.7736819651164482 -0.5266514018213638
Ni 6.268872688532268 4.832180124751577 11.17984930550639 -2.967220684050038 0.27072533580886277 0.09303433944986558
Ni 6.977559057096459 5.6109335628961885 1.9294892117812885 0.3094039833259833 -1.4559907805355377 -1.574028069787644
Ni 3.22343086490921 2.4410432814223624 4.987988734491354 -1.3841729272622871 -2.190415857033892 -0.5679852275731444
Ni 0.08794911996493651 0.7977593643251977 2.823932724079115 2.2873919547403254 0.3473634932888921 -1.1580356624764443
P 3.774522380573123 8.998097156000922 2.7714954634327236 -0.2801551137631949 -1.0270734376325537 -0.5891536341206435
P 0.8991679012427356 1.8436140770759322 4.844432519652207 1.5880148709850392 0.4134539571600621 -0.4156396519574712
P 1.800546184973835 8.135141784772536 11.83659448827682 1.5046669055850022 -0.10725613947620237 0.32519312783943993
P 0.22327011855939718 7.51243238172149 1.6408315696618496 -1.2473778977867034 -0.42823831455808825 0.42993961351991117
P 7.97405292066918 4.91547585706878 5.867582699176102 0.45570438118884093 -0.015924641650056442 -0.6367077297505228
P 7.842280118478271 8.659860055446378 6.453814251575988 1.2111546537886109 1.4563394221242079 0.5189578898318482
P 4.099540160666827 7.336115607829324 8.70773174583891 0.8719166178203306 2.341727592068412 3.5095959243645622
P 6.7426381862072295 1.785682623946842 2.978236293164303 -1.185788149999364 1.9472440053632656 0.4110211793488534
Ni 5.310710183158008 5.490044512180105 4.125719086317261 1.6232752368492303 0.16084975643194235 -0.42058388333662405
Ni 3.995009435128786 1.6806847846115978 2.1907188659565735 0.034614761860392 0.4668233739201379 0.976957237702453
Ni 0.9953634481834902 3.9604616986876673 5.194580087807827 -0.6824890497506957 0.05383427221163632 -1.2471392994133361
Ni 7.464665324819533 3.787863150621235 3.8079499781285495 1.052796810540587 1.347931942652382 0.7511986964122676
Ni 6.291733237767373 6.138557281388633 8.785287583816084 0.5100711288651796 -0.1793367594925363 0.09146288119768764
Ni 8.278760592860507 8.565951497656728 12.151793536353322 -0.06760227253000615 -0.49570791816497206 -1.4545206237479142
Ni 1.3881033865956556 7.568943808907084 8.245982283483192 0.8172865891802763 0.20834908756448633 -1.1409583952791833
Ni 1.1858617969587337 7.3324627779351985 3.7617206598469832 -0.17106397796078282 0.18542410333719678 -1.3061268336911376
Ni 2.924272504628653 4.207387394165008 11.578632762226766 1.5662561391517091 0.636498184842878 -2.5082378892202413
Ni 3.8590045819352206 7.592280814215336 11.150054919065607 -0.8177326755787594 -0.5325551689003086 -2.2796002266100484
Ni 7.161190833052822 8.529198984092814 8.544240048362743 1.2914579188250532 -0.5983869797934533 -0.015189820366560938
Ni 6.033550099777444 9.66925560209784 4.3623094219176926 -0.024447848629719188 -0.10283229937689388 0.4443272497001509
Ni 4.015431650342492 1.2257813420676844 8.145073558328662 0.7620122420880038 -1.3707021464693618 0.1755397543439493
Ni 8.282908563379667 4.486151566059692 10.368840725437332 1.3175129640408922 -0.09569903076622227 1.3839636394649584
Ni 2.945563551505156 2.658512780848095 9.367294559034066 -1.5360428487931221 2.222413235876095 1.3857605834643814
Ni 2.0347103315115955 2.3550382890813832 7.1100409380315215 -1.1701368166153525 0.10599835580970132 -0.2176485105885413
Ni 4.129080437201932 5.393127741536469 9.610707558756442 -0.6815513684277746 -0.8528647433952021 -0.007602494937606261
Ni 5.922442411974787 5.207879751841785 6.431773019941176 0.7297104446315045 -0.08597820393403258 0.38869474793751124
Ni 4.447212959924867 7.949734976386803 4.735359579550166 -0.7942214798306966 -1.0497179145049471 -0.9749142391304952
Ni 3.1237581228620783 5.896246670227655 3.615169311340173 -0.9503720310147566 -0.04507760906492882 0.5849557939892119
Ni 5.495621850918707 8.863680489717845 6.764665404428125 0.7495015112155028 -0.9822822494597921 0.5267344484534735
Ni 2.760726621952011 5.561914641017728 13.544616640755914 0.27610691183575026 0.7292741284250344 1.074358852982079
Ni 5.831224429657025 1.931618316468939 0.546554906465479 0.7310921554703795 -0.5694813525026966 0.2959054346189162
Ni 7.932507819545964 5.489072915481923 12.669411677309682 0.38632136260932826 0.014546273245291078 0.5962298242411345
P 2.1308703778037628 7.571821229897854 5.646060520445839 0.3761107406249135 -0.9006543520746554 0.27845587168390107
P 7.175194904692962 3.8715699430799755 0.4129631631482631 -1.675420808504534 0.6306584382326493 -0.024894706359150677
P 1.064888665759154 2.3550102622535514 1.150533046248692 -0.6235470239988486 -1.7228813159793424 1.4794099307904265
P 8.765623961409036 1.4904573618387318 11.428813485594725 1.3346056578571208 0.08014488508170713 0.9211617279993877
P 0.7430827601350162 4.670829676921788 12.31941451979676 0.940265281598058 1.894716110667879 -1.202999114561012
P 4.683217534823607 5.950347790219682 12.422388822162524 0.4285908128015006 -0.8018658837498319 -0.313084517501364
P 6.513845848337302 7.369037788256177 3.421855200595391 -1.2725839647386856 0.5314544796369621 -1.8568779567741829
P 6.71997382476695 3.680903433337739 9.155617270693648 -0.26399290218103566 -0.1348492186031226 -0.5014309366916783
