# total energy = -340893.0931744806 ev
CRYSTAL
PRIMVEC
9.06423182295913 0.00000000000000 0.00000000000000
0.00000000000000 9.06423182295913 0.00000000000000
0.00000000000000 0.00000000000000 13.26641949949508
PRIMCOORD
 96 1
Ni 6.353210816777028 2.1112046490996534 11.09938950687944 0.3585431640547954 -0.015020898888864454 1.2812704367690901
Ni 4.718041501280113 0.4660093866417356 6.151121046159846 0.03249694418644081 -1.2031389825729861 -0.3059198814321248
Ni 2.888281254259081 1.5215129110632963 4.877704321404239 -0.341222927608793 -0.7127943856024563 0.2716876997221321
Ni 3.2822762244732986 4.420634986735776 4.909384718496186 0.570517764187011 -0.6886627826615753 0.16346251146444107
Ni 4.891911598564239 4.292167627294221 2.6975145221950916 0.9849158304278974 1.3097073519535445 -0.26813186405007366
Ni 7.161577150631316 6.04730205266265 2.4230586429506924 0.8075058556444287 -1.1020254656594117 1.233088991967857
Ni 5.123838101494536 4.473561037097679 11.330543737247512 0.03915584426385515 0.6259322364015736 0.08559793777647838
Ni 5.606861957931497 7.844884276257624 12.474162473311155 -0.32603105035970303 0.7255056625215375 0.465022059045341
Ni 1.7302531086629285 6.357534455417655 0.41425987358707317 0.969659418489459 0.9243344693004145 0.5281603822667226
Ni 2.9369471156040126 1.8212217405231876 0.36946715855480505 1.0876324301625333 -0.6320918282450662 -0.13814614418683951
Ni 0.26965274273356277 9.4268012290424 4.954079539823384 1.387072103186953 -1.168310304929575 0.27800412885846315
Ni 8.584752209258188 2.4286884374154605 1.3354505153818768 -0.6372044668812832 -0.9467380338065954 0.4220085315982926
Ni 6.834775331869878 0.8815328141627784 4.717207591940621 -0.17052790295165468 -0.9311646048483705 0.6785226089037798
Ni 0.8572361404181168 7.577625397182321 2.634392117311507 -0.22768121223419496 -1.126701114029221 0.5399056957281089
Ni 7.989331876628797 3.723033567322737 3.8586707342375353 -1.8111609143530423 0.779829729885399 -0.8240658168856388
Ni 7.612296084394905 3.7693427283604075 12.52193460138572 0.34322041765479605 0.34880588216237346 0.35987653815423826
Ni 8.015699727374264 -0.2545055047202428 7.053662030715461 -0.30171767042531905 1.1134033684790503 -0.021096158548666893
Ni 6.7900796041194855 0.7058081750214771 0.5856889732067946 0.2943496600960221 0.3664827306168463 -2.2688219050476217
Ni 1.5296707198191983 6.414421575142146 9.38823382851408 1.3641684591159022 0.6779004019387487 -0.18038551247202483
Ni 9.15315206644164 4.719745576886902 1.3909045800349138 -0.3672198658931869 0.9802521064036408 0.3146495479956387
Ni 6.409971037254204 2.032545244228855 7.098596147766166 -0.031153542784668923 -0.39928897851358974 -1.022419226689994
Ni 3.3197024381989872 4.421024748709669 0.5631407898054811 0.0356120927766548 -0.6518839232703288 0.22364997958761484
Ni 5.961762895741042 5.6106508068870165 4.693274393897195 0.42995786835235633 -0.040235193370962964 0.3001863213824572
Ni 5.2487704104752 3.1886517726513954 8.97653731972275 0.3906945519763594 0.22056028491869756 0.7124688839422375
P 0.178705865029986 5.578418398069252 12.503136290742535 -0.37693297941589277 -0.06037438732299924 0.4005449624078779
P 3.8040949936605504 6.23540299410985 12.765174172214062 0.22600459586272045 -1.2613405306143826 -1.3772854561138343
P 2.499824529766926 8.271737087294225 1.4743897819964256 -0.1417785987331042 1.0932690596230206 -0.27828206511019815
P 6.397870287599616 7.872212935589896 5.852906002125479 -0.9335922404532567 0.7926893594568865 -0.7293905993982406
P 4.778173616043063 0.9985339201863161 12.665305371001113 0.43750894122673684 0.25338041677251205 -0.4016132557713922
P 4.139081813873743 6.363933803175063 8.381976276282314 -0.6954834051278346 -1.1595634119748806 -2.2540570880336213
P 4.7065661836301445 0.9015121942291777 3.6998853317662674 0.28442751588630366 0.8322267554298766 0.01090944782365218
P 0.005606227461694927 5.702281127679699 3.7040376564230213 0.7209825778402035 -0.5228567106656221 -1.0575911466054366
Ni 1.5463489066090426 0.8919412717121143 2.9180418470238068 -0.4979944002063037 -0.14272296492424452 -1.6251927655869174
Ni 1.6864638041076363 6.436628943422101 4.947193442810208 0.8641724550985376 0.8316143186568582 -0.305366580031816
Ni 6.030152525811354 5.662806397533084 9.2767165828209 0.7248312621623324 0.15866020497979128 -0.67574787437212
Ni 8.935139159556133 2.090547264483319 10.165725575496863 -1.0077845074959548 0.6219650242237096 0.8284282076193927
Ni 2.1357324607590655 5.016789522153198 7.095252352599441 1.3808058105622671 0.8456291448787114 0.038278326754908276
Ni 0.6159426601896549 -0.0671777422584634 8.986353882925686 0.5009905067201501 0.46549848446112735 0.9012235943145641
Ni 1.697241175897378 1.0419515912316173 11.339353264280692 0.041136622139309804 -0.6777798172004843 0.5522554755427135
Ni 4.420952234854061 6.845906208705709 1.5845011653140064 -2.1851823765490948 -0.6775820993673813 1.0552948943720923
Ni 5.854016370539477 7.91556715701154 8.052677261618376 -1.2185193216837982 0.19904606499600558 0.11115444608934405
Ni 5.239887463163218 2.7739269039652363 4.783074646258969 -0.38640415213112167 0.49134527032090214 0.1546963352360368
Ni 0.7951796892119697 7.378003816925398 7.139363437388994 0.3304366356265664 -0.3756841946104562 -0.5106964211540044
Ni 5.041643646162846 4.709466737854465 6.868729038335137 -0.10018380601045328 0.5217809611029401 0.8020733717749478
Ni 8.094866729234317 7.396213858914961 9.248816876875715 -0.1502940924032831 -1.265022350341344 -0.15139966676263603
Ni 4.578733320425159 0.255095586220253 10.409734699617847 -0.14279932668813472 -0.4645608031382064 0.19869228120101265
Ni 8.227884333115275 7.358243791272212 4.77467754177956 -0.1742853131115579 -0.03858840179615935 -0.3915178192086032
Ni 7.238106460993627 6.263302700055036 6.892183644931551 0.8403954072835979 -1.651957692385587 0.8747833978451643
Ni 2.219921047119975 5.183961152025534 2.789967875248925 -0.3631696070832132 0.5355839284243035 -0.5007354532865506
Ni 2.255679442166679 4.95323112771277 11.420795388360448 -0.05728263577155296 0.9995299807966463 1.3672116168176
Ni 1.2346934194377304 3.127640427389199 3.800975085023015 -0.857489129541091 0.6091203070505574 0.9692300442615244
Ni 3.279566019119949 2.7566051567068706 2.7932708813718703 1.5554209962094179 -1.2086432002206668 -0.058630408048699026
Ni 1.0729693929679471 3.264573779472991 8.38713654353202 0.27793728017626973 0.17820341721904148 -0.26986350202919973
Ni 3.8550178487612814 2.6799580113291954 6.948685534798123 -1.1703715583339778 0.3459121055543462 0.057231727928959496
Ni 4.216916373636999 6.9606775136693 6.110115367236706 -0.36822053924355935 0.17345587523172706 -0.34427945504692964
Ni 0.8072287727444369 7.486865242656935 11.41597956192488 0.0765867354168036 0.03230308300807985 -0.3792703692998178
P 0.23355715825828136 5.427653028028231 8.059190818698367 -1.2890881330412962 0.2927095533894378 -0.29295432241039226
P 8.509156514786827 1.7378761277337216 8.059708386342768 -0.2863388739764036 -1.571874513779751 -0.22935088662713407
P 1.8927747875443999 3.0597312016122897 10.47976858136407 0.1848890567693332 0.34211767150892053 -0.22084824847276155
P 4.025733593326459 6.123233123716196 3.8075820036921013 -0.06784986976443799 0.22157895599119906 -0.16535767160462492
P 7.039998607472521 4.019379566728807 10.27230825331592 -1.1336202097465573 -0.6536214747867258 0.610241050918562
P 6.269366671230256 7.679344208136469 10.299822729403187 0.63105953032581 0.9056397211043887 0.46656600649369323
P 2.378925804004458 8.403558212557652 5.888565597043918 0.000984989621088626 0.2733455470405292 -0.5188352482110548
P 6.810338162529975 4.044333397289916 1.5565624831714322 0.7071179040429694 -0.4745179143509183 -0.0567424469973668
Ni 5.372451855446627 3.0263929564965033 0.26337576210749364 -0.49954374697129456 -0.7968686876455567 -0.2600799402798747
Ni 1.5257821643122185 1.021919638619902 7.0135446465235205 -0.30110497654198465 0.752653169470607 -0.5567795886653121
Ni 6.669851631521391 0.8609796682138807 9.181622818999738 1.1125813867983871 -0.6746407573508704 0.11140589997851781
Ni 2.671791138341342 1.4587521690345564 9.089182155870636 0.5746796088741846 0.42778657173265033 0.4535467114158898
Ni 6.374865266907972 2.066436407493653 2.5854797088575077 -0.14697608377364363 0.26080499137135726 -0.07213024230734674
Ni 4.276178322132653 6.828104057153941 10.482275747921717 -1.373465568147112 -0.053963598700649006 1.097681072647787
Ni 8.67186854253927 7.796617241118537 0.0860123098294511 -1.7984102995555928 -1.5456677734773963 1.0002838282435353
Ni 7.688344990463815 3.799218436870911 8.1082636640579 0.25062933638993606 1.3563808447506833 0.016071194530249744
Ni 3.075158524392896 8.245423621940464 12.425395092568374 -0.004804363367178823 0.8392988317853093 0.5495828138065568
Ni -0.09705707646174741 4.91425493032346 10.490142594831992 0.47214710012589656 -0.7263968068772393 -1.2227130480501718
Ni 8.548839722268315 2.3552409659164883 5.902867142216209 0.6938281289125986 0.8079694255444085 0.37060395187407147
Ni 3.8983811344148767 2.4803545595361736 11.197799873171475 -0.6723972127323323 0.04729544265185403 0.407553275404911
Ni 1.0696156271460762 3.0940121268509806 12.67084996168554 -0.6447496262183929 0.34309469071020915 -0.4338376630227367
Ni 3.153101854939565 8.358808099415553 8.064670146912748 0.4637172241909885 -0.5466011054704135 -0.2478317190401409
Ni 5.808994330438849 7.932245343801384 3.618124146721836 -0.505097329799672 -0.07450851273153619 0.09110215542415924
Ni 3.2014232754703578 8.244988538806817 3.6891260884404273 0.3314342236531453 -0.4338723729154141 0.27430971072601146
Ni 3.33112337045725 4.6215799448575465 9.3913383279573 0.23427737739447396 -0.6772599401412722 -0.7203256609824948
Ni 7.270973366047962 6.208491289447324 11.796182396802452 0.3853368872088718 0.21671879968542032 -1.321801307003601
Ni 0.8565980184887663 0.5551833005756963 0.34273401926171393 0.8455345282823761 0.09582038683543498 0.8773107922527085
Ni 4.745768986818229 0.19671921318621288 1.570332864351395 -1.439781774875843 0.1825364973767566 0.35255532190247674
Ni 5.769138902550291 5.502170078897421 0.18639958510999677 0.4216827728277577 -0.14235709694439352 0.756576158674097
Ni 7.90507077641228 8.99806305775999 11.305735840820814 -0.29679477920240493 -0.9957630575550465 -0.801898022539348
Ni 9.101848513598968 4.839610980206956 5.773864086666349 -0.5742072972234562 -0.3367952308547425 0.6072292606754317
Ni 7.946004847903006 8.770768377356656 2.3306179798215907 0.328674401519821 0.4458511425438451 1.239255525789885
P 8.508558275478062 1.6293953997441257 3.5036746219925057 -0.09571574293677064 -0.25689125813924796 -0.6116469301271531
P 1.6290418946980367 3.1216399058376356 1.5725744489128775 0.22244798885971367 0.4983088461229289 -0.4065929683741707
P 4.711642153522705 1.2037753242528615 8.271333728972404 -0.09557561781448057 -1.0387796703258885 0.24275353318628515
P 8.383181819131797 1.5864671972241788 12.417978737986065 -0.12842583157528203 1.1938166767307956 0.427849820870418
P 6.355649095171847 7.603830091752669 1.3413413597268333 1.4375276887343436 1.6959425826069696 -1.3310680770175076
P 1.8328239574204706 3.1330427096319964 6.065738700450989 -0.5471361520382771 -0.5192481673787575 -0.08009449145974593
P 6.796442694949088 3.8438960361574015 5.917127898344721 0.8399783743508372 1.0413186346976582 -0.37561837436952733
P 2.4733025870782934 8.371570538002565 10.202420305704106 -0.552898508443351 0.3494437728566885 0.13436559409848473
