# total energy = -340887.075090811 ev
CRYSTAL
PRIMVEC
9.14800951769599 0.00000000000000 0.00000000000000
0.00000000000000 9.14800951769599 0.00000000000000
0.00000000000000 0.00000000000000 13.38903662412419
PRIMCOORD
 96 1
Ni 6.756921219966584 1.8108851119750902 11.16901361624893 0.1921943321814948 0.8534057035003366 1.703581587209466
Ni 5.262209619211691 0.43404104218821604 6.074686441433131 -0.4207039538542561 0.940786701319167 0.4425277345975669
Ni 2.829387919833778 1.6216493833395653 4.814938725396641 0.12602673521548619 -0.5925230648135086 -0.6849606512196397
Ni 4.213875151724248 4.590087050599621 4.746895829254756 -1.634181856459405 0.27441872550005 1.2781385760083277
Ni 4.2327840877722815 2.47429877535362 2.3630178113689526 -1.4093813082071147 1.258784082741116 -0.11453338986390599
Ni 5.449926778237166 4.6826191687059895 2.7754137478081344 0.0715381172493026 -0.58083303007009 -0.9142184639123353
Ni 6.034521190048275 3.162530989045801 13.233576696383867 -0.996961962959154 -0.3796699187310816 1.021037772961435
Ni 5.579444299556985 8.155496386793663 12.513822270870536 -0.14772247502136496 -0.3224083660054512 -0.32940022394225205
Ni 1.9314741758285896 6.978751307159992 13.343031717632595 0.9693832820099371 -0.1570558366071489 1.3235835957150044
Ni 0.8119087308191256 0.2587340731205364 0.041109325985803066 -0.09254043053258257 0.21612770306864068 -0.13690635824246744
Ni 7.776796229280135 0.10859602313798304 6.743254093476133 0.2605833622788545 0.04483155449239375 0.612608522709474
Ni 8.882955266075573 2.68081509431074 1.3697516178671643 0.18264242682700157 -0.518991571283261 0.04605719936937874
Ni 7.125787267053581 0.9209301364081167 4.523178507660424 -0.05524452229560163 -0.5872330200591628 -0.5944218244981182
Ni 0.7389689050853138 7.924682954075742 2.484081656925835 0.42782128162532773 -0.13264501186295222 -0.09557098982879024
Ni 7.87473482111867 3.8080237014238 3.7202640999774506 -0.6586533807836786 1.1404678287960102 -1.2473475587694
Ni 8.098732986610765 3.9444022300179413 12.551124195219575 -0.19595894143024964 1.3808906569665895 -0.3799954203913004
Ni 8.39467110037656 7.560683648148663 9.171744210261524 -0.4119398345083809 -0.5200246405334656 -0.720487897591972
Ni 7.477089135518313 0.47486220586849753 13.29627806966245 -0.4230405724072327 0.9688114686668671 -0.06822962170135992
Ni 2.0481844835696723 6.6794467258249295 8.870263317419045 0.3599503288149672 0.029300291626014052 1.2791729308101132
Ni 0.28229751650347107 5.165085200236376 1.2163751724511302 0.1771073559413853 -0.6369805237959352 -0.17869758324664062
Ni 6.687817154699604 2.371987434878917 7.338451048528494 -0.039241719109442096 -0.870813614564139 -1.1077479699654857
Ni 3.975642683140358 4.484143950274376 0.6934868304633423 0.045618054949431115 0.04013800567146636 -1.0418994469017928
Ni 6.463343292703156 5.992092721063862 4.6092567049240785 0.3326544692134916 -1.0051005329058884 0.6715379500558305
Ni 5.576096128007116 3.0647204693430536 9.403240999303968 -0.11056180681066766 0.1953850712046506 0.09747694860225146
P 0.5023739302375625 5.733652299054667 12.330620569432535 -0.7464370133575661 -0.9652888002255893 0.14777184020206163
P 3.9404777338570285 6.444114176315654 12.649881533926179 1.6633049990776063 -0.11240065979161934 0.3686303730874684
P 2.4177366313841024 8.682229637257983 1.323574294508061 1.1406470346863518 -0.040103295778789 -0.3277632025594613
P 6.6171396317643785 7.959198394670436 5.3043618183031915 0.4059147113602235 1.8162190456022398 -0.0939221413714576
P 4.891431638097583 1.3013501197450743 12.615163922317134 0.47289451981488234 0.38051863988462203 0.6870375883533265
P 4.134689979768862 6.555289938188782 8.164005865415763 1.025994602746078 0.6232683164161653 -0.21492262701694595
P 4.680140058077534 1.1695455960004817 3.931917941181583 2.4408726724017065 -0.8501005503865037 -0.6476516303565362
P 0.782185017704819 5.938970228741205 3.394214397486107 -2.252972596720191 0.03762423811067714 0.22927529619419224
Ni 0.43823723423719196 0.5349920736206636 5.044587616479867 1.1860784275462737 -1.7868807016494386 0.021522961673440352
Ni 2.355886937808506 6.224891271886487 4.77533424700634 0.5413961642307062 1.0714375655702257 0.37580220824555927
Ni 6.073455119327632 5.6868876734728815 9.289662055282886 0.640555128521071 1.4335522490263635 0.17938638178354913
Ni 8.989392358924569 2.7596434938878605 10.225033239801997 0.35829788081320874 -0.10070239751808464 -0.5678798123435317
Ni 2.7967112291886025 5.201000286315032 7.112885828974945 -0.690949521813223 -0.5116199614095382 -1.731032227221251
Ni 0.5836228931810644 0.4847841371881384 9.15609288046734 1.2962144596734324 -1.1129621671765735 0.4489220681596849
Ni 1.7099093809164552 1.4578451216675306 11.380346362312624 0.1476736240613005 0.503365691820546 -0.5031324927638174
Ni 4.639532043023242 7.237557649557152 1.4827688740927207 -2.387537194203359 -0.16458171267054883 -0.8968138952826428
Ni 5.830401649632319 8.261805407506872 8.130144507514554 -1.5207393856668325 -0.41570855752219377 0.6223229217837604
Ni 5.57959981572187 2.799812404476597 4.994820614114839 -0.20976679384761937 -0.4902234980116331 0.12850116489790772
Ni 0.7848141556923395 7.863217476907507 7.245450552325532 -0.6244533378632019 1.7267760230480582 -1.3835890297343592
Ni 5.5078428276421505 5.082542708721422 7.073776257909364 -0.9401948333714388 -0.5656262404226646 -0.7663892881097768
Ni 1.0594127072330504 7.538865645016316 11.095454470258488 -1.2413959691716554 -1.131132153217381 0.6350997618334546
Ni 4.501150100304997 0.6907799343933794 10.624643003084753 1.1521169829991642 -0.58457604205229 -0.7558284818747951
Ni 8.894317094121853 7.432273036002436 4.853124347482613 -0.6075910148902246 0.04998661633077198 -0.1477157901531456
Ni 7.2558628169650445 6.8169230155829625 6.921141716079927 1.5365660682864442 -1.2820337972976759 0.6676283305887792
Ni 2.5247409008344426 5.64992056627883 2.278693287564614 1.2413458326600104 0.10352366901696364 -0.1671723562158605
Ni 2.5787050100494167 5.3458041318420415 11.36915377244578 -0.685932785324922 0.10409599658066587 -0.37976042156235884
Ni 1.3930955090173205 3.7206968008362176 3.643384226466237 0.179494111006007 -0.3082816967960819 -0.02112264091122814
Ni 1.9900763259610066 1.3156484589047635 2.437835723493989 -1.5078365615622353 0.5373921852776358 1.0396571878348353
Ni 0.926043873829912 3.783424703342927 8.16373782873158 0.921477973688226 -0.6698459070653883 -0.611410902856947
Ni 4.025060231534882 2.916165939839414 7.248141896779007 0.3094592620439509 0.06679263214451722 -0.5793047663510216
Ni 4.378630806404988 7.281632760287402 5.857637104108471 -0.28197134103632726 -0.2276040791393564 0.16894461762493485
Ni 8.614598401552556 7.371264959319157 0.2220011549747815 0.7291003218513313 -0.3720918492735076 -0.4838049960797991
P 0.35056453888298406 5.905653177417093 7.632018912981254 -0.6892855038472386 -1.285511471433631 0.40114325811350915
P 8.851916069166537 1.8066129914456117 7.871856857267335 -0.8467002664557031 1.5291096120083987 -0.908489274738042
P 2.1551155689424193 3.5271798036615154 10.15266607947535 -0.9246928810810979 -0.027890298652364868 0.8628524507355333
P 4.541575155165308 6.431334406766014 3.610982890913005 -1.8184263376662038 0.7952087834446305 0.02245447234877423
P 7.24892862561313 4.044701008358842 10.382140243573325 -0.3522218498224579 1.039314716893752 0.2815926175406699
P 6.658168455264829 8.109975890530956 10.511157368762602 -1.1818075680850615 -0.2601133646209714 -0.8036481724612352
P 2.305472256356781 8.645335714141522 5.7951772382859446 0.4027116310418936 -0.1461121931114516 -0.9996263971651947
P 7.165206040846991 4.194289262958481 1.597860898918033 0.9277414380994345 0.29848245131747303 -1.3578445737804035
Ni 2.950974116744479 1.8332245516602856 0.28419572851603375 0.4568827177676583 -1.081324999887267 -0.8399441786787921
Ni 1.754030231695201 1.5825416418759246 6.881657076616684 -0.9970876899037409 0.0522386455897423 1.2538637626213631
Ni 7.203911269883871 0.7359436582778224 9.197732791015689 -0.07980447102315288 0.29825388024643473 -0.7004446057878517
Ni 2.945485310925021 1.7327245171060035 9.237498274376694 -1.262879078746096 0.43148150408573427 -0.4806790488563077
Ni 6.464495941925241 2.2947050489409437 2.4814708149577127 1.3057496528573769 -0.024853054487937842 0.07558786183864402
Ni 4.144588126263286 7.1657732174483355 10.383720104848358 0.5397267469480833 0.10189256117144387 -0.04954438658703081
Ni 7.73176057753148 6.377608145803217 11.302021103268954 -1.0586075036850928 -0.19134252570416077 1.1498826943520066
Ni 7.697364061062874 4.415268585249873 7.981445439457669 0.8453334680151636 0.5647736626143822 0.2177356709857089
Ni 3.0654614581286808 8.803861574217178 12.170955782149342 0.4200475512171798 -0.5385815776000467 1.7830914098103356
Ni 0.11076684583957883 5.372818204483476 9.925453303374994 0.5438615950520633 -1.1475959552003592 -0.23186259730539424
Ni 8.83019869414088 2.6284701828125057 5.3854323950575615 0.44882025247449797 0.9281209329260401 3.4398182414497924
Ni 3.8689037059712916 3.2295401600916884 11.809184016583995 -0.6636675461688183 -1.2258145697936307 -0.6591218357796649
Ni 1.356183289881463 3.593173545630803 12.758440050224396 0.5799035762772852 0.26147502085518837 0.365596471357151
Ni 2.9763323996303765 8.827408551182655 7.840606341334249 1.5096440470846195 -0.46170816418075966 0.5885692223720831
Ni 5.936911926558907 8.166327630277394 3.1510026672229987 0.9965390164891224 0.45615586690396276 1.2312588807376537
Ni 3.5123874719780748 8.6800158189108 3.369685839079918 -1.0745902522665944 -1.64155398055376 0.26102302091943436
Ni 3.82798465858723 4.578121453913202 9.205056687580786 -0.5383679189273439 0.22553459820483734 0.5403674658558758
Ni 5.340232993935292 4.9119414758429585 11.410953773163863 0.6001273595233277 0.5122658225236532 0.683341627558978
Ni 8.02907089275214 0.2781662753233588 2.1989080061729678 -0.07833122891173606 0.16047103293628492 0.21181570595684812
Ni 5.306385358048632 0.5802161743691207 1.3087920256352898 -0.27579915078734435 -0.5295336084651654 -0.7561228731867624
Ni 6.088357227127462 5.782319710653864 0.3799195872064171 1.0840709380635198 -0.5565150221500158 -0.7087911779803342
Ni 8.458240619775586 9.067854838113725 11.162895427362173 0.3416006226631859 0.8104263717253333 0.7332588241043952
Ni 9.164110196167627 5.142965312783959 5.375952312606386 -0.03439236143694077 -0.615005819297057 1.2566117576801454
Ni 7.782696695536053 6.294745473948795 2.608251251775561 -0.10559237862053428 0.14925510961580746 -0.42881321322495186
P 8.990727968340638 1.8018926184408777 3.463140991364925 0.010976296505845612 0.1330980402399708 -1.4977776346643366
P 2.2997730463142436 3.397076809720955 1.600940118982749 -0.8002579158327637 1.11720217339985 -0.14154257146289817
P 4.876090425832196 1.2345056128737713 8.463130230959754 1.2108605195869597 -0.7471738915235906 -1.6354771782320607
P 8.940862167470858 1.997916170273133 12.316909532495528 -0.30708741937766465 -1.507223610568585 0.7856373377061114
P 6.798892288466042 7.80523739143463 1.0622604826523794 -1.3099842597640148 0.3712420996787026 0.7814140436533833
P 2.2719173567804924 3.424658058963733 5.817670364534085 -0.3509365553521311 1.3028008546416983 0.25492744954465774
P 7.045769626215578 4.067689956732674 5.828434827547013 1.0104072898307825 0.946137938328751 0.10899857608860583
P 2.4112598405171415 8.675213113818774 10.121174970887177 1.274502007697005 1.7010562496844508 -1.393706320674019
