# total energy = -340896.7296065397 ev
CRYSTAL
PRIMVEC
9.01878555760074 0.00000000000000 0.00000000000000
0.00000000000000 9.01878555760074 0.00000000000000
0.00000000000000 0.00000000000000 13.19990429636967
PRIMCOORD
 96 1
Ni 6.467668833329968 1.875285125887574 11.370120196316941 0.47515246261112354 0.5202701808853685 0.18952244177628652
Ni 4.692843961167244 0.40784121301441223 5.822583051648314 -0.5856397074301141 -0.7960107105206355 0.44609411179258657
Ni 2.696932576767248 1.717645770931416 4.816644832240142 0.0794645711852309 -0.8018512284618127 -0.15311227857836857
Ni 3.0254689016338268 4.294330878184936 4.811695322657217 0.2726788599908078 0.3073874671165867 0.21046510546622463
Ni 5.123292564253663 4.637865443642629 2.672861437778863 -0.615645766873901 -0.10482876098163237 0.08355596764578513
Ni 7.148082100411173 6.095066721615412 2.551633626261374 0.3200622343707778 -0.6402154857934651 0.3058754013474345
Ni 5.017123419191366 4.508211380661352 11.311460210476456 -0.23682971150268245 0.1871505991100003 0.5730736978396452
Ni 5.665213358384083 7.688920640259614 12.43976170651963 -0.37663190323570617 0.6480815188051032 0.1309866503239228
Ni 1.8211724117885437 6.277192079701382 0.5065842899451859 0.9202649272167313 0.8633581867273582 -0.19072751782798122
Ni 2.7370842106287285 1.63056037637471 0.28286970355983865 -0.36320277431399384 -0.21413406967737958 1.0356367538215325
Ni 0.587710070922452 0.00831351664274767 4.660159881851429 0.4536958353992444 0.20206865387241327 0.21439657931014688
Ni 8.496020789832333 2.2928188278756907 1.3043157249502255 0.565705173289716 0.36547511528793836 0.03356729443248413
Ni 7.005089253404487 0.6208919872079772 4.8068504309882165 -0.9128861182541569 0.37376383765929183 -0.1123006438786453
Ni 0.47158779398020645 7.1636575432860115 2.337425741864658 0.9883904192400591 0.037109246147471575 0.5490819629107382
Ni 7.2020956078676885 3.7217552315174145 3.7103347432068143 1.9654546148340217 0.7709671372884465 0.6967054504603937
Ni 7.516887303353114 3.950751218798827 12.530497905520884 1.0747278062857233 -1.2664567687950254 0.42350337097626417
Ni 8.085197064392494 8.800251487282763 6.895180919797946 -0.19634306424254575 -0.35452427270338943 0.24241646156184055
Ni 6.8312070654329355 0.654313803192675 0.4502024493682697 -0.18318724358687807 -0.333661056101135 -0.46944049982801084
Ni 1.644945339539369 6.652734315548652 9.15686599761676 1.3325307776059632 -0.6121194988881974 0.42408675428355996
Ni -0.011728930780964791 4.815228882887884 1.3978432381204209 0.08282217480355414 -0.8334685982567774 0.11458738303029298
Ni 6.192722132992796 2.0469035986526483 6.935309104816651 1.0959952003049318 -0.20512800952402735 -0.07516208715513507
Ni 3.351705436151197 4.2486326911283046 0.23219855807750683 0.19974180551144954 -0.013007210892945341 0.9108824575605666
Ni 5.984478371568361 5.729805901446959 4.871464619136733 0.1875275228334448 -0.18469108182591418 -0.4877850637734696
Ni 5.314247313523457 2.9101276515317442 9.230917443104145 0.2704515133221858 0.006511575866272656 0.7691920476658947
P 0.23683782143293033 5.385991753633087 12.425809645067764 0.4634534290066405 0.5287224254177798 -0.02541869718342074
P 3.9286371563036897 6.253968706567215 12.566018392934055 0.10550650377494733 -0.5051999168158073 0.6421214445669264
P 2.274348354796555 8.389292480057678 1.570049735712038 0.4364378196497451 -0.09670124677849153 0.07331937751944148
P 6.482315341279439 7.733067596178739 5.696630298311413 -1.4117577788590912 0.04391084245033728 0.9730501893385629
P 4.843439644504845 0.9431214752463138 12.634790241282513 -0.1780056993859386 -0.005823805770628679 0.48880193507375813
P 4.082542733987015 6.173358800131026 8.148921098394082 -0.3839562048112613 0.6893276699390838 0.7613123878075018
P 4.655677545366893 1.2287103426896286 3.8227322616619097 0.8026336151537918 0.20479865120906662 -0.5624110759194766
P 0.1282732868931827 5.392467241753605 3.5981879469937104 -0.41445411628980233 1.2569732547846222 -0.31964597276896567
Ni 1.4301088457805358 1.1886308591136137 2.6076150327539573 0.051389410215569566 0.052487014155122504 -0.35679969900112746
Ni 1.7503388690329134 6.535228556882608 4.655976067173007 1.1037930990827958 0.13432137112411058 -0.7466344740803528
Ni 5.962247064859343 5.718162649129985 9.273025251580306 0.8440918822985785 0.8000617406615577 0.28075495213072293
Ni 8.704571189969995 2.196750722778546 10.06838564782924 -0.5731562302511225 0.5561797502977841 1.2968405232932052
Ni 2.515303251893853 5.043548461243058 7.141188140634957 -1.0967942991674595 0.12081896576230161 -0.07611956597239794
Ni 0.7508653152024378 9.096257052190142 9.038542235089253 -0.8710946361396674 -0.8140349150121982 0.3562867639204509
Ni 1.4607727171033198 0.9159298364115511 11.462849546954176 -0.35696347827250136 1.232557030723787 -0.8795959887424594
Ni 4.07112495131212 7.0480276920420675 1.6736286855261282 0.5969263360875268 -0.41422348833623496 -0.5279580364479295
Ni 5.644713658526234 8.010259974151023 7.7486737029249 -0.025690719897884785 -0.2602861427534098 0.7764525858830499
Ni 5.091961302790324 3.1419104435892566 4.974515969988357 -0.21291588099956232 -0.5312752737466205 -0.4870738966390579
Ni 0.9310272836451806 7.241985696944357 6.746312333918673 -0.33745600436719303 0.04690746318481599 0.9504247386295632
Ni 5.304335668057651 4.563947476183354 7.363316322618634 -0.8323547963673085 -0.5344955804561311 -1.5019186534159037
Ni 8.289598823115899 7.10866098819003 9.252763647664494 -0.5662885565970118 0.09677735143206559 -0.53228211774458
Ni 4.497451969341329 0.48662120783548535 10.569599250900097 0.6047476319041585 -1.3417656659406698 -1.0445885636981815
Ni 8.219631083785853 7.143257050070677 4.68376204398429 0.562090202244948 -0.5269877021148602 -0.46764175605637526
Ni 7.503395199971089 6.098160165104741 6.918994121515793 -0.9856725060882637 0.3684539954106042 0.3502423574985839
Ni 2.6503595674993496 5.105949439384924 2.5476743793464616 -1.4949815599764382 -0.06974040191893151 -0.44248222607161214
Ni 2.3682699889011056 5.208925934315378 11.491995556646483 -0.4434312202484427 -0.015979406147391836 -1.335999452880854
Ni 0.9584353733363394 3.4353366357912476 3.6977418127574015 -0.210753840351237 -0.3853695402190202 0.15365015335970958
Ni 3.6044208297793503 2.78721964024148 2.6620776757374944 -0.07092130960091012 -0.13413316637270448 -0.27871632443413935
Ni 1.140470543565477 3.034650025459295 8.321404472706172 -0.5835326883894403 1.8722672947460597 -0.9569967354201259
Ni 3.6105896791866403 2.7543551852120025 7.15090317657287 -0.015897387956546813 0.13279593561851968 -0.6495984696702619
Ni 4.107028737116826 6.7470888513659935 6.00773872172383 -0.5484042201174232 0.9622569553778009 0.004522570460701889
Ni 0.9018190443316607 7.314298320552028 11.597053587312613 0.39972169517563416 -0.17135245573547908 -0.7232281793412706
P 0.2561939392661534 5.423248357290269 8.036484799160547 0.14756795172137166 0.15759808226386407 0.009596642549499601
P 8.472030819915096 1.5437004514600836 8.011945585195207 -0.8083149818092853 0.6743815901522128 -0.5230354023353314
P 1.8022329618538833 3.0666937709916047 10.38136817490662 0.5994308476769353 0.5065520599683275 0.25967884818671405
P 3.985590787892919 6.136084158902478 3.8760332850494548 0.10362857002594411 0.5384059712541308 -0.2823994297126814
P 6.9332365878666575 4.023307349619944 10.443104468543636 0.2512055206083803 -0.4772556249970554 -1.2136190561687032
P 6.381809993626174 7.745702914920862 10.246373187043769 -0.7531560772489545 0.2296113393773723 -0.5682292252631505
P 2.465808156064607 8.462371700448418 5.750736699260464 -0.0951560137785587 0.5332583656149203 0.09276488783856282
P 6.825732662523251 3.9450693838184288 1.5076271124845333 0.7440464016382025 -0.3148356958645159 0.22339235505085397
Ni 5.299970575786996 2.9221767492044615 0.2929427852893731 -0.01688443446016447 -0.6130975465307507 0.22032348631754314
Ni 1.4389382369643609 1.0774833443542058 6.977047143079801 0.14503361533529216 -0.21311462727392974 -1.137498461755041
Ni 6.758831310325483 0.7962451391244528 9.210510636738833 -0.2516212679895602 -0.8673680792176999 -0.2179930384121536
Ni 2.8018841857623173 1.5142811725615772 9.130822450199465 0.21875511338915876 -0.32808639022683495 0.7665718364342281
Ni 6.322060538475162 1.9679982427105789 2.5199010288351342 -0.3563842087302636 -0.8529015101704086 0.07071716400990402
Ni 4.057145833503204 6.899271840983833 10.3856187285991 0.17415007308527428 0.11473033636606046 -0.3211518678905308
Ni 8.111243317445494 7.0529970429534945 0.2688996045366057 -0.2810424014641547 0.48283851840147163 0.7585502516813323
Ni 7.506750188245229 3.853627915776751 8.044866858574489 1.3192564290945603 -0.4546360878253266 1.0765093236661782
Ni 3.026650362558322 8.397779157385543 12.44586020939859 1.0535899958658435 -0.7008976341648704 0.6409161114049156
Ni 0.20303270705669785 4.773156247675888 10.17044763789142 -0.44994665276945733 -0.6114854648486242 0.24116150610881693
Ni 8.403154353652713 2.3821589188531895 5.779499410561235 1.0213216227504411 0.48280046607468474 0.786762195339174
Ni 3.6195543521557125 2.5015135285842836 11.492351798680968 0.11771410158473275 0.9578480276768278 -0.6945696350643135
Ni 1.1963148645156758 3.3123113802871025 12.484060178038233 -1.422810694239143 -0.24296487786614282 0.3523804868875092
Ni 3.007918344694375 8.326287243275042 7.99853465088433 1.197150883310351 -0.41694294414992705 -0.6541462369419444
Ni 5.601441524818377 8.02401362231786 3.5563047062810615 -0.08382361948487499 -0.33048420103505016 0.5215577893485405
Ni 3.2120405210615997 8.494054694553402 3.6196246986840417 -0.7269776190813737 -0.27192552676455106 0.46364780440563375
Ni 3.464476332333575 4.3561275976860285 9.36958217486148 -0.5140427119184179 0.24680379199625885 -0.13136383115768344
Ni 7.399904634256694 6.1067640866464865 11.444013813054873 -0.5806756785566193 -0.3869140018880046 -1.157967271132354
Ni 0.6748089936576825 8.973989374683383 0.3292055187642699 -0.8397001809887862 -0.12901307153731975 0.3866730895217921
Ni 4.392861111773587 0.5851243850670866 1.6223208137745644 0.4106391134190864 -0.940035167865123 0.13318082976176418
Ni 5.843532788911753 5.407537632630184 0.3028336875481075 -0.6337800145807666 1.5571102109863828 0.16488047485789023
Ni 8.079587379697562 8.657393922061324 11.259188230535363 -0.5019274167121227 0.746718806264043 0.08448722121080289
Ni 0.22592779639199753 4.937559691894425 5.800222776304027 0.3290544105670591 -1.284079366972795 -0.194760036026142
Ni 7.925221843944396 8.84019568907353 2.5822713431056767 0.3237250279343457 0.7487021552426589 0.1105378955512677
P 8.47992225738787 1.7301277703169256 3.68751180415698 0.07824304007330396 -0.39137923674820985 -1.3978799924357346
P 1.7407969937801175 3.176190847970992 1.532785917026309 0.0013804252872943968 0.20421603923271928 -0.12176410328439029
P 4.7141553517365775 1.1151908872955465 8.14319236572813 -0.18454967115204343 -1.3520099693764973 0.202552021266735
P 8.500827802601462 1.4954770044121644 12.35309117610435 -0.26856098116769234 0.6417314082173593 0.2659034889401872
P 6.342316731119565 7.783915509860462 1.5260939780493956 -0.5389433318148396 -0.0026662339782534726 -1.360147253771651
P 1.6594475469179089 3.1216813073019027 6.067930097373317 -0.10307655417721603 0.43752539628696907 0.13892904509945103
P 6.889495477303274 3.9822899123328783 5.896727390628238 -0.07595115871533371 0.7103554371436605 0.5241854567793747
P 2.4551750077441477 8.449222310922353 10.215458593478994 0.08082391342660275 -0.0033910279594199667 0.4228927339754588
