# total energy = -340887.76362848433 ev
CRYSTAL
PRIMVEC
9.10560370426457 0.00000000000000 0.00000000000000
0.00000000000000 9.10560370426457 0.00000000000000
0.00000000000000 0.00000000000000 13.32697142972308
PRIMCOORD
 96 1
Ni 6.635581111767204 2.433172064977024 11.311093644671056 0.37554792614290805 -2.2554871356119284 1.5154323716316223
Ni 4.9389157902820475 0.6737864356492977 5.652887986097664 0.20875506475365335 -0.4202889778040245 1.5397061565773225
Ni 3.1622395303650066 1.7879581027208544 4.590928760366982 -1.0667720417737563 1.2939901983286035 1.0763126342743399
Ni 3.6505275209658774 4.6167140085121305 4.791245664639724 -0.19499349219318676 -0.9428189012578472 0.5920569238103675
Ni 4.135664972736951 3.274174714858368 2.8403109167017186 -0.38929304364314243 -0.44915269611325226 -1.4792502652841104
Ni 5.709595863913311 5.267873929889277 2.736320371309509 -0.5458611419805954 -0.35041282163817716 0.03666213130772395
Ni 5.5435096550823575 2.9835511662148617 0.42666581854695224 0.2530317751838417 -0.24343616107560656 -0.09268492653024683
Ni 6.245123725754039 7.9905222374619616 12.17857265800732 -1.2887610887191805 1.0935241130566198 -0.6334262307857736
Ni 2.19589824755833 6.760774055035667 0.2104259453387567 0.3422405702400299 0.007305532522477741 -0.09350562265932928
Ni 0.6130028896827326 0.17422297616710164 0.26110227136001707 0.4075159944090723 -0.2543947169696393 -0.1315201542298896
Ni 8.244331830935318 8.921433616838746 6.659847545239489 -1.057190054512276 0.043840908444350304 1.5538716494444271
Ni 8.704975209145246 2.447540707385755 0.8928736310889317 0.5204645562843617 0.23835591833922176 0.5807111597802451
Ni 7.24368063393593 0.7409502780263808 4.718093977365314 -2.362723734704105 0.34861767741096733 -1.1046757587980653
Ni 0.9951240956419092 7.552406122445442 2.28497563544926 0.19799628357525254 0.02177081601818831 0.3347784575350299
Ni 7.785281933347394 4.312295470483816 3.81459228580777 0.4127764714770633 1.5039133152484292 -1.1644976160517042
Ni 7.705963020785639 4.06447736414921 12.662222254157616 0.5239270609116654 0.9253035180819033 0.23726294238535914
Ni 8.590472244449565 7.428688286952779 9.141889384492595 -0.6021657301095952 -1.9177884191063101 -1.0946546271166373
Ni 6.906236071816067 0.941828998038424 0.2475249059001577 0.2951320467880014 0.011812419253895786 -0.3672568897787094
Ni 2.0346106918005074 6.847823625015049 8.967239355518796 -0.6656444673895311 0.013047834322893657 0.11878496605140833
Ni 0.34709103852531914 4.998029368556749 1.2516599068194305 -0.4487166370170982 -0.6392844893387636 0.46598596562050715
Ni 6.768113171500457 2.1632364476089534 6.640829581655918 -0.40644255883923547 0.11750867044214601 0.6919561087008663
Ni 4.23732903642103 4.833582168365575 0.5486699794506902 -1.7053217098290245 -1.3181829935247233 0.5069279552505076
Ni 6.048779596312052 5.950639401203499 5.1554725384939335 -0.3226937584563539 -0.03231413875167338 -0.8588297027293855
Ni 5.485333953973752 3.206683981313684 9.566713139440505 -0.49456146326535466 0.2232231764628414 -2.218185313837677
P 0.5373389663876836 5.677990313976236 12.554940033080516 0.6451944270652953 0.06917501633376473 -0.7526223162326716
P 4.360801020617725 6.457912575215143 12.5380682602547 -0.9365886040774193 0.5146834308262104 -1.457913451479547
P 2.6735691044148537 8.774787871596283 1.1788041516605365 0.06657897347181438 -1.5817650334205855 -1.1438897099933654
P 6.394847164997864 8.02541491028215 5.730690815667625 -0.17192786862297485 0.1497832142051356 0.505575040767039
P 5.0236252201479665 1.0591911222501653 12.531830921819987 -0.18802297441262456 -0.16294520550839034 0.15742993211711595
P 4.071488678886043 6.493834181236971 8.101118898232837 1.0680357389775283 0.007291391455090669 -0.25490765205031585
P 5.097662882648212 1.3399533022443333 3.6227772835737055 0.2636072367068428 0.40241364018550047 0.30185162490002204
P 0.3607931507538728 5.839332503355386 3.5944442875540568 1.040350614357434 0.16082738783443914 -0.7245360995194167
Ni 0.280998015126225 0.5335992950079209 4.693892193678264 2.915478004260108 -0.5455397540854346 -0.7573801426326311
Ni 2.2534638732287955 6.751349755356938 4.735832603649501 -2.1100904805102627 -0.06205486034921571 -1.1421709275300458
Ni 6.053250447657227 5.879306102958888 9.369353735202212 0.06982344855104104 0.27053713105745664 -0.5717902031415314
Ni 8.9012464937588 2.3340848870988204 10.059398225997763 0.07955841645061783 0.34444631964209715 0.05547900690391091
Ni 2.608718995900925 5.532209601071436 6.861684174745448 -0.8243054437002706 -0.7429110024821787 0.41879645241889807
Ni 0.6147411494012539 0.1546805298188016 8.631332729839258 1.0508764535894224 1.1469027857880765 0.9375178007599079
Ni 1.5938539517532317 1.170552653719604 11.353912745385285 -1.4484163106223893 0.8571636278808721 -0.006502577005208157
Ni 4.388026775245168 7.038813659567092 1.3737441970344466 -0.805111130160007 1.9818757365045223 1.762139233038701
Ni 5.767935465885895 8.143086625014737 7.851784708906433 -0.8114447856875187 0.516604044887691 0.624207540400983
Ni 5.742931478525708 3.422623369604587 4.635346805065353 -0.04997710324907522 -0.824903996516218 0.8482498703310101
Ni 1.1523232354038382 7.77992783845745 6.737250638813415 -0.41487166344319526 -1.5005806513307705 0.5283172195595611
Ni 5.256746882345887 4.638940786788247 7.137925422574892 -0.183127079772904 0.28731229363326644 0.3777037961436463
Ni 1.118987620791441 7.537318137355919 11.3321102882348 1.3395959119828607 -1.0330664219911951 0.4701660651401257
Ni 4.675153772123812 0.8266157962655043 10.242110356358564 2.1001194853404797 -2.6749315060274705 0.43760664314686576
Ni 8.222360009558722 7.4203748709076764 4.781304166679108 0.7074848004640848 -0.40842539359721913 -0.8949791560667489
Ni 7.372106066466181 6.330197379762131 7.33816310809671 0.3555707116900328 -0.6511737845771818 -1.221667894615109
Ni 2.480949166826586 5.3854819053969845 2.420431504483808 0.47381703162915173 0.5129065414314457 0.5127808144868587
Ni 2.622559513303505 5.205746396838093 11.338426845420438 0.2100907528459414 1.1487046148835056 1.3363563219996404
Ni 1.4406157495374357 3.34141049150353 3.3576639938480066 0.0831960132032051 0.4447478821773373 -0.10335114799484137
Ni 2.069148246082076 0.9630541599235639 2.6441106557958896 -1.9352081572446542 1.7078743010475488 -0.46850538960825117
Ni 1.5209089616795055 3.409056020308637 8.1699135542065 -1.252723735479649 0.9740675748594838 -0.10821747494820719
Ni 3.691539159374573 2.8244580609136327 7.300688086108515 0.04393012572404692 0.11167226626602704 -1.3659844292787184
Ni 4.031032482294161 7.490169322151606 5.993765360757509 0.8259967153597646 0.0666872169149045 0.65985202907747
Ni 8.261841906570291 7.240247821395949 0.06971887473442775 1.4893945528069639 1.0458296351941343 0.30773276627114743
P 0.37675345266390003 5.809711974993154 7.937636892018421 0.3068904728755102 -0.21228004718777635 -0.08783839707122292
P 8.666850047063273 1.744742908252011 7.610433402216111 -0.03131603650446219 0.7509680684587002 1.083842624102798
P 2.0594598839002702 3.3584926037714506 10.348766111911127 -0.4946373108086127 -0.8819295219716425 0.801056500474659
P 4.151982214306308 6.380615106642448 3.7975602543593987 0.21606368259992464 1.5183210060333272 -0.8527266751554411
P 7.23703354334127 4.250422894332154 10.445986641060694 1.1256443906299325 0.7272054188214637 -1.5580154964094715
P 6.491211767413324 8.001066526377874 10.041392805529433 0.16441279119285232 -0.1461445890112838 -1.0731666324461904
P 2.261768183670343 9.073142077657414 5.576031228736998 2.2199943420219572 -0.7170081665734878 -1.3333093076432005
P 7.126245664895754 4.206925426153126 1.4500673660268288 0.3016189400639257 0.06185791384706121 0.27097910369088174
Ni 2.6281503538858626 1.7087575630053042 -0.020053270707697867 1.046898699888597 -0.5196664858630985 1.8219819162279458
Ni 1.4694531959939945 1.623729437014984 6.651504991263014 0.4718923038026131 -0.1661490571576687 0.01346075349059617
Ni 7.049849651074938 0.964857069427321 9.063872573239108 -0.11866206732029887 -0.38408681685185464 -0.07876523112536112
Ni 2.8791645270680393 1.706635957377146 9.29374990889062 -1.1846815471987466 1.794137126101536 0.2575314628264081
Ni 6.908740112793508 2.21983687930266 2.7544714814347078 -0.08051023884092587 0.32401864791536455 -1.2598109813437335
Ni 3.9774824277911542 6.94892314127876 10.281705162854207 1.0069409285487367 0.5767701728546261 0.5667883790515658
Ni 8.034119867280086 6.191318714351512 11.245057986574354 -1.353824653987733 -0.20471509035632485 -0.38205358847190973
Ni 8.030113401716182 3.844404031844642 8.156719534656277 -0.31962308995083016 0.42960434166767947 0.43147404788656657
Ni 3.487528111739841 8.480148751785318 12.140310911872032 0.20402294938530668 0.6963550090995104 1.4666827130317448
Ni 0.48504275349410825 4.847495530596588 9.937642648071058 -0.31235098176944914 0.3970076386785808 0.3478908265472719
Ni 8.893543153151837 2.8769609710078914 5.1867639451083845 0.3008820618979011 -0.8188503341229704 1.246852878521169
Ni 4.042077579405562 2.6140913019979792 11.5339869823964 -1.0315548704426751 2.3793299758022184 -0.07320933430413844
Ni 1.1905303479178009 3.5847213240787448 12.389618694948128 -0.43155632318772774 -0.9216816050585998 0.6659008063747112
Ni 3.047864044119085 9.014702314045733 8.04495917775116 1.1138175731983335 -1.644661672944806 -1.8963351343285402
Ni 6.003260684143963 8.167990450735825 3.2969196019767253 -0.48588630408885997 -0.3360367554221632 0.5521220352886427
Ni 3.562321539335096 8.636901716973085 3.6058517876869196 0.5058246948839998 -1.0843234203939585 0.469584738715359
Ni 3.522848747927082 4.504332649444606 9.259472774870707 0.7842445711236429 0.8114311588407639 -0.9669705588033861
Ni 5.420720591152237 4.832125271796882 11.507240182515915 -0.7997863755129839 -0.3828416315908439 0.6598263180458572
Ni 8.186538565175994 -0.1357882235642806 2.1635269163623363 -0.06683814067047199 0.7817585714769956 0.624929249058356
Ni 4.602591217399367 0.8239542283465741 1.5637071195055605 -0.02411900453539072 -0.4587904763133324 -0.5268023255769314
Ni 6.245843068434832 6.168982668832744 0.23705528293339068 0.9001025933362433 -2.2063039890190583 0.8165653947435356
Ni 8.361848750407482 -0.5108990253469797 10.959847719243896 -1.0838354250139464 3.4473397466378177 1.700336340799291
Ni 0.19048285243406618 5.294252863386166 5.744537706992692 0.03305513068275597 -0.09984390617253128 0.5098073336808318
Ni 7.704797503530685 6.548722759462463 2.3819694350703235 0.3488652746453992 -0.37671854941224153 0.1241382599435217
P 9.062889168055241 1.8075169391555521 2.989159307443973 -0.37243200622174566 -0.3676623527472442 0.4577468655401665
P 2.416008002277115 3.4583537579517722 1.254219491978552 -0.16719678169589267 0.5947838358232272 0.11265442767363823
P 5.083166761789721 1.4650369782701451 8.162250278255177 -0.04029998517062737 -0.6894623957447352 -0.7427739626836821
P 8.536539754597277 1.5385100933500226 12.165472426173707 0.8948837681394654 0.04970276654176601 -0.22449484408641338
P 6.357532401632226 8.204995623580619 1.1516102666455341 0.5705128790910046 -0.9353837851360406 0.5816051323494241
P 1.9427897855586578 3.62993975132954 5.804962492179216 0.009022515213584463 -0.292446015315406 -0.4800288168668185
P 7.224977724235339 4.292326881889174 6.177344344576683 -0.3507468079388282 0.22915959655193435 -1.3543756413951964
P 2.5014823028415973 8.817028766484814 10.2348340685583 0.5411367399217325 -1.27462387798685 -1.9723865660671647
