# total energy = -381164.25624812185 ev
CRYSTAL
PRIMVEC
9.37788459431120 0.00000000000000 0.00000000000000

0.00000000000000 9.37788459431120 0.00000000000000

0.00000000000000 0.00000000000000 13.72548203487424

PRIMCOORD
 96 1
Ni 5.002013710207958 4.503204017292608 8.748992598924904 -0.2152969796372292 -1.7507613302190623 0.9648100608169576
Ni 3.27993396722184 1.8585936121301072 12.145940061621845 1.995867422797924 0.008906558461010468 2.0003210876939033
Ni 3.41069919297878 4.423304438731999 3.5117196437030276 -0.23855517883422142 0.7903357716230454 0.5473009597509154
Ni 2.4100132388159996 6.598870557358419 9.342688668111862 -0.022367826172238894 0.4657239702083721 0.6359124875427371
Ni 4.705522504131408 7.758896152286845 1.3736875712304795 0.3699331510592919 0.2675793339807133 -2.9937138452445606
Ni 3.8548639511203433 1.5985542443006326 5.4294164370444475 -0.03497034542759784 -1.1168391336334764 2.998742151697087
Ni 2.8673070356881794 3.606997077771112 6.03653601054498 -0.6308826384283135 -2.4432388586410374 0.2512536002374963
Ni 0.22004831585601678 3.5000141678862025 14.00712947226669 1.0915754739706813 -1.1247308776767275 -0.44735163834877145
Ni -0.07722125465956312 5.107468024869232 9.852631785870775 1.0961322401034284 -0.1782862067408349 0.31528563891774086
Ni 5.235607442880049 8.936289589878916 4.2885273538543744 0.19293095323720322 1.4052827126577088 -1.403559302208699
Ni 8.640192254964283 1.5110585790458813 6.09773796237623 -0.7128787177861464 -1.1468315662305089 0.0693285111924935
Ni 3.2863390625454194 5.595202435826827 1.3090570647135777 -0.38874205623567887 -0.10065483210960084 -0.37562145969332084
Ni 4.031327609544636 6.130323298717139 7.676689614063571 -0.594859426256169 1.8283060586737612 0.44046159609715757
Ni 1.6550278666118987 1.6700793717280698 4.290269764851624 1.429488363369635 -0.587717158784433 0.3898278331006899
Ni 4.933048745332992 0.13898494179078685 7.670856569713254 0.785016416292661 -0.40278927835736444 -0.1229861486169495
Ni 8.246161669004062 5.999211091222318 5.914173369575635 -0.12312781640113633 0.9480305273657736 2.1649778765767618
Ni 7.347075718846637 3.535912710929631 8.808053579654581 -0.4183945889947891 0.06477020239784974 -0.5091843553848522
Ni 1.5259225264659007 1.279631137764343 6.738772656283387 1.1482626422500803 0.4928529652146803 0.0006283776126182726
Ni 1.4547443807763443 8.902416669953926 10.694058749077255 -0.5778073558698889 -0.8179422204864043 -0.019956388517268855
Ni 8.168550294336503 3.7561335798661077 2.0350357014193428 -0.616509400425777 -1.1468271953551346 0.5299169599465131
Ni 8.931647536899163 8.627663400861353 1.637697535487485 -0.380228619448029 0.19897767365191538 1.0502048814436946
Ni 2.1218308386789677 8.048222654370402 1.1432616880463913 -0.09990381287618924 -1.295702295923704 1.974339318918161
Ni 2.8347657754058653 7.531060440886611 5.867561530928023 -0.6038022372717536 0.9560294864108504 -0.3135727699916922
Ni 7.98754773966534 1.6785757353637403 0.87367938463672 0.30328295802990995 -0.39715316311750953 -0.607266027450638
P 0.6146200057696377 6.595803989026338 1.4425484415840824 -1.0344229360190895 0.3696127916053957 -0.7032311673940533
Ni 6.6931558112138605 1.31479820579278 2.730162972685121 -0.9834675280171451 -0.6529763850035593 0.40051770871436826
P 2.901630094083934 3.4265103067643654 13.555327364737831 0.42522215343958375 1.4357649404069661 -0.011159359050929168
Ni 0.6051961693264974 8.95819632878943 5.302222309822235 1.7076215616067945 0.7726524954106693 0.6103464661481747
P 6.32906881144425 5.805585903600147 4.568869842292267 0.9688181535350863 0.6422836811764036 -0.15588084246244122
P 1.0210453420800438 8.062251970042546 7.193030831843353 0.21810102474492762 0.6847104828820466 1.7791486231125035
P 0.42739053558623913 3.156249044494625 3.7592723579112053 -2.4653575449169476 0.35047864187910605 -0.4977732853344331
Ni 6.89411450475556 5.863935102872931 9.259415864385964 0.7279482105247592 1.2420058348415126 -0.036220415784615045
Ni 5.886939054305933 5.527897356562802 1.422550102231911 -0.601641482175009 0.7422129479738895 -0.3250859128376143
Ni 2.826138121382889 9.431901424074882 8.508550196977836 -1.570774852957669 -1.253649075507396 0.5604549806343702
Ni 6.78775991315276 7.669337352374425 2.4719044651806064 0.1956727776483985 -0.04457624394847807 0.9885745102264071
Ni 5.954900585506487 1.8738889422512754 12.532449583966386 -2.040295314093996 -1.6269406015159593 -1.3128422980381003
Ni -0.13290338349306915 7.369010591411574 9.147292935838019 0.5473025024128123 0.9384773364596998 -1.1178889150542295
Ni 5.946723069954275 3.5906045351274565 2.697304739896311 -0.17021371414534556 0.16451280710582636 -0.43447709637894844
Ni 6.551606017928199 4.324714735749877 11.262842467272868 -0.1877715205234508 0.24363490734997398 -1.388533518223828
Ni 7.493502012232241 3.61298016827835 6.144089095826191 -0.7188555041948717 0.1441499271787582 0.4092507177119919
Ni 6.213373846573096 8.662380330419026 10.396737600195234 0.30049665353402444 0.40617207878666817 0.6153434051421338
Ni 3.2653044669220104 2.301370443320148 8.246585549397363 1.253979205153305 0.3255664520184587 -1.4858081210072862
Ni 4.283423908942088 2.0424564216675836 3.4229016966904076 0.578423906407965 0.7391121975613787 -1.6504199155848223
Ni 8.835242881077207 7.521373085880378 4.221834650468286 -1.1420714258377043 -0.7832996907118704 -1.7637960519158333
Ni 5.615167952582172 2.4678841659635955 7.271101722866482 -1.313765581183318 1.4211343349779848 0.02677238299783776
Ni 6.13800378637455 5.563036290936815 6.970047238042562 0.7565211370664455 -1.0763607139034561 -0.46704885966738274
Ni 5.355381787642502 7.527374932157231 6.036439418331462 0.4851563679013709 -0.2265743523232614 0.019523157634592184
Ni 8.141935857252582 2.0992864036015377 12.138349601658586 0.8077981900738668 0.39870765208882303 2.3393873739710096
Ni 1.1847925887052542 5.573942770968035 5.324210636330576 0.6463511663775579 1.3509936122968411 -1.2578361170055499
Ni 8.868740685609895 4.5765296986031005 12.084463337765731 -2.158925499735095 -0.5504299922982006 -0.6388512584560868
Ni 8.907415082556367 0.8651295670576463 3.5552977366153864 -0.6275193783830354 0.5230824535231829 -0.46558384508608197
Ni 0.42279443424204255 3.551386220862143 5.890702399479215 0.1668316850469901 -0.8509788392263989 0.35013848493086797
Ni 7.2016434812506365 1.1790251895485906 8.22769942718337 0.283124480804164 -0.5371813548184103 0.6604629231885916
Ni -0.1863863983391969 2.6586772323738757 10.28329614104334 -0.3289196847614077 -0.6479537349779873 2.060462790180806
Ni 0.00013222817578692315 7.916791598792124 13.27877260397372 1.2243986632827106 -0.6856975293856643 -1.392650625715995
Ni 0.9462191992003375 1.0501261628683594 12.4419436176884 -1.857980445809742 1.0731064686322165 -0.7643735432313288
P 6.535063429127622 6.0444500075341 12.835714436239453 -0.2662107357679609 -0.18544184394900967 -0.3555380586798844
Ni 2.6046606158821968 0.08208556350925653 13.422697815481143 2.184129766914864 -0.11418346272365497 -2.1263257114222025
P 3.4245315730699657 5.465909537984677 5.770275353934155 0.6426372078610804 1.4698366852796945 -1.7189470139219427
Ni 5.086011424429481 1.405923112468066 10.062274400744297 -0.7196466326375993 0.047059158271331857 -1.3151354649476512
P 5.653607902408455 0.11314980693437587 0.2628386664445382 -1.1534076767861297 1.2519899426374181 1.9620476460350014
P 5.4700264294152054 7.567943661834836 8.831305107246504 -0.4527738378056073 -0.6626396191249362 -1.6902925834100437
P 1.4208339493121234 6.731361313919954 11.21513247831429 -0.9529575323537457 0.45127282778004857 0.33506513553751327
Ni 1.2370086513138774 5.548969463725442 12.988149140421276 0.8605957934908726 0.8311546054116201 1.6544969138676733
Ni 1.7524547118778806 5.1294872983974376 7.586293369037835 -0.5679453754741445 -0.16896158690579932 0.4894747927710667
Ni 4.895471560909006 2.209729752980445 0.958673030224808 0.5341559377285252 0.6926194533164781 -0.6242463640587185
Ni 8.401178104873411 9.488356290616531 10.712024900791622 0.558183153881058 0.04999432964025583 -0.4106080030708348
Ni 0.10253029017826867 0.5829433864665832 8.438303275249671 0.44238221015863816 -1.0337598485137938 0.6292150209179034
Ni 2.5076182638933253 3.0048149606217716 1.8130536657160023 0.746462724389179 -0.6035186445930639 0.5968936830773784
Ni 8.499561494389766 5.044064145685161 3.9658268353175905 -0.5504755008241552 -0.5975968797919902 -0.7228988210263099
Ni 7.397556872765858 8.218759489596303 7.479564599831211 -0.22721250012789257 -0.24856396922047516 0.016193579040726946
Ni 6.1995039549426805 1.1724231586440519 5.475891358573868 1.0484038236792137 2.0991787186937656 0.4388459148706055
Ni 5.213860128011262 8.047125441847914 12.511463753343977 0.3130271819008673 -0.8981660384351629 0.45671970982723276
Ni 7.393299313063214 9.146457366301664 12.953080540183318 1.3516345883149496 0.15077360314286292 -0.5617991533670905
Ni 2.213602819405977 1.825030162403767 10.276007648970888 -1.1181943621097905 -0.8495464776552465 -1.9849302070601298
Ni 3.746464980629489 9.258288642632094 11.036248387821159 -0.1989373073322832 -1.5033559000830625 -0.06264492852473082
Ni 3.0263840956792127 7.169721161365623 12.852720292549524 0.3477417025639173 -0.20622921300800612 -0.8194959381267692
Ni 5.308858101112081 3.985666688416514 4.864517038736135 -0.40635874087617757 -0.7182397249877437 1.6413230954898763
Ni 0.5651694813907707 3.018938055141992 8.409987689861655 1.5635387402205458 0.6848500937837044 -3.4003566930200595
Ni 6.534163152186094 3.746202399854877 13.493136983847862 1.5258260561611205 0.8475731559789595 2.3055614265605002
Ni 4.5289369332046165 4.897309626331292 12.756655116157605 -0.6401661206127686 0.11639486855267697 0.5986464041024271
Ni 1.3185399818310057 1.1963180091337737 1.1370450882074443 -1.6419365607041592 -0.5673835894334035 0.7664317113119381
Ni 4.234902732947653 3.4627558315456746 10.729456513071957 -0.399253497289964 1.0258429076595623 0.04069362106462024
Ni 1.687437836506906 3.5702545250950006 11.758359584832276 -0.4319576723912045 0.24705704565764547 -0.334380707875979
Ni 4.863296038134188 6.424338743204488 10.791495910016526 -0.09617262796853114 -0.11960694773207144 -0.822648624823138
Ni 8.159078630680844 5.632413882743316 0.6290666373157197 0.7099638581321968 0.6703369877691939 -0.4110741440739759
Ni 3.6768904532420295 0.5194888667045523 1.748200903329161 -0.6527750676260307 -1.0099300930840478 1.1951161122685094
Ni 4.049314392605581 7.372161560706922 3.3321490920419827 -1.1978309400965113 -1.553155082993377 1.5348501140366018
P 2.9637210693949423 9.312445927395887 4.2898993384017245 0.5172961858587091 -1.2615778434361693 -0.5456441408737829
Ni 1.8424073829522185 6.700048556547434 3.1834467860135782 -0.38453933100824095 0.25733194522109226 1.0503846015546683
P 7.019609359250639 2.0162358557455806 10.337278059361234 0.8284744874762958 -0.2458170026029573 0.15746926999548364
Ni 8.15485858251743 6.903520523217567 11.212937115480832 -0.291298274864208 0.14724039317862384 1.2461067443837637
P 8.673249298911015 5.017459086486048 7.84057190223001 0.022721095746599577 0.0810897654934797 -1.3009532599099984
P 7.301133461174287 8.80523364969294 5.215779781031376 0.8646031148780529 -0.6791810684233852 -0.030920086617624166
P 2.55350425425683 3.947367406862344 9.329347689184594 -0.32447090496143477 0.9234268698844805 0.7290956938656411
Ni 0.9918050972499995 4.6253509669113795 2.463682873569798 0.7667975792917892 1.2327557769981543 -1.0968120397792724
