# total energy = -381177.028169103 ev
CRYSTAL
PRIMVEC
9.12385598849447 0.00000000000000 0.00000000000000
0.00000000000000 9.12385598849447 0.00000000000000
0.00000000000000 0.00000000000000 13.35368549265364
PRIMCOORD
 96 1
Ni 5.038886660136667 8.060789860379309 3.209050820787546 -0.8788418841852541 0.9324560699662843 -1.5260016625070363
Ni 6.477016204115984 6.196986817771268 4.087589645886876 -0.48695485456269033 0.2890958678962505 0.45570232430631197
Ni 6.771917475634098 2.3047407522153467 0.20262989168032508 -0.64847489758878 0.6918905455702535 0.2908071941604024
Ni 5.49753377411303 2.245937500716855 5.145308228143425 0.46177835529706274 -0.7715602907877551 0.7948953659692698
Ni 2.150784807174921 3.22291999419373 13.164557172452504 -0.4385831481275221 -0.47727696515329415 -0.13226011771970772
Ni 7.331611294086146 7.155566493828057 8.927739563670512 -2.1604306235257114 -0.13078738982892313 -0.8685793259169815
Ni 8.13679158031452 0.15353077335387333 9.53045874955335 0.45266276614903983 1.2204386501936981 -0.2837466877691952
Ni 5.332784307501974 0.11458559429703696 9.017729979524649 1.7305591442395745 -1.3287736245563762 -0.15517944552004242
Ni 1.3387525051396643 8.289333327685082 9.421438707376417 1.660790974406501 1.9063017586229494 1.3124386348417783
Ni 4.850068461570138 2.3340921967569526 7.941730839517538 1.659743506978593 0.6532484077180233 1.3722628060882625
Ni 3.068033415847975 4.9251304243440845 12.019331687927215 1.6851640039342268 0.8269745058920016 -0.1563135591244856
Ni 3.2809385940818454 0.9778310120787922 8.99914194782909 -1.6963128214621945 -0.14114636446574402 -0.5200259260850463
Ni 0.6017812534927611 5.17117344733242 12.312552345182175 0.12023069735899938 1.2643875449708226 0.8244249999972706
Ni 8.939617911711766 7.283501201743006 10.672732666683794 -0.1913641229707156 -1.9510901185822334 1.265623988481085
Ni 2.3156711316249963 3.616924588873459 10.369377230256683 -0.756916058512019 -1.239567400603349 0.6993398027594472
Ni 2.9294511680573487 0.9925751632691043 11.232839795809682 -0.1921359681397336 0.06372170652867735 1.165589306453986
Ni 6.270598087451614 8.659177951849992 4.945417318014666 -1.3138522273598536 1.1005172565450014 2.9918366828265057
Ni 0.03194991871177922 4.738894277007048 6.443820879069133 0.8295134702637713 -0.6570199589453135 -0.42108422001181034
Ni 5.426997243882644 1.4743238804718728 2.8268552328439687 -1.6654223025309256 2.1677636668520153 2.6777280949360014
Ni 1.250835029353867 7.093788865294886 1.828373285242805 -0.7168940095931267 -0.5376816914935965 -0.6404900796110904
Ni 5.824332045978502 1.0840874382931336 11.049453941066613 -1.2429579143421368 0.3841410671285577 1.0271996787977729
Ni 1.8321250148031123 6.066324076931874 9.71790380780172 -0.1569493929362716 -1.4138444861847907 -0.4652421454759471
Ni 7.620499944543359 1.5268955383670328 3.9214296311483303 -2.0689587434669594 -0.7905982812558126 -1.8383894110516918
Ni 4.842112459195167 5.9229883001993215 2.521910420713049 0.23405317719880983 -1.0893527552877498 -1.4649407906399738
P 7.7578778433506175 4.264873465780885 0.8543569573302687 0.23866676471142123 0.22033377073018828 -0.2112094398314169
Ni 7.55388667236485 8.175823436002736 3.316013433451225 1.8060235931264768 0.38151417102867197 -1.4257618064476671
P 4.074057142764678 0.5667520334030547 4.483873379779068 0.1412193837955245 -0.8596640257052227 0.8191809779895117
Ni 4.534027215851559 6.9678066625499415 5.831153953060802 -0.5216328655608501 -0.19398587686427882 -0.5684724516222082
P 6.910727819823089 8.310464178029614 10.839520402710642 -1.6284644943596536 -1.2324701274369354 1.21063734783256
P 6.099525788677881 7.884225000332947 7.045697933049207 0.032590789451827744 -0.4145577317472022 0.4620457500258365
P 4.544875480557797 6.51398606836298 12.514139380129174 0.2412980316866812 0.24615484555835027 -0.07864773171089036
Ni 4.278650488242129 3.4557607976447 1.7999834951167062 -0.7107148773656082 -0.9854637325115673 -0.4634544574479051
Ni 4.339050414529176 0.17417076024912348 6.853084210413885 -0.9563364761283076 0.01811342177125913 -1.4241412401251088
Ni 7.40027743384994 6.394600413458751 12.418713883294796 0.22483011593864508 0.26657686085812793 1.2318206667783946
Ni 3.923376662004774 7.734137570208791 10.37916530290332 0.12803810921856013 0.782793183389097 -1.047734565526331
Ni 8.977928982781147 5.335603578985765 3.7521319223538763 0.29099385624991175 0.3670175200743937 0.17453908099357685
Ni 1.011087466960406 1.6043844468195834 9.912507443416379 -0.3909647749186106 0.9862024104498048 -0.478142398477383
Ni 1.989785245352985 1.851038768155536 1.6937416670718601 -1.739687588903404 1.1279221309205156 0.266298924606393
Ni 2.1533759822603473 8.61771002662724 5.388064838224117 0.5360876075335993 1.6275502100755002 0.09376170453419336
Ni 8.829118892487836 1.5137936812449486 7.844021641542729 0.5075131383300162 1.2256798439879797 -1.5194877726479186
Ni 3.8881129588175485 0.8662289186723691 1.0822909510596108 1.7727514613369084 0.36879672346200354 -0.9031192686753801
Ni 4.757698544088256 4.1378693911712645 4.030289093460813 -0.660865557943649 0.49476149509130274 0.9387025650966286
Ni 5.5087834884803915 4.8043305717699925 0.32253195683045294 0.5872808425779628 0.7658246738555585 -0.16113823420663861
Ni 1.4199365752457274 1.9626691455153564 5.805754962910065 -0.8629257271756299 -1.17231531232391 0.7781636550368856
Ni 7.7076783879984525 6.237889063926077 1.9599867318705844 0.012584778643546068 -0.9195930979606873 -1.0168309339689392
Ni 8.29472552654243 6.976164114586034 5.510211371934156 0.4125409584274895 0.29381589907973915 -1.3644435671541597
Ni 4.48028770439677 8.808106652270453 12.449574413607985 0.41876894161507233 -0.31493571177748986 0.3141168154206203
Ni 2.908083097458518 5.366177620222607 1.0380712708869828 -0.10993497185994613 -0.6598481724227281 -0.5786812738344098
Ni 5.785099465459726 6.197041560906876 10.622162782780688 -0.5215302785447148 0.4521940540427374 0.8119649198570468
Ni 7.121406777208918 3.356246900966027 7.082273646719829 0.10601763908341096 -0.8043439129766793 -0.1664737874869391
Ni 8.827029529478812 8.92107823645266 1.4125790978200667 -0.19978242894139786 0.28421771386834277 -0.056162920344812954
Ni 2.973610630780809 6.846787837433418 3.517988232275446 -0.35811816070223484 -1.5152598506094999 0.6965213594740456
Ni 4.927201539641239 4.678804561821778 6.530646229299559 -0.05439657247300954 -0.4686051484109091 -0.3923423719924275
Ni 8.696220806944465 2.270079223519805 2.0364501189160857 -1.3674288750347288 -0.059566289599407095 -1.5176044395822768
Ni 3.5139345030837035 2.729757333216778 6.332518048137365 0.6284395762044597 -1.1082848163055623 -0.7774175208994805
Ni 0.21498450500136576 1.8943588361330128 13.171073430360995 0.33546571341004155 0.09600524915273144 1.3138128894814858
P 2.751189270807151 5.268670971849546 6.819139816794803 0.9539931727071119 -0.4494879679654839 1.3764542184617907
Ni 0.677138829198989 0.6956155498521458 3.572565313705031 -0.18879996178796518 -0.8269490519707049 0.2133624816186777
P 8.382570011480752 2.3482432973115155 5.523939125573354 0.736765551706073 1.5383951510753828 2.7488234682209307
Ni 9.012125194824025 3.7911902372243014 8.729691672440541 -0.27473471407857203 -0.49831373121893535 1.0083941160554954
P 2.6555438890447487 4.566134064885413 3.0312998594696854 0.8560925063038805 0.31439655144456824 -0.6609331779567907
P 8.90137983148986 5.884713724553679 8.435429983223445 1.1812259845499786 -0.3171715430865441 -0.02857189810042176
P 0.5989875288055869 7.485877450228348 3.908783966822976 0.1678153891164981 1.2803677224491627 -0.9470817902992592
Ni 4.799513175836524 6.713013861720326 8.460307088814723 0.39751106067756053 0.08879176212342772 -0.9118422503706748
Ni 2.038105186382622 3.214170216352449 8.024163053115453 -1.1223436083914735 -0.6961907156075042 -0.7052643957739982
Ni 8.454611977940345 0.10909941972356252 5.7285306462796175 1.1131781398421214 1.2636545234595398 -0.8490304572507765
Ni 2.390514121856513 4.020025667919983 5.034139517893895 -1.2917062873904335 3.6441201555280984 0.7789275297861037
Ni 0.9173945903680075 4.2116175186906295 1.797259111734635 -0.7297143012862465 0.6006014709462689 -1.2300969992190687
Ni 0.3795250353115199 0.13879757079068267 11.623728593687744 0.6680890722752817 0.5571855658544791 -0.27667923939945255
Ni 6.850510370654735 2.253236585464535 9.250645598594282 0.2426779427533433 0.6923199197981883 -0.14088565460518962
Ni 4.331295136984766 2.8733029586358256 12.36929178046826 0.6173961739061045 -0.7558145979177242 -0.32255646154754125
Ni 2.9623335448456443 2.2975146583151442 3.7417690467833586 1.0065866305331117 -1.4400597111275781 -0.12271926810880801
Ni 2.6354166628530233 8.959334564386435 2.7595923421229167 0.6491261580195337 0.5388677413818977 0.4950340320263991
Ni 0.6592487724824272 3.078179143647249 3.8249092716017996 -0.6742409508092904 0.22244413220497175 0.7585903608906484
Ni 2.4111249124127725 7.073533905120076 11.813110646551031 -1.7510868318792812 1.2371155966287468 1.4849144055484234
Ni 1.8225084706480448 0.1171475730434724 0.1504523843615396 1.0548130696396671 -0.41226199373449 -0.22219319253643025
Ni 7.11133404025712 4.154118978590786 4.828198578894904 0.8245707815465154 -0.5630708209906625 1.7290949009892222
Ni 5.996453588184715 7.4868080835336785 0.7885830798977437 -0.42404278841950194 0.27996639479115654 0.42440737084777225
Ni 3.771957148914167 4.364843555256288 8.804004566642258 0.613516379235724 1.8156202356759763 -0.5046036779927052
Ni 7.8736322035928765 2.034483015576586 11.496948965934115 0.034842047379849674 -1.0105016493168015 -1.6223457830564254
Ni 2.6879335776125757 7.382613648760556 7.777880985101634 -0.15109859058244945 -0.117374715967443 -1.0148897510821684
Ni 7.435358659918474 9.054021941275703 12.876077270741161 -0.7363768009080865 0.07080869528244578 -0.507134671944675
Ni 3.524408689696623 7.533558721342564 0.9004844357788214 0.11711529165846926 0.6281459562234408 0.5882012975097032
Ni 6.666053375224944 3.809328462822285 2.7166874095904645 0.11137864628500818 -0.20461353178145406 -1.8090868054328326
Ni 6.089060725920896 4.751549065188336 8.694691648689826 0.9818356488406769 -1.1858465140411254 1.4840741690353152
Ni 6.6685441878950895 0.8609936501370961 7.096027859541237 0.07743185702591826 0.19879743932030924 0.1778159519726357
Ni 1.5414115931589802 6.469060201741014 5.539255342530765 0.07751978875403423 -1.2208194305718847 0.8295512654802423
Ni 0.07846789819433286 8.012123212824157 7.523960424899365 -0.024043414102448916 -1.0940187933048513 -0.16586032227265626
P 4.918679858198324 3.1683228402810886 10.180035322359508 0.41859847747547907 -0.2576355925044401 0.47269911597462466
Ni 7.9303460920823445 5.0710391284501934 10.55439260566967 2.2316075007808536 0.30389848012672177 -1.9130002536890471
P 1.6128878805506295 0.5136685271899635 7.648483723080368 0.9016329139378406 0.02145919831504046 -0.7887082633219513
Ni 6.521887327602344 3.940246671627848 11.646763592765828 -1.8592132897755789 -0.5882182667905677 0.5206869567078128
P 6.391470930873184 0.5691406588867327 1.4455901209770396 2.1733493884699087 -3.185143531345889 -2.255506161775322
P 0.5119842633844365 7.572107012666245 12.975776381695306 -0.8498462682838526 -1.1323449425785594 0.5448381000327197
P 0.38632413275398314 3.2811210712005376 11.44066298628798 1.0623255759666286 0.26326142333164987 -0.908191798102281
Ni 7.108642502756413 5.779734638170181 6.827779195979274 -1.7515226338651193 0.12680012304640098 0.905416549349989
