# total energy = -381166.8823307498 ev
CRYSTAL
PRIMVEC
9.23967362396375 0.00000000000000 0.00000000000000
0.00000000000000 9.23967362396375 0.00000000000000
0.00000000000000 0.00000000000000 13.52319630919760
PRIMCOORD
 96 1
Ni 2.5910355183903295 7.418247644163416 12.211473477889447 0.10224865895928195 0.5355882992996776 0.6708172698397221
Ni 8.185371559343436 7.578703818942293 9.88396916301119 -1.384286827132332 -0.03509555815155246 1.6183711146793935
Ni 0.9864368119064634 2.0885820584988575 4.127901872298241 0.39295429454481356 0.9243938617834402 -0.3598965927588963
Ni 8.403002835442805 9.110142788474693 7.076634729479865 0.6017448405220926 0.27560683227088023 0.8808969669420699
Ni 2.2987014798190484 6.030725833352411 4.981080413150296 0.2539491447917885 1.9596624336322765 -0.9260023439211408
Ni 9.385198637086484 7.2522291857719114 5.445182759103343 -1.03818317439247 -0.06197875569564165 -0.92452935892004
Ni 3.390664605911251 1.9199025740601168 3.4228426938005128 0.37259115750742927 -1.4137208161227328 0.051228716267989194
Ni 3.2259674208695905 5.132675740778824 0.6017291347683374 2.2390806692294474 0.4311660297278445 -0.8815867939202431
Ni 5.967350910928807 5.234690978930015 6.452701734662517 -0.44493737248032406 0.22518184285110898 -0.35089798880471185
Ni 8.59282269347904 4.077274003814804 8.230718030297009 -0.3254363541984976 -1.2309490628067186 1.2885795688359938
Ni 3.980793330254915 9.226285487828054 7.051414115943276 -0.42215354181658904 -0.008610110266514204 0.21736363235827083
Ni 5.859209769064706 7.086644992047839 10.479355261732904 0.6849285124301236 -0.287073438149583 -0.8033800064015132
Ni 5.6487761988361616 8.831160078508473 0.5606366096208323 0.9799129778966673 -1.127097321026375 -1.1806042918055795
Ni 6.941868543665354 6.161051431950594 4.073362849905792 1.6514414148708012 -0.642086734674249 1.086717888768064
Ni 3.04863960177733 9.031235974435099 2.4915270037343316 -0.0960705551730281 -0.8729234618182902 -1.3038609204750964
Ni 7.61961709441856 1.3825878250150856 9.76224662466503 1.3498913803715977 -0.32223275965953535 0.05704532294976627
Ni 4.314133041040216 -0.06344329600954038 10.018362989972564 2.8523638494084427 -1.1295110726741902 0.7974204463839686
Ni 1.398101237283526 0.4666257008610352 0.3825576050506536 1.0078482708543546 1.0607577172588765 -0.4958860956140491
Ni 8.814214516804887 0.24451872678499312 4.5174779335484825 4.873736615566322 0.22735236813986653 -0.2296259946653916
Ni 0.7538076973353053 8.874457189818722 11.675129818558181 0.7967617297540471 -1.6009979135082686 -0.6714255928476823
Ni 8.408749912530936 8.90088265681559 0.6132935104652879 1.273120553968446 1.6007426029643528 -0.20710827317884975
Ni 9.16761355935599 3.373358696930436 13.366963057055166 0.5606871512498344 0.05060419531011284 -0.729477502685092
Ni 2.5957939503845213 1.2572793692767967 9.758500860916593 -0.6735495811692206 1.3684303197160497 1.3804867366599514
Ni 6.718508669825406 2.9670255633216227 7.423342400283022 0.8239930546661743 -0.14097075811982818 0.07161525034414118
P 1.182761400280388 5.6624786350446765 6.768630204185966 -0.6651706130769061 -0.42128013807270026 -0.198536986570071
Ni 9.40201484335722 4.398454303912036 10.65304726919465 -3.095631603226985 -0.05983779809323888 -0.30492229340554583
P 0.10708966698849105 6.30089389453716 12.641457404460457 0.7289740806861122 0.5330956147848109 -0.09134409623163624
Ni 5.983427943297531 0.7578814695027594 8.02228484944078 0.3176978479036593 0.14867763984578267 0.15551651714448703
P 6.40678055600013 4.273229005237723 3.3469507853137417 -0.3988302937096163 -0.17211941580849066 -0.22561790194726308
P 9.390095664187303 6.0192778775450275 3.336943294647901 -0.8161298498680137 -1.1532971193501944 0.0990977720351261
P 4.685152141480489 2.603407441575227 7.591516474566262 -1.6306702437617209 -1.265066573315718 -0.6766670437522797
Ni 1.9168072833454488 7.8150731534576225 6.851865805389209 1.267687812988649 0.4917939278225466 0.7021464189703069
Ni 8.248497010575111 5.359528211305772 6.387519532048497 0.020412245107764848 0.24093602036157213 -0.8856434804881198
Ni 2.0436033265615334 3.6999904045549936 2.4351899408252424 -1.8165849135820908 -0.2861013040443008 -1.4125460790883415
Ni 8.46100950740306 1.7386848523085272 1.7671162524819741 0.8785986578261966 -0.07434447634984616 0.7177733268742864
Ni 1.7574598694195875 4.892130073717136 12.064962742739372 1.611570289707476 1.2576718235135436 0.9989070025006667
Ni 5.1137066905184865 3.251080854190389 5.344867620926776 0.15988122187108594 -1.4657573730039983 0.2630292527161857
Ni 1.4320477987333469 2.7020594384722707 11.37549643770455 -0.8934557774436871 -1.9861717927767149 0.03136385902326211
Ni 7.619922003653139 3.274873014161344 5.357443740902103 0.5743391948156301 1.2747079530602239 -0.789033507871854
Ni 6.795022408357243 7.66365337963082 6.175570655320831 -0.5510905087003347 -0.5747863096553779 -0.36184883138926066
Ni 5.522072552357828 2.533407673054855 10.041405812400356 -0.6002911387947016 -0.5257309468896236 -1.8241092469835942
Ni 3.7502911885867913 2.7200583229862203 11.520005859514932 -0.12309104962592995 -0.5640555535014351 1.64350184830875
Ni 2.8759593385939586 3.962711288676989 9.829781248222197 0.8314245712435552 0.7358983186097713 0.3318368584082027
Ni 5.901804665168047 5.559493231147097 1.4507415067151863 0.10645498373114569 -0.04227253551596591 0.84727362246067
Ni 1.1394827683176871 7.842551943264853 3.272126983115376 0.32585955777884523 0.24894937758435187 -0.40365136924734357
Ni 6.91883403694396 5.998331537096812 8.486779881529271 1.0058173564672548 -1.8943232461048345 -0.555005784594341
Ni 3.548967936700523 6.430064533913452 10.378701951496167 -0.3724942269182488 -0.2615614099214076 -0.3905495417580629
Ni 2.9612877259072676 3.9232763610047416 4.362894495421077 0.12995563795624715 0.3028170741370849 1.5387587050623885
Ni 4.2635181081000635 7.024960929925083 6.052158180641198 1.1845403936351921 0.16816763024959425 0.24091802263944315
Ni 2.231676886254268 3.0384667209509133 0.07926531338206994 0.8734248269347409 -0.531270388650614 0.3684339408059461
Ni 3.421543595667729 6.046202286925751 2.7396371917157167 -1.2587360031119998 1.102355852415637 -0.10562400318941809
Ni 0.5418163181082736 8.969782904156721 9.157273440434244 0.24113450952562343 0.6941464314839658 1.1932584902344805
Ni 7.491998720236489 7.104911827101267 13.594328329476633 -0.9779576539425092 -2.685268883397737 -1.816331145700072
Ni 6.80346747018771 2.2195082358924245 3.4713907117171687 -0.2587365388781028 -0.6413547416042309 -0.5415974816082351
Ni 6.29476799082425 4.974917550742285 12.77065761079283 1.773936482783945 0.9335534167955213 0.22027823490190454
Ni 1.8042218583955114 3.3539369026551165 7.927054303742667 -1.5660550788844965 -0.7299919804276654 0.6651161056898868
P 4.382238676436686 7.109217515080477 1.1226000363957729 -0.8641865961659245 0.5129137405202973 0.37680339581656397
Ni 0.035823139193549604 2.0568252997337417 6.51724732375343 -0.18526572338246158 0.36189254014300254 -0.18025412910048313
P 0.5364157287867112 2.1834273098005488 9.288488819616973 -0.7506875611038039 -0.31988945623833936 0.17655791119581848
Ni 8.77555572172975 1.269891523979847 12.266350672342066 -1.4127841632410767 1.6921694887177825 0.3367278679519169
P 7.0233901853833105 1.320349382465822 0.2030021006112095 -0.5325741950637022 0.10384531402244052 -1.059317385267924
P 3.1408145873580087 0.5282681844518031 11.975317579838322 -0.5196605723258276 -0.02232745985260671 0.41983697786827046
P 6.584477962043396 7.991680277995423 8.405978010398396 -0.06310721287313002 2.127914138955245 0.25387046903505306
Ni 1.6291300403568318 7.399176957491551 0.8160720109711393 -0.07719711530729285 0.28986899861684917 0.31183676113719194
Ni 3.2381637902527602 5.019157108777599 6.917804737285411 0.7039855290615747 -0.1488524748607501 0.022371682826980828
Ni 2.8492197226887375 2.6455957920324615 6.2378312730871555 1.477355876474875 -2.1336263588486735 -1.4352039256971734
Ni 1.7960539867782983 0.8760836921405971 7.715984119991015 -0.11232789757215492 0.4009740795254965 -1.4972294754703503
Ni 4.999116256359346 0.67397968782033 4.956224766727823 -2.112072801047614 0.003104349956936589 -0.8573104378713817
Ni 5.039428953040231 4.694918476660799 11.017794479076366 -0.311550854465657 0.29205109386983247 -0.7760376098328184
Ni 5.3147342728439515 7.6096382467414205 3.3440162649227614 -1.3443316268956331 -0.1843380693618696 0.2384052835199184
Ni 3.2252559659889055 8.452157899926489 4.717377351706004 -1.4948756305261932 0.5278857884490973 -0.10166707542419909
Ni 4.629704859155944 6.832895831161492 8.322837577835038 -0.46896021775748264 1.1117056690616531 -0.24452913702946918
Ni 3.943511246572273 1.260679569226044 0.7726723392819846 -0.9788979063685915 0.6152948112923855 -0.6369519845508449
Ni 4.97168366492099 4.4703297262087585 8.47546035718736 -0.014166521308369151 0.2203126876842657 1.2963563845679351
Ni 5.035326537884074 7.012801519237014 12.569297400211461 -0.5289911056981341 -0.07509523847294164 0.31082888869796793
Ni 7.099247907077114 3.0355839427330737 11.643147611752953 0.5190913300859189 -0.14763814283767476 0.8270444398979886
Ni 8.650321183381662 3.978095345512578 2.541739086897888 0.5394778641620709 1.0772516011488416 1.2906734752505449
Ni 9.164832417549677 7.062289211976601 7.92816306459568 -0.40462941688989673 -0.7733505499189585 -0.6617333052605829
Ni 4.670858366150366 5.349863512536988 4.524861356862187 0.9774832854092521 0.8047298355611883 -0.5587559956653925
Ni 1.0513085614816386 5.190654693717754 0.9112554343330002 -2.1057270613352443 -0.24224316920876987 0.49880995412906354
Ni 5.337620944784943 1.0504492718205516 12.152011557309608 -0.1809830368467077 0.7818081937680084 0.23922906497279442
Ni 7.209227744022465 3.396864427014362 0.8681449644330069 -1.9722618675638424 0.823154360814963 -0.12664045754008513
Ni 5.052697124581314 3.287402011800418 0.10702683720682019 -1.4323366314517074 -0.4034842475418599 -0.19373159476162766
Ni 7.002942787318952 0.9074634722156876 5.586676351393524 0.42304314351039407 3.8066925510781022 4.873284615630569
Ni 7.555687791568448 7.654543061288544 2.365314907900835 0.8294929014384812 0.016991649461990093 0.5182166407904495
Ni 7.005021713918356 8.880305903318378 11.54503705973913 0.6179895845157293 -0.3992447555392156 0.4938603234332721
Ni 1.1250319185333866 6.775304944521119 10.313627853065316 0.05585747328925218 1.6172729965192085 1.943429259602866
Ni 1.1657234418390514 5.252117003669907 8.8608988925211 1.7242666263626434 0.4938135293557367 -1.2156008624854224
P 0.8969191565035112 0.7086146049663982 2.4833323370631706 1.35350275187194 -1.3449924004080835 0.04689974987533213
Ni 5.384891115818499 0.5159101207775691 2.510770472305791 0.2590155035711023 1.6227160219116505 1.3882072452326608
P 7.01138784914942 8.99567247007463 4.051711522348534 -4.39499052206667 -3.510977120982805 -3.807926680595519
Ni 0.7416288833323088 4.325525558804949 4.855327529103423 -1.5991426054670848 0.16269143762637142 0.4124707673111864
P 1.6986678251884468 0.6537059956229437 5.5900968786250775 0.41150557518443964 -0.4565456461432137 0.1516025268020615
P 7.127780019694709 4.528742943815119 10.015725987077143 -0.4059260242141332 -0.8943412653724339 0.6502546151970221
P 2.70130178522271 8.198796805338697 9.132025107876329 -1.074347540128169 -0.5777484776074953 -1.102024180107831
Ni 4.332242801639467 3.823136776629902 2.4963140787172255 2.0104939144618474 -0.4167783935476049 -1.1131079487258184
