# total energy = -381165.57719563536 ev
CRYSTAL
PRIMVEC
9.24981124194828 0.00000000000000 0.00000000000000
0.00000000000000 9.24981124194828 0.00000000000000
0.00000000000000 0.00000000000000 13.53803373783400
PRIMCOORD
 96 1
Ni 4.217044435391389 6.15074522097411 10.950252119034301 0.7681687486077028 -0.5752362527086029 0.005402916183126179
Ni 9.17461950747762 6.558310403077911 9.519349796963082 0.07929307860437311 0.06140488547004263 1.9158300098283585
Ni 5.664149651781778 3.863868143278291 2.3868231379215916 1.9494034749084297 -0.7822249695904528 0.5042712343539509
Ni 7.20097803703438 4.58009027607933 12.42553226040967 -0.1317402406604957 0.08990582112321291 1.3655568548229966
Ni 2.6418478331861612 2.512803716815363 10.01673712090918 -0.018234006509523434 0.752523328760962 -0.1358887156112305
Ni 4.220605612712209 7.444599565023349 9.07255431550068 0.4414314162095946 0.8537666863841812 -0.6215446488568392
Ni 2.193111741329194 4.4828100114480005 6.661971187490803 0.9263684690113079 -0.45363104359958006 0.346497545744171
Ni 8.27623159245262 2.846971646865383 0.3143788839197299 -0.19260185203255864 0.8839727776539164 0.10249368509055252
Ni 5.28960629574376 0.8702980883032732 10.285359038671427 -0.3751990274439216 0.4053428980171535 0.38913569212967175
Ni 6.245306041105905 9.104071197280497 8.374506211790411 0.10406565756336271 -0.04397254892620814 -0.7543974058552233
Ni 5.826853831192741 6.420876707927934 12.276397554062715 1.0612621676991205 1.2880041559484978 2.281564806535587
Ni 2.5611617298887293 6.573840836121175 12.887679653558731 -1.3016261176073067 1.6180481841223358 0.02364694999497863
Ni 2.17592559207703 6.22153402626303 10.49366848733582 -1.7242005490113983 0.018430953011677933 -0.34421697724011036
Ni 3.0420409157453037 2.8490436045793146 3.0009763788212007 0.7344818978782189 0.09467341771518534 0.6883421660973629
Ni 5.536021266722047 8.209614452025232 4.233532223896224 0.6485366040646507 0.050526290884325885 1.6310996179896553
Ni 8.7973289575064 9.18307383493536 5.385619336237553 0.06744800634032899 0.43785526882256204 0.8342890372755438
Ni 1.337938944337621 2.4362892783794625 13.018213914517542 0.6703256749152843 -0.15328068583543278 0.3018922483299704
Ni 7.265153227298921 6.517777730299125 8.38191068567435 -1.6515177766346911 -0.047981927195917366 0.029576942326168417
Ni 4.308802562722643 5.567220879976919 0.3052030711866045 0.8381922289846919 0.35545835448188456 0.409208808730463
Ni 7.6181630228100055 7.417747363043245 3.6842950831401096 -0.060238890186399476 2.5331670483617534 -1.1011939708970517
Ni 9.200777973616006 5.631849310991381 7.027552401434944 -0.5448262729581779 0.08976261067712926 -0.7171313224149133
Ni 3.7420481294725843 7.429503873107561 2.7186129415062026 -0.22533019550351513 0.09975931687852496 -1.330912782386566
Ni 1.3080435544651805 4.835671809979519 8.769126283087752 0.5630870189405786 -0.04568798895541809 0.8087587542149232
Ni 7.749020102180495 0.5578043159107722 10.185461077464014 0.2087956881836017 -1.443078957569876 2.242764288728621
P 3.6256947540996167 5.869199466971216 7.734468299164615 -0.5748022504949779 -0.11108785451746674 -0.27459356051501743
Ni 7.266207705778332 8.358924904785422 12.391552153901193 -1.535310341502472 0.6132335578879826 -0.03195392719877723
P 5.251460074260486 1.7071636589224655 3.3041602162178445 0.6313981446121513 2.0137736136543833 0.5638323817470354
Ni 4.190145984355171 0.9601026555042487 0.45798220315538657 0.09790195195481205 -0.036496295153821016 0.4683596080590063
P 5.741043332477818 7.876316004230164 0.473321165106336 -0.1918004391771858 -0.26210905489476144 -1.6445801689745934
P 8.144662277617966 4.47212647948554 8.398183878558813 -0.9057996437210206 -1.1500858115017485 0.35873779656410476
P 5.097321220041937 5.797078688866198 4.259187500304083 -0.07336000094938978 0.9766006256939825 0.5600016951470356
Ni 6.370631733365094 5.63127582269556 10.254437844734364 0.07941649155611484 -2.481611030661332 -0.7723195375512829
Ni 1.935939239898665 9.205994867145728 5.9569376263449945 0.32450664329537665 -0.4941230901763555 0.4297907466468727
Ni 7.523241460040517 2.890723253949741 4.139754862775009 -0.14143792756423385 -0.15150945286762293 0.02877501525016335
Ni 1.3127517083776408 8.700326187211758 3.678689697539027 0.13875112476069007 -3.777344694043604 -0.4914918232010954
Ni 3.999044884489878 2.5896881477001794 7.29847567222945 -1.946228419614558 1.2472606554825487 1.29366701066123
Ni 0.4983946283882745 2.716595557678486 8.630090520633967 1.2024365571893225 -0.6317483288627184 0.6334439713975866
Ni 0.8746353247856952 1.2107262905889584 10.761356174164549 0.3816468399517943 -0.06714564460856177 -0.41325366822379794
Ni 4.073302368987388 1.6815509316462316 5.142503772922478 -0.6615980652342993 -0.4826585411801817 0.8468303642756642
Ni 1.8561596181010778 6.103524934681162 2.1553086878422887 1.2293475226475536 -1.2704496920045023 0.03160142895536493
Ni 1.6976271035516466 6.792552622486849 6.115820708739774 0.8548213529009407 0.35859021524264695 0.09699949474520068
Ni 3.724251492679708 4.3356825141364155 9.295484940765125 0.5321952144577287 1.2009293765161768 0.08718379420635952
Ni 8.89483121760708 0.6002664993106565 13.427428337962388 0.7926559351157898 0.694412797771475 -0.6435111258256014
Ni 6.224697461701265 1.2139729743281993 12.646932966897843 0.2949685246269436 0.7537875401853663 -0.40809912060605197
Ni 1.8248120078666406 7.744626441849613 8.7203622033017 -0.07056906846781395 -0.1546279438919466 -1.7507173643550045
Ni 8.95973714295823 5.814375835853037 2.7886589869539224 0.11144035276087905 -1.1239754875679417 -1.4501777733981864
Ni 0.3462213590545929 3.4269995592203157 2.7161487917964195 0.004720802514437032 0.5036662537801003 -0.984031628050731
Ni 8.553799927629662 3.054343164671772 6.445187061783983 -0.4657165140092044 0.3899949548061735 0.06639899625052435
Ni 5.383649126447073 9.200370981922198 2.100439732649117 0.0984979336675981 -1.6258954480808967 0.36262067655827873
Ni 0.8870874206539747 1.5036308127735836 3.864567429006743 -0.9358882355762849 0.7659406306081324 1.2045327775967192
Ni 8.629666879279958 8.576156721355432 8.182888047477759 0.15636241008455007 0.022809284585031685 0.43884205821586353
Ni 5.175602372421412 3.696418810709976 4.964600303710032 0.01492293985841946 0.5682292252631505 -0.8597097913414935
Ni 5.962326566363461 2.1752133566128657 6.652738950909218 2.507545234028591 -0.9190369683469011 -0.14008655574266196
Ni 7.458058040352681 0.4453340112891813 3.56872054187211 -0.1285073355454948 1.363747826638716 0.42048515297523065
Ni 5.325495563288646 6.833594034882895 6.703141172262847 -0.6314678215078221 -0.30513672340919706 -0.49460748601194177
Ni 3.160577246566878 4.369564572645929 12.124175260729551 0.6156727634570945 -1.2974694151264556 0.350420534947661
P 6.640920467109709 0.2151385842902653 6.239787603730318 0.4564559146428849 -1.3970860357795294 -0.8073860422371127
Ni 3.3475159313818614 0.8183594733055188 8.734198070928926 -0.20879877350739523 -0.75633421786662 -0.6034962759955607
P 9.075674276826167 1.1259702703534467 1.9663590940674445 -1.6122889130410554 0.6668811680101095 0.6366905033593422
Ni 7.672450164877257 7.320513347468029 6.3748977463011 -1.1480816365875262 0.78700619302918 -1.4672691816628343
P 2.30790189860549 3.545008650802184 1.1172967223697252 1.0555445484890529 -0.009086278571984352 0.02716524756088225
P 9.19372961746415 6.936340937946964 4.902893888060886 1.1258840174445643 -0.1366194231296679 0.15803157025685688
P 2.4429491424599568 8.174566917301629 1.1617355904279452 0.23764963630081656 0.10208076592285001 -0.5347943426434725
Ni 3.873774691098026 5.096118744582958 2.4683629987948983 -0.23979136523416766 -0.6437690074726784 -1.2289600574011479
Ni 3.5732668240881704 1.7336458684536529 11.949778394951709 1.0561091627432715 1.138310159023059 -0.8427772772522131
Ni 8.024516479643607 3.7557655995161574 10.52839320364774 -0.34871435088983166 0.6089027917231127 -2.099118297769475
Ni 3.4868735872662033 0.4012151866992739 3.3981003740165825 -1.001094754180605 -0.014650917143955413 -0.9725783919084668
Ni 1.0222706367334178 3.941307562836482 11.355378125918621 -0.6200690927525773 -0.05662186225910248 -1.4476686338230873
Ni 5.8586731817995465 6.494810449032643 2.202083133234293 1.194091784769053 -0.42708980277594194 -0.209318136345975
Ni 7.6829949496713725 2.0099007304370424 8.676688294631616 -1.0100506778223122 0.31714043273829257 -2.122838781314867
Ni 2.5758596799219307 8.839332350269629 10.589950697336198 -1.0182211294482464 0.16881323425339312 -0.8011439179821428
Ni 1.5604061540597969 2.0564550303219415 6.594606662316605 0.3619437050959121 0.5372787996282231 0.5436199113549025
Ni 5.872020659394204 3.2804455502045515 9.029394696334588 -0.4632377134514087 0.3782588973161679 -0.6976842694338952
Ni 7.28868474705 5.338158554852808 4.126771827742535 -1.6775795067187496 -2.7682381253021164 1.8397906622745928
Ni 6.324780419133136 7.8804506698468035 10.346645512891053 -0.31028638593093655 -0.010703759570749307 0.03985029922771846
Ni 7.604408553521542 8.716596605152853 1.391844994182488 -0.43452517600806456 -0.8233435940076336 0.31302461079770605
Ni 2.2087994211632473 0.2885284364950671 12.895166450762554 -1.518652678341133 -2.3272643654552305 0.3507254677825895
Ni 0.10395030350416966 8.43705806018533 11.752962761712903 1.9079704045746235 -2.179628279500085 -1.1881203976769668
Ni 5.060941712502236 3.347210687611506 0.15046297923856577 -0.15323929107453607 -0.7856579065314018 -0.5198096963091822
Ni 5.491464926061297 3.2217184987503042 11.27988949154734 -0.4807484686416623 0.4692142427498177 0.2300070321538942
Ni 4.378971630659628 9.024948312079736 6.941856600379185 -0.16109966765921932 0.4815416539669191 -1.371879711717231
Ni 0.6712819249745376 4.758075143630538 4.795401831839464 -3.1101434236899146 2.1700159532213013 -0.25258131790998434
Ni 3.4044577692700875 7.793187950769884 4.862157719435197 -0.2774058331528319 -0.9364189112687744 1.9545562227539628
Ni 0.4227487472262053 7.581154528107149 1.5570096233787447 -0.7474644261808159 2.4797408102218133 -0.9819631755574765
Ni 2.9354368414012817 5.122147713364224 4.411137849187293 0.11073201383994477 0.27049779317908895 1.388195675268435
Ni 1.9406196443774566 1.1419354445241867 1.6296678155158146 0.05679772571533444 -0.11873225843660197 -0.26268421067194114
Ni 7.932129365149194 6.6228000869240296 0.2258914898368966 0.6382305941529525 -0.40056630256411657 -0.32493396064078234
Ni 0.7613584366254667 4.689450794167779 0.33577832218392906 -1.1093366546088443 1.477043744551095 -0.3327603986637366
P 1.784473581123536 3.1444178263604567 4.821164406057509 2.151392167472527 -0.8617309355365803 -0.2567953559913319
Ni 6.351290378097993 4.487814159319594 6.799464081432607 0.8234135280136207 0.9017437284840921 0.6099955105666591
P 1.1495017901045261 0.49209458196435135 8.18131835451323 0.48666920500147154 0.9539769747571957 0.003650452268393713
Ni 4.151324526652623 8.495507617302891 11.927102482738748 2.723352834753652 -0.532733860570018 1.812707947125188
P 7.377066693284893 4.859425325199949 1.1885461682575458 0.040482019274446404 -1.7607431240221223 0.5603598498174026
P 0.5544531093047123 5.942994460907582 11.888546494618298 -0.7241892577029592 1.174836536083867 0.5085492929040145
P 8.438982020919696 2.0717449682734097 11.64719024539782 -0.7847832172359323 -0.34280929825930634 1.9985105168477262
Ni 6.738783469848081 1.7450971347476139 1.6715278362050876 0.09101525213730778 0.9885714249026136 -0.4073051639498469
