# total energy = -340870.6419541865 ev
CRYSTAL
PRIMVEC
9.26839989271066 0.00000000000000 0.00000000000000
0.00000000000000 9.26839989271066 0.00000000000000
0.00000000000000 0.00000000000000 13.56524010719830
PRIMCOORD
 96 1
Ni 9.154889540429217 1.911310835045029 4.530124955900037 0.5458148621236922 1.794197032805194 -0.26808147042811253
Ni 3.7546379587988254 8.31005637729106 10.126641387590379 0.8810404344984698 0.9683491843184678 1.1351726418353418
Ni 2.1200351947285387 7.631238788338118 8.61114590033434 1.218579228387456 -2.635339345557145 -0.03681254084265918
Ni 6.763521946511747 1.9830853217852198 9.131562832238656 -0.3573609708212362 0.033314297881413595 0.2547909239667934
Ni 4.143771717294037 8.068095536531837 1.1411865339701444 0.9819968570088894 -0.6205241780121249 1.3022213279891446
Ni 1.733079510146543 5.318541370486083 1.898848544901581 0.3772595095173761 0.031541265141390835 0.9846594914427169
Ni 9.347551763552714 1.6644748160800538 8.741725602211474 0.13996031457744282 0.27047953834664384 -0.26105515970895043
Ni 7.147595158808592 3.1280107281663914 6.868556085326728 1.1645086717952977 -0.4174808189312681 0.029107973109549868
Ni 4.8717488978882475 4.063711281283995 12.052579610932588 -0.5425426191303236 -0.947181291991601 -0.12407835323986373
Ni 2.7111644547753677 4.452613329788439 11.37943150203375 -1.2715341833179328 -0.30282915832194296 -1.7319279995626429
Ni 1.7155529664448774 3.7028276048631765 7.936411041418722 -1.0674302441830454 0.5972322973637197 1.3529023992837796
Ni 0.08437209551824723 8.404028681146793 8.011318247234092 -0.19824465214063278 1.7311420133262378 -0.46172153391719833
Ni 7.0189775771332785 4.338556403932965 12.95586208266187 0.9493729003262812 0.4671648164199567 -1.417599582351849
Ni 2.345665115338457 5.899503196138027 6.981689878578983 -0.587411454618556 -0.10522291109625748 0.3114834915628313
Ni 7.942749699926162 6.417375025503752 0.45848085137212047 1.0516768380035306 0.28059785772756834 -0.8686680289760459
Ni 0.42268721883829513 1.002683277248719 11.889972954131549 -0.10370364623825366 -0.2527093588474164 0.535119072972743
Ni 4.450685502665252 3.423422429595899 9.575498784070309 0.9018105771662855 0.4286471199607328 -0.7624344172270868
Ni 8.670244923739576 5.601830005198627 2.6088264934129586 1.0701340162674537 -0.34093265006188384 -0.6334038621882704
Ni 8.21742799138178 2.153698022187265 0.17706072602512737 -0.6247130192824919 0.8942523052030534 0.5093386215745292
Ni 8.378067893781186 4.41091479984989 4.65853399858366 0.20647886712496696 -1.0340899781597028 1.7305771419617038
Ni 1.3450857648059087 8.733798340007331 5.8284275467299915 -0.3539149212541647 0.08749309791666222 -0.09039818737859914
Ni 2.5148134085988505 8.87521558157265 12.958507283916475 -0.3988719455808292 0.5820311641432493 -0.7300349178504589
Ni 2.6681776172881504 2.2498205947573218 3.532496663809905 -0.5686465153062271 0.8334948235090227 0.7476721713162477
Ni 7.582125538695004 7.3020159650557925 8.837835199022047 -1.4068796248311837 -0.1157595489615232 0.5598983367999518
P 6.409061271035008 4.55876431075892 3.675732365382769 0.0835071166857207 0.6977788860302304 -1.0045696001030828
P 9.115350547604624 7.532836189458907 10.704696643118133 -1.5071539336729138 -1.0069820661993174 -1.3695160965810609
P 1.034140225595337 4.106512750778597 3.752782425192758 1.3489801814112383 -0.314160267064046 0.7384154286046701
P 2.0552398129102696 0.357077144692487 8.126975825705788 0.49968181521105554 1.8976363696384673 -1.2171160135783685
P 8.51012405171949 1.290504159380678 2.4890861849039356 0.13700174616975114 -0.9071808403392634 -1.3448957269292194
P 0.6504312614039778 7.557258422485818 -0.11423117176853122 0.3495224486134239 0.0187777948281354 -0.07263392141664266
P 3.272532883607997 5.238814596862746 8.977868668522502 -0.3502444143811129 0.42442948233495936 -0.643748181537072
P 4.933439365830229 2.7117205587532096 7.333232861851975 -0.3212385140670661 2.2023516892395296 -0.029093317821530542
Ni 8.192579411971856 9.048108308283847 0.1141208778129258 1.1253428002291135 0.0929428081773238 0.07272288158602315
Ni 5.235107237010463 2.413778584224519 13.83383162815973 2.795806264728372 1.5096273349140712 0.3680043094676953
Ni 0.34344796303553315 5.9507574460958335 8.98398673911873 0.4926508765062031 -0.13925377542872147 0.12879864153366852
Ni 7.1803496831035085 8.403509650767473 6.795018748976776 -1.009876871248609 -0.2550140957211931 0.13204800170890163
Ni 7.912710816723043 8.105817923028813 2.7523597106139683 1.1151537755112537 1.9664964258349744 -2.1511445702380954
Ni 6.636813655160358 8.019167654881338 12.069916152441825 -0.2743014831958953 1.6186320816502637 -0.09494544042964939
Ni 1.1948728119910488 1.9145640433154067 6.274506352556263 0.9118540774452167 -0.7448784106211946 1.9198550718273515
Ni 4.7112572898829335 5.867629169808027 10.531617621574357 -1.3811925044777245 0.5677833959749835 0.1875853726545737
Ni 0.3814743530403957 3.26233764401422 1.892920476497781 -0.03446615209766968 -0.7811970425465707 -0.3286636028865436
Ni 6.219457619789646 6.307785468270278 2.2362294135388536 -1.3736972245419439 -0.2523234362629073 -0.5663577192720504
Ni 2.860747156415339 5.598817775318647 13.476577457034296 0.9393895638613241 0.5825343290319128 -0.7519129488704729
Ni 4.599350632741784 5.101512524733461 6.96268502513622 -0.912430518773977 -1.0135635760715769 0.15482360484252045
Ni 3.3910293728865795 0.9831454908271898 5.616063486511503 0.3153676571085859 2.3612654049910238 -0.934204420115959
Ni 3.1190667225227595 2.8801644536416693 0.7230065378722619 -1.2174546278647098 0.043628535323228086 0.8793121389534534
Ni 4.873083547435068 0.41648480580542635 13.24352632884007 -0.1275223459244062 -1.526330763711681 -1.3926825073951952
Ni 4.7982782940156365 7.164593403731307 8.341645863752397 0.7510989376096097 -0.1745362527800994 0.5308086185228471
Ni 2.354646194580612 6.842127243779768 4.823052726228514 -0.07073104796697496 -1.09036551282298 -0.08683978060337948
Ni 1.7776234387717185 7.057960465980029 11.353942476209344 0.3014610743298228 -0.5727741643213555 0.4634220615480728
Ni 6.1426689288492415 0.7778142922484815 2.072348351788591 0.6357181121437439 -0.5923068350376444 -0.7623451999473904
Ni 7.480367779149478 9.527914820366261 4.759310234608295 0.09190999603743526 -0.41941197451570994 -1.3276366827384554
Ni 7.9006804340023855 0.05175474353786499 10.547733514852231 0.06234282390327973 1.1175765260201334 -0.5028576418358759
Ni 5.490025300453415 3.555172730346391 5.317546871205709 -1.1240994147403156 -1.126071965085654 -0.5308494990631115
Ni 4.656342022070997 5.687442212587463 4.502845275266978 -0.22072817795512956 0.88518788100794 -0.24091056644027542
Ni 6.957509550782433 6.183904038806255 10.776199565749145 1.6990690440510932 -1.1170990721630825 0.45186135329366695
P 4.829003038791428 4.576587443248768 0.5989851555738154 -0.09635851872709213 -0.768066932922516 1.1067449826222682
P -0.04268005345944027 4.473439423758636 0.07738835639650989 -1.0749820883883745 0.24858350960450093 1.080195514268514
P 0.3377006284245321 7.326373319285289 4.166563638825907 -0.09415585464881848 0.8981133308203565 -0.24432910520352114
P 0.7434368711782282 3.5478784998370254 10.079962946530252 1.9412299379587021 0.0270685740820179 -1.3063728882636727
P 6.030873492503661 8.945785176360848 9.502138474153304 -0.910698880794851 -0.5110838864004101 -0.7895135328320662
P 8.782457438068539 4.890953021923071 6.918923349439876 2.477828166580133 -1.5849285187502318 1.0844573748686615
P 2.978854372909432 0.9102004052136407 1.9183418430048829 -0.41715634571231386 -1.2377840834506812 -0.9858080032248635
P 8.322837500381805 1.1441097872136692 6.561859180506872 -0.09337603906000048 -0.10797167748598824 0.9405537593727543
Ni 0.1494408951256221 5.084588427007791 11.536964636876943 0.5826939945382287 2.291886500176569 0.041132508374251746
Ni 7.526626361706334 6.608980651069347 4.293371102053344 -1.5341420322259838 -0.34418689533312335 2.339597947319919
Ni 5.553662132317845 6.334978952786771 13.13990191360892 -0.9815386864255482 -0.31243608528408773 0.268638371372847
Ni 1.8795572979102284 7.901282879978381 1.6552444168878333 -0.7469178096487266 -0.12119074727942354 0.5097224872765093
Ni 5.013740780230671 1.1808219181508974 10.927736972871232 0.39460391433309455 0.6307042038689202 -0.12902104195711972
Ni 1.1371214138921166 1.1450088219778478 0.556645252380822 0.24697425613585208 -1.1252692666787008 2.4043208414196013
Ni 5.870317005700932 1.0879062118530651 6.323476868845065 -0.21090939209249485 -0.15501900868277818 -0.9686404903066415
Ni -0.41433175657121324 6.904577720491469 6.300673825233637 2.0762496207014176 0.04959478020899201 -0.5157458106524536
Ni 2.724724123435091 3.6688033098188533 5.862177497145246 0.8639796223614411 0.23246552099671577 -1.6652510670603835
Ni 1.214558892806669 9.222919593718602 10.112221611444927 0.330139930321754 -0.7067641202479763 0.1565164191639111
Ni 7.118464578769283 2.46259524507945 3.670170398764382 -1.8569419772428986 0.1573355726310968 -0.2578302250137495
Ni 6.927859940363803 3.8630411608795683 1.5615492381810583 -0.5106213449416949 0.10490409430425802 1.6569500033938562
Ni 4.521366318249019 0.9864357726960906 8.363404358725443 -0.6795713618832684 -1.7176182678081902 0.9133823411642851
Ni 5.66589318344607 8.148396950932279 3.8522564510692785 -0.17880736935162753 -0.3665853176329816 0.4731629429849206
Ni 3.3226934624093807 8.646082205902324 3.809404005376707 0.18547783939326767 1.2696552211276648 -0.942978566764163
Ni 6.239644194185324 5.153239463072433 8.587583774793156 -0.45127771287605506 -0.4299509263738208 2.3057527166357
Ni 1.2990403554405587 2.993025755944782 12.796497512051651 0.37553481351678547 0.9712223921012048 -0.9462096721069512
Ni 2.6928130235065684 1.9227758453882127 9.732693622326979 -1.421341051672152 0.2212686238396318 -0.6518453567229097
Ni 4.101804403766198 4.073063096511377 2.730655899198743 0.6977248928638435 0.8188958426489252 -0.41932378567727785
Ni 8.486193043873007 3.0589426141183664 11.386540364550502 -2.442950895086973 -2.2651141171787312 -0.2177431271848766
Ni 3.6301262781599144 8.41763469180467 6.752315524518259 -0.3325367126887047 -1.1346838751243813 0.0015668302664876242
Ni 8.211737194008526 3.9443435624401255 8.843695608108542 0.8039790734380928 -0.33179289254414474 1.0037543032906389
Ni 6.927934087560849 5.602580745568714 6.546476417639789 -1.5782953297044302 0.9901320845215141 -1.6744479030683035
Ni 1.126750074705356 0.33397009757317275 3.443535783634495 -0.6258039383538254 -1.1583855896166955 -0.7458256050258123
P 6.4230102124792205 8.101545190799056 0.7612164421898124 -1.1295660942818417 -0.3247424134552665 0.8640261593286603
P 6.469203916238662 4.009185286256548 10.57573242329663 0.605992302944537 -0.18201944853102203 -0.4158407122246839
P 6.88243551377371 1.2379337966753108 12.304974815996061 0.03256379286863424 -0.28052149596367815 -0.05868157300160861
P 3.8381369710718602 7.370092360343333 12.13081046485553 0.7588850093129317 -0.5633312737409008 0.25307959770264155
P 5.21669092694425 1.0296265149751826 4.020167412978973 -0.28747761556653717 0.25817860949210375 1.3885779983085182
P 5.255071369815006 7.06859132035645 6.14133705982231 0.24934969834656412 0.993640611895405 -0.3338410333224251
P 3.506522900684813 6.614588032845925 2.8204982041790334 -0.2651936073573562 -0.40819733674681313 -0.14045036683998394
P 3.0164099282130543 1.6303949106379463 11.78374411860417 -0.4406868247340862 -0.20707099218301112 1.8761033806626977
