# total energy = -381172.96915037505 ev
CRYSTAL
PRIMVEC
9.16869875825088 0.00000000000000 0.00000000000000

0.00000000000000 9.16869875825088 0.00000000000000

0.00000000000000 0.00000000000000 13.41931741896864

PRIMCOORD
 96 1
Ni 5.380293393922231 4.824129284895767 11.988147214180492 0.8934231244335388 -1.7382050908206064 1.0002280353049355
Ni 0.4105000720902416 1.2377010073641255 9.632399471234303 0.17724928083588828 -0.46597490987691365 -1.2302098706478493
Ni 8.41970792396994 2.093855777021937 7.951280928844067 -0.27992268603741466 1.7274900183959476 -1.3349057055960427
Ni 0.3052159021574882 5.204859508396384 5.2509789809365515 -0.2283620403513035 0.36618191154697577 -0.2995507446809873
Ni 4.6454680173428935 3.487571365556117 3.7039196532336596 0.5913498704410137 -0.15813055772856638 -0.818463640207513
Ni -0.0006390583161467313 5.8454031537714615 10.080792859175373 -0.04792022072004651 -1.06751894724211 -0.11972701824970348
Ni 5.831530912274618 2.1856436221144038 7.937030020080985 0.563399665084991 2.1067747858734682 -0.3945756321983205
Ni 7.912953933533356 7.888556025652919 9.880549391186664 1.140142070025475 -0.2170697552669358 1.1182478410555452
Ni -0.09921449123420056 0.6493336770492513 0.35079075398059506 -0.47581117924104505 -2.404677967648704 -1.465448840624644
Ni 6.982129279704828 1.1874106936759645 5.809504029940172 0.08286819755014115 0.14694831585950177 0.722109492355795
Ni 7.793852534297401 8.065759470074266 1.667108770409285 -0.10554789853584404 -0.16915519097384418 -1.184491799785444
Ni 8.397107081081824 8.839111719601215 7.729674392324198 -0.37700188498061526 1.0090834288130364 0.5359420830946705
Ni 2.884133444792887 7.954781538099517 6.462958120293244 -0.6865758182255596 0.014683570154103742 0.3764629817580097
Ni 2.087804435721265 6.080818667765485 8.73707601970305 -0.14358659847612046 0.5249336477993088 -2.7531822594102584
Ni 0.3135722543717798 8.673974282985451 3.4806489978561053 0.13769234447887255 -0.19551311214208264 -0.6315048453933447
Ni 2.164298890981124 4.386553127964594 10.349568684264089 -0.9602193561224817 0.4110967697817952 -0.5965183020158307
Ni 6.684880060056664 5.994568716833028 0.5332634496829969 1.1793105126948207 0.7322980028530227 -0.5169747979635484
Ni 4.45252191684086 1.4152711997430887 5.223737859514693 1.0458574031082761 1.8006042218831184 -0.6935584201909797
Ni 9.116474031247625 2.931489774820116 5.970442202441228 1.0800250501289206 -0.0362857218049117 -1.4984967722185483
Ni 4.533023093537679 4.1797531233635965 5.843146736962227 0.36865094191275866 -0.2515204807456378 1.4858389742452216
Ni 6.165042336232113 2.1494731047944775 11.642707312901521 0.8633134495323518 0.1788287095078662 1.2891611523710766
Ni 1.2884130812035455 5.666246776475807 2.610728343609159 0.9426142414462088 -0.45253343966002707 -0.21496299333657817
Ni 8.041260706505485 5.519428400342987 2.367033494471943 0.6784053665996251 1.1024427557024885 0.45369275007545085
Ni 1.4143726672469286 9.044408057575986 11.205304444380323 -0.28818518315652303 0.29414011518837724 0.8287647650232051
P 3.607626309481874 5.506848945396741 2.740439761258959 0.050032639077359 -0.5394007310672323 0.6152277054998759
Ni 2.138644871345851 7.441453590522658 12.947735910324882 0.8246265744851153 -0.6727432832178414 1.0219605418860205
P 0.545144249769983 3.989860199608719 1.1322453827611862 -0.12372405522423853 0.3600464880731993 0.30412910808028915
Ni 6.158367523403492 9.055520520691765 12.388244480452942 -0.17409299459509373 -0.5299979496960936 0.5763264004489881
P 6.546799454014056 3.2422536567064477 13.45608617124699 -0.670275281293323 0.8705865861549974 0.8652255789534002
P 1.1514143816359061 3.442580559855514 8.75803749922062 -0.03508990172459763 -1.5441027429831213 -0.5897290470081391
P 7.768711961802791 7.268660290291649 3.6499600262295453 -0.28559222561836617 -1.5986322414895693 -0.25978786296075257
Ni 5.0298748891186165 0.5007759987274343 10.410303979785166 -1.1858951078908737 3.0904567438942645 -0.11808922553596438
Ni 6.948636022475502 5.500990146773818 10.044023625814638 -1.7290522206767447 -0.7849387689771901 -2.4956513108044827
Ni 1.7433914287236207 2.439369027892431 0.04504673476413924 0.4415630566914524 1.5495689083040152 -0.41966162863267076
Ni 4.506479710105186 6.384412627080415 5.155729035124185 -1.8729473515322197 -0.22813886859690385 0.5496499195990664
Ni 5.599526154286427 7.79247722945634 9.526547758837138 -0.030992334616456306 -1.3908261709127465 -0.6934602040502186
Ni 7.105402436958669 6.814406269987868 7.87112724583709 -0.3144258620206069 -0.6629136987219293 -0.21151642954887445
Ni 4.4893892552802575 2.1724223582423297 0.5729455786971008 1.136494960191191 0.5368735937700044 -2.726787314356497
Ni 7.121484334900153 0.9803356281067547 9.429660283394014 -0.2991830769289235 -0.059879192854135586 0.6943534052884492
Ni 1.8484372124839235 6.880026648304397 10.765138129998483 0.2809372433448581 -0.8640343868587764 0.6139529525525104
Ni 2.5558665166293086 0.40680050206778523 0.4973093136580644 2.1129536609906707 0.5436957588981604 -0.878263643084281
Ni 4.067234849966858 5.627866602711242 10.021694176415158 1.659875404570767 1.161328217184787 -0.2934549161958946
Ni 2.422645321025119 5.559834856573382 6.376242399454614 0.36889416827181626 -0.34633813734817126 -0.13782269940914973
Ni 2.9791761780092 2.7381677576615244 2.014534611878749 -1.604493842476669 1.534650082210654 1.7510068705709652
Ni 2.9200839133382432 4.618026101414241 0.7036233772152201 0.22383227080175 1.2570197917518418 -0.46347914003825336
Ni 7.894717391340876 5.002836395943341 12.072165503790854 0.06230425735586043 0.05759836723975886 0.9534298440044741
Ni 5.891530878140675 5.9721420792247795 3.4785016885642612 0.47542911331127796 0.409380815531953 -0.5278472219016781
Ni 7.691832421187435 3.3287970060049985 2.0547118506356354 -0.32553688433210387 -2.1214313594443786 -2.853596179153647
Ni 4.1832555663588336 0.9966100687259863 2.4916452817710852 1.6725743401946742 -1.5106714599078692 0.9546935412082461
Ni 5.900369503919234 8.064659226201417 5.798232031462829 -1.126727339281466 0.8312795610252587 1.5106737739007143
Ni 1.0202102997986073 4.645202125073622 12.458454709459042 0.6270563227036879 0.4162574880471283 0.009953254557969957
Ni 2.4727247546376505 3.0253864206688776 6.692321376116703 -1.248051012594328 0.4051222973659152 -0.7369169896822729
Ni 4.364484069615021 6.859342063494827 7.716147810777408 0.8458222347261241 -1.4432987868901659 0.4332817905192667
Ni 2.4745493257267923 4.058707959952274 4.287673294241719 0.6777746749941618 3.614643229114904 0.6801861126491319
Ni 3.0468136700926207 2.213406442505972 9.534116519812446 -0.6367007877719874 -1.279448553069003 0.6310520741266422
Ni 8.60303605928348 2.6457289349442887 12.789254032269962 -1.157140918576317 1.1527268486690212 0.268128521615964
P 6.176631571692793 1.9882048591315673 3.855584603626382 0.3319489585060348 0.05352445428070137 -0.07680322230298385
Ni 0.5495846506668246 7.131826627304938 6.924140009516402 0.965666495279982 -0.9525978350214819 0.3932188610601099
P 8.314102849574272 7.6070127872896816 12.431307108766376 -0.8497426528264527 0.5707419643826751 -0.3583097078877507
Ni 3.8937905721110795 3.871235572717666 8.257174397853252 -1.003888514875658 1.546399252326782 -1.276019472782796
P 1.4067809845242671 8.357122385002684 1.6339895960967281 -1.96629150891302 -1.2963684687527932 0.4202229004527795
P 5.468422928137474 8.504940149320012 1.208953468706357 -0.18088327804404977 0.11289636848111526 0.5524578213615066
P 5.8043548886152365 4.6973353472488055 8.156381973531406 1.2978633081307647 0.6316745382019895 -0.17779358337513249
Ni 3.945877950791562 8.591098413263065 4.243765311885978 0.56446564445566 -1.3417816067802697 0.5619307938489484
Ni 8.261648722936172 1.4090548218614893 3.649034904506458 -0.32753925947411333 1.1037943846343765 0.23316846060101132
Ni 3.867228851280706 1.2540763036717018 7.395573421024835 0.6202930358379253 -0.840487709887088 0.4555328886079832
Ni 8.115362131341897 7.992923325691632 5.533429003624995 0.22343863490775712 -0.05682549362947632 -0.11684969670190844
Ni 8.22024287852127 0.6452774446380128 11.394288750070205 0.11080734716257047 -0.419050220300917 1.812526684352317
Ni 3.3720365902079825 7.715450989657937 2.2656368528899242 0.3974097592130059 -0.9757110240001778 -1.3422603461889013
Ni 4.675596362061088 6.946105461567948 -0.12150084774866052 -1.4114145365870594 0.2757937514707057 1.5672722391210492
Ni 6.991444677828287 3.7049520487343495 6.393928819710668 -0.7865305389443422 -0.3099979081562403 1.42332028688571
Ni 7.390053864262708 4.058808815640619 4.117234515898607 -0.9324568412972328 -0.502378131096296 1.3804692531584548
Ni 5.296326449025936 4.586953380705183 1.6330507213252299 -0.21202190843038324 -1.2584166720993681 -0.7469787447936491
Ni 3.0390019385953897 8.867112926165234 9.100001546731281 1.1818703030021969 -0.5967594714923594 0.17904133973930456
Ni 5.1975612240398155 3.331529278289241 10.048264149074578 0.849437205770892 0.5043496530003702 -0.7200847486162825
Ni 0.31254169261087744 6.518614873471229 0.5244083202463468 -1.1693248622370185 0.07437147293303965 0.19096765886324532
Ni 2.020698728176388 1.9918448326109108 4.147991833364114 -0.5985013938841305 -1.1492247490530336 -0.8278255410383872
Ni 0.9276889587909077 1.5887796584914495 1.958173702622141 -0.11588450457516172 -0.04487269214297433 2.7185060481843117
Ni 1.2542046654568675 2.4083788254738376 11.284679704847258 -0.16783312972831096 -0.12527545887175842 -0.230852410873325
Ni 3.8485705489369666 7.987651323800895 11.27291167975724 0.1470215922995984 -0.4042080130817619 0.5573269765283498
Ni 1.6724348676237706 0.9542873544170436 7.575647585084425 -1.3024876942766537 -0.2163650158904274 0.29006928755311334
Ni 6.333938939413446 8.90287085203284 3.4637272470916805 -0.891532078058413 0.408461131931161 -0.2893604344115468
Ni 0.35964588341724524 0.5263447494625618 5.716052065990021 0.31289039921268696 1.123768256653142 -0.5934548325991587
Ni 1.8672055392149471 7.224247112624293 4.274562971626823 0.7381302932640836 -0.4562260580202659 1.127019416600588
Ni 6.2850422679642275 6.860662356142247 11.705939245144073 1.111933211691427 1.3501153234569458 -0.6270612077996942
Ni 8.02779188776202 3.310505451618876 10.375561028890262 0.39235908416297594 -0.4792006645385682 -0.5116438726689382
Ni 0.407596345135813 3.480190562909085 3.4556890487306213 -0.24786642893281827 0.6899712170603537 -0.668645458999384
Ni 3.4554717505657337 3.3239009207708183 11.871197708585854 0.8958880410342636 -1.0514955752306603 0.9914446326853507
P 1.061350251944237 8.289237338047874 8.961111344572235 -1.445682199520678 -1.0886531581175638 -0.266412824476438
Ni 7.111307079076296 5.896711193042009 5.7366376288510335 -0.4312873857970573 -0.010268214695227477 -0.7456510271211609
P 3.1444511451090706 1.0404364496611567 11.660541349210517 0.8679982566025309 0.5297002159500167 0.1987413892713932
Ni 9.037944124822994 4.803545555774542 7.810687182421892 -0.38234720845292863 0.2375876727146295 -0.661877544147931
P 2.4978469897343802 0.49034843742250345 5.3334275892883145 -0.3727953030984354 -1.0669167948817366 1.8618622973626515
P 5.8183829979940676 0.09999933186349985 7.861854940598651 -0.041638758586708936 -1.6957083551089762 -0.7806072314813717
P 3.386972400781914 5.574119689522545 12.085759933709802 -1.6283583077990922 0.8472391696783087 0.3974287853763994
Ni 6.669733369407103 1.0862982817610987 0.9744447390375398 0.6654688610436151 0.8050406819333877 0.6209196136783307
