# total energy = -381173.59683958447 ev
CRYSTAL
PRIMVEC
9.18535911224624 0.00000000000000 0.00000000000000

0.00000000000000 9.18535911224624 0.00000000000000

0.00000000000000 0.00000000000000 13.44370153109969

PRIMCOORD
 96 1
Ni 0.7026671060217679 8.303160404125215 2.1546216078041156 -1.9929039692942256 0.11276138556514773 0.08773195340034567
Ni 4.036414170588817 1.886672744035461 6.8006579530843405 1.3028378785272208 -0.6195960097709007 1.2225307568360364
Ni 3.808213110935375 2.685982686518255 11.941192694233703 0.588023120060626 0.948149055221509 -0.006739118496046459
Ni 8.390669319570327 6.828542866016876 0.6122115274009673 -0.08657135743334123 1.430730463306852 -1.7434663392195457
Ni 2.1945384225254148 0.8702907228956877 8.227290257102535 0.4497427642887674 0.213570998085058 -1.2956755564508267
Ni 2.951816162103115 3.984856750373281 2.530387297289488 0.5246855363442449 0.28495022115899316 -0.23608023493116762
Ni 7.618336776548254 2.7953343857282946 1.5967754648730734 -0.04943768580583744 -0.49485585457732195 0.16057799082779442
Ni 0.6116760209697246 6.843689523051513 6.149216675817252 0.3658607807621312 0.16147427738981868 -2.5643907822627257
Ni 5.292714095356188 7.519548240218646 10.412926229659503 -0.6095273126809889 -1.138828493420374 2.807822315352642
Ni 7.702722669924367 3.9176015515815203 3.920855924284596 -0.1317566957207279 -0.4803178088621469 0.6539006965900417
Ni 7.522386516157823 3.8260970049598977 11.493692106359365 -1.515134123664913 -0.5041905017146866 -0.530372559426693
Ni 2.912025186800478 8.329871428174169 6.338799730515737 0.43284701697469324 0.26155652482540115 -0.4051397808674119
Ni 4.23093251869222 5.0198446347570576 9.337605433790527 0.18908098336349372 0.3351659227814357 -0.2742564888905728
Ni 1.9375320769649857 8.639344544493753 4.094413283089611 1.2365808071711992 0.41816601792375074 0.907612014339411
Ni 9.067244494741525 4.324072059220552 5.909635874865926 -0.8022543774375023 -0.6490798781626305 -0.46439702386683246
Ni 7.600985633347266 1.6359859254852378 7.3005619327405515 0.10150869546946388 -0.20311869240348246 -0.8000859090312736
Ni 6.675018775248576 5.13342159911927 9.530387749037928 0.33845179262155906 0.09138471966158454 0.1848810863495332
Ni 8.877181045765955 0.32944024977130987 11.599951095185194 0.49152319065966316 0.8315292151422196 -0.9528390044980107
Ni 0.8786962449408038 5.8474730391184355 1.513357708338349 0.2735674332433482 -1.532589085916567 0.5601863003540158
Ni 5.504877518149426 5.493965311625988 4.333375909378457 0.834977064481504 -0.26003571730550057 -1.2445627969354114
Ni 8.268549971313503 6.935561484034194 8.7636931793863 -0.8789930650511377 0.36814160637650795 1.353528720013869
Ni 5.441728174842495 3.2304448428118375 2.487487996492296 1.7331911825457829 2.4125712543538516 1.0639911365945094
Ni 7.5128245574112755 5.189130801614767 2.0841368367786504 -0.060170755952625415 0.10859645555418071 -0.35879924592965945
Ni 6.341075862482494 3.6909895590396564 5.766218434634443 -0.09575148127071251 0.36072320242524974 1.592181086547587
P 3.9405282077115715 1.9430065509447574 2.763124087230197 -1.2817232080357928 -1.7240226286726374 0.17234233045257416
Ni 2.2548862313292757 3.810674787154467 10.299205973696477 0.28828545617981316 1.4836743624937352 -0.04793616155964648
P 4.509919428402974 4.941291444362747 12.054321413075424 0.2042512633460289 -0.9873645490787061 -1.3553698869876656
Ni 0.469739260613308 3.550903648527072 2.640799905467084 -1.2501212648597955 0.8689503361031551 -2.685166296381601
P 1.673930643623556 3.9742109192616106 0.09681643974662595 0.2656252955781361 -0.13197446815848884 1.0583575924578161
P 1.0925525294026188 6.267473580603448 9.844741965144177 -0.3086038560221911 -0.5026172436902956 -1.2330635380465602
P 7.700591666630228 3.7973927580022018 8.015538338393682 1.1881497082530055 0.17426165896247406 -0.2508581645712905
Ni 6.7817526471360745 5.961481715354893 12.112451876210297 0.22724026804203448 0.45532257236939 -0.8763831382321164
Ni 5.3903452764484605 0.5018485201621141 8.883100091122607 1.0696388217985902 1.0066169695504148 -0.6142450298716325
Ni 3.0688560068183035 5.6402972662765665 0.8274437786449466 1.326714170924186 0.05850390977316376 -1.1620851499554696
Ni 8.670391058003197 4.471340920491831 13.315757790610395 -0.47158608541610386 0.4694824088095398 2.086283350788336
Ni 6.063641278447212 1.3398223943949976 11.49764456634845 0.3381910827610046 -1.6595984967602968 0.49732642760500156
Ni 8.962228284991975 9.036859327081984 4.708697027486949 -1.349467662570618 -1.2477345097951738 -0.6644476188679524
Ni 0.5279716812333743 2.9296059639771275 8.096267540341362 -0.1872992088727226 -0.6038919687720826 -0.3512332606569435
Ni 1.6779446455181202 3.6417009225036567 4.373545321472983 1.400866071647252 1.2392701810779043 2.6192480964222375
Ni 4.717728991017669 9.257739655591337 0.12227182521666233 0.31968942441239134 -0.3703447846754138 -0.3220903205444001
Ni 4.692294731873393 6.929692039616284 12.778776190707962 -0.4525581222503754 0.3667673517368006 -0.07442212366531699
Ni 2.2512488291547963 0.9981545946876605 12.288120949055497 -1.0089972968571332 0.5582618296377934 -0.6581571578735503
Ni 7.79061737044859 7.389336590659509 3.118791292629766 -0.13937384594635352 -0.1383978551863294 0.08566118691424601
Ni 6.061537831230152 4.410818589866468 0.2026400425546013 -0.26729214175759775 0.024432936231383727 0.6105912351691292
Ni 5.997405654507388 7.337108639235042 8.478135982363915 0.3438634505554336 -0.11888498196438237 -3.018676685837485
Ni 6.260575375974574 7.003909740550103 1.1014375271889163 -0.5711528266678486 -0.17023454008095198 -0.4605213429615101
Ni 2.8047126372943127 6.65140321719154 10.86499745218541 3.077361087052571 -0.38928764432650376 0.7081725705597287
Ni 2.94180412076427 2.1403723603463636 0.7701344866070398 -0.0752281645063801 1.161404064728045 -0.10637193709903615
Ni 5.54374077219039 3.0256021511626905 10.240605220179448 -1.3723988174454946 1.1401986342950234 2.0331419908786663
Ni 0.7096507344895876 5.785600460716182 3.980289789865324 -0.6881549897872212 -0.0254444082150336 -0.5587655087470893
Ni 9.10420637946401 4.433763616714571 9.925766935652508 -0.37665452894352547 0.10891758633902532 0.28382407797434994
Ni 3.0207798376737975 5.853232259228028 5.007805384681073 -1.2854937308218184 -1.271062642998153 0.7725290824589276
Ni 6.242241399357755 8.531232868752287 4.709637608251258 0.4179832124889834 -1.9728195398395247 0.2072391423297592
Ni 1.109545443601575 1.7011376770599387 10.054288479150774 0.01231841235603685 0.7576627068700564 1.0920117901771516
Ni 7.196122563537864 5.76574171450097 7.100788640738109 -0.05410578070546811 -0.5195312458368149 -1.2929504442101798
Ni 8.688054503411086 7.107915560806743 10.997028721367688 0.047134748704273664 -0.05336813120849518 2.0845157173649516
P 7.915363731386981 6.139337822184291 4.968832824867693 -0.2814563490731218 -0.07122469977394184 -0.07241306365508819
Ni 0.36642601642726497 1.1916625532981524 0.4413528270779274 1.7571762326064706 1.0167080352378297 1.7140148667276482
P 4.185786479077155 4.176095925304237 7.107523345976312 1.8736245801049023 1.2142574610836507 0.13145099155485104
Ni 4.174231297421865 3.230169282041044 4.875183496913391 -0.49859141036035415 0.7269963881344512 -0.7914027794349789
P 4.2773736939300155 7.342766820395343 4.342987469063748 -0.164148224677556 1.660886876554417 -0.3029191469325879
P 7.137933314105222 8.57568082108134 10.331000175430676 -0.12458331790074029 0.8147933904447773 -0.7678987827757677
P 3.0064598629515418 8.265417763885479 12.554360417509326 0.15310919325457503 -0.7781202033934599 -0.18810293572094058
Ni 4.680482360165362 8.009798407538046 2.2660161308616407 -0.5443979271715075 -0.16237776304069457 1.3341035214097219
Ni 2.1592390877867182 1.6920992837778992 5.575761852292542 0.4003361888311815 -1.3625540634409308 0.6142049206623164
Ni 7.013728889349392 8.381245141209176 12.477408235193327 -1.1271633983776201 -1.035193752746843 -0.2498556914487052
Ni 1.2539668435746498 5.7965402233167 12.352140145862233 -0.6130952325379054 0.1650627660720254 0.10379466329016318
Ni 4.383354366377343 0.727022085480434 4.549429331719401 -1.2421277051313575 -0.23967797958475498 -0.19947286812077905
Ni 2.704445258161445 -0.08821067687473294 1.5276749274528965 0.4288024145916744 -0.14185984559300086 -0.48389678446265694
Ni 1.0685144448303656 7.888404702644313 8.072915602088385 0.9866675230116815 0.017975610641814205 0.6294513052984257
Ni 8.732934167614383 0.23269729289689556 9.112839698412982 0.09627727186719548 -1.6474328079320402 -1.2514908915138125
Ni 2.7212269091027923 6.2207844006719375 7.723809498641418 0.4445879595607053 -1.548120863003579 -0.5382959280388278
Ni 7.844957954449145 2.0574744951325368 9.838652072109632 -1.0492833980706895 1.9585923404965493 0.3627140076030334
Ni 4.041952942081774 9.388447314537903 10.791514579973706 -1.0691418275575135 0.8506291691964641 0.695792451727821
Ni 1.7559926411659748 1.703149270686734 3.02870496544183 0.8404460580158751 -1.117743647725617 -0.009048740465829578
Ni 0.9454306338757641 8.35804292430833 13.19195476604402 0.32954806237402595 -2.566281314417219 -0.332907208654246
Ni 2.2307562931667575 3.9330237693869514 6.734622569971294 -1.2746493319081464 -0.13104989946169043 -0.4643831399097615
Ni 7.433802913706615 0.08057121377242382 1.0088977906050114 1.2329558088241024 -0.04078720921969105 0.9943579496774035
Ni 5.747517962192467 3.0197510774628338 8.169105600349406 -0.3174577068683952 -0.01655636169678439 -2.084256035945662
Ni 3.5655818522513596 8.11327147697115 8.667449906042924 0.3843439271679832 -0.10618784611268808 0.46359869633525325
Ni 4.9346779858636936 6.621238498148637 6.405937356711958 -0.2769615465265617 0.4109687288443632 0.7119628908400965
Ni 5.926944765415391 0.8291118398441522 2.45523636387858 -0.550353116313678 0.1715488880170013 1.221316167702645
Ni 0.5941090218316145 3.0952088018652257 11.855502479875831 0.46787392667183936 -1.0074122117582005 0.4138730469753517
Ni 7.873634645329761 8.172654823077231 6.876601582979232 -0.6926119971173105 1.1997114449486757 -0.8780553837282168
Ni 0.4248008101122414 5.393532596030644 7.8170684488370945 1.3064487358069308 -0.63708182526049 1.1713118107600602
Ni 6.717400021796675 1.5778517882067546 4.854278538305064 0.3951075934423905 0.5021845270282512 -0.29452578066257024
Ni 0.11763597451600655 2.030689988211371 4.837258986564932 -2.714213591456545 1.1054979975890444 -0.2623725929687933
Ni 5.546854608900361 2.1750379053122346 0.4132566508877829 0.0003226734467413798 -0.48409115986165013 -1.1357573106942183
P 5.031399816412348 5.298684578723389 1.9627670138183868 -0.26367691360251366 0.8844422610911671 0.3414453280322442
Ni 2.4993821178956623 6.861922460719041 2.830490428866178 1.243528699243942 -0.2915641269310849 -0.2767247479254073
P 0.7395206035077418 0.2298140086984889 6.630675536012425 -0.4087701785311476 0.6609681449597842 -0.9074389790966566
Ni 7.834651981621453 1.9628377410828906 12.865057942187137 -1.8096583616655866 1.1786086015317896 -0.7594781628122405
P 3.324089578086626 2.1258778638026055 9.658936848613275 1.1904068797182983 -0.847579840847179 0.3826788807607345
P 8.820599234162945 1.2343193606170457 2.550283703476709 -0.3702134013038721 -0.5230662555732669 0.9184157898231344
P 5.358297558805132 9.11397041610914 6.686050391439358 0.15385198495787053 -0.16129224328599961 0.5694091045038646
Ni 1.7001181022080014 8.613561241706472 10.212117747694778 -0.3203399135121967 -0.06658334434718856 1.18016129073089
