# total energy = -340890.72902373556 ev
CRYSTAL
PRIMVEC
9.06370754284525 0.00000000000000 0.00000000000000
0.00000000000000 9.06370754284525 0.00000000000000
0.00000000000000 0.00000000000000 13.26565216255322
PRIMCOORD
 96 1
Ni 6.454148308464513 2.160787876675097 11.141170936940396 -0.1253063121096939 -0.5330825021586884 0.9637399676812305
Ni 4.709103632776035 0.4355446828413679 5.838160616876454 -0.1297311806502669 -0.5012735851782076 -0.32247701445985755
Ni 2.8863739197931686 1.729835774442417 4.668978599512441 -0.0499238814136366 -0.48057029119258526 -0.3002475136376958
Ni 3.7390240788638742 4.136250125353651 4.6495451041836695 -1.5577015647134786 0.8205038105659934 0.1886824623734944
Ni 3.9568521620859074 2.7755610314532784 2.445217895616022 -0.7243509800918041 0.07481627377994211 -0.64531166936945
Ni 5.342783681475123 4.620895631031899 2.6499471087064657 -0.2674890882597522 0.1687615550798513 -0.37703788042487324
Ni 5.020342285868091 4.839276600413651 11.211585068049095 1.503552846585217 0.5460151510599563 0.3661952812834145
Ni 5.828272111954254 8.02174371800557 12.227256883610798 -0.5612376244366657 0.12341140907982617 0.08363567184378498
Ni 1.9587668993965264 6.77218474220886 0.354138087232538 -0.6599289050619925 -0.10529155955066384 -1.9528220136716756
Ni 2.9139819729490086 1.7263009285032256 0.06653577065387675 0.054804606544705606 0.33159208938724827 1.5026645304429926
Ni 8.038511576947888 8.78099237091379 6.792822804269218 0.01292904935684225 0.3197313333939203 0.36605772726428565
Ni 8.788207082112754 2.7100848082104054 1.0722311633302766 0.24408613595477965 0.5821484064474038 1.6069369047005229
Ni 7.181610539042617 0.6268895190128261 4.710420589481072 -1.4423328234324708 -0.18764039426222523 -0.9003455625849849
Ni 1.0959110056398462 7.812625857726006 2.641456227486376 -0.1603926142898657 0.11634344648945126 -1.2790610878225972
Ni 7.7496874725933225 4.169387040106689 3.6789498253126895 0.9257920276825475 0.46186628702517873 -0.49273418024862886
Ni 7.7860057486916325 3.9796111317097798 12.267173451601053 0.4209986022765395 0.21999309956131793 1.421948603349164
Ni 8.610159611267932 7.021210106771143 9.39578274673629 0.05471024705868642 -0.4704689410925253 -0.7921442855866938
Ni 7.148618643610161 0.8826591883529361 0.40826111041533025 -1.3526617440278834 -0.5364930705021341 0.18430567346203744
Ni 1.988106120691817 6.6733722026471485 9.209374005689149 0.1640348390281433 -0.24214572439895718 -0.4233074529153742
Ni 9.166761891077572 5.257521384680313 0.9958857420097662 -0.4918726035792819 -0.16697309572086083 -0.7029367760820862
Ni 6.500481981390532 1.8275606690997617 6.589341663706534 1.148219704827287 0.7364819590273832 1.8101183320211407
Ni 3.702832694671074 4.696396314810017 0.53015800670147 -0.2047487718077377 -0.007469311793851652 -0.5212271454819991
Ni 5.987675536396725 5.745493271024416 4.6690719557000655 0.26617396899275453 -0.46385297843790435 0.8930767968377136
Ni 5.139421275481167 3.2637685741933264 9.392042154636023 0.48460306650106216 -0.6266382613296627 -0.51213521048306
P 0.2876548860823723 5.9655510263004 11.941461870314892 0.5710330132605328 -0.028627948149337792 0.9318261496917695
P 4.083825640963179 6.385898590715504 12.436774453392715 0.3836803254420554 0.7473361281330677 0.15031646100078627
P 2.419094477754642 8.760517455589087 0.9383674539838428 0.8565385927023635 0.5067430929332112 1.5787678984654745
P 6.409092618301123 7.814012604979074 5.730416699908385 -0.6187303193364957 -0.5100572449081086 -0.1720983327625681
P 4.899532128115564 1.323790740519734 12.411052557775196 0.04682621632491935 0.22701529651542193 -0.0009227689245855075
P 4.135180607864357 6.0341904834734725 8.083266352021068 0.566138918393025 0.25726766764206016 -0.3496582028603398
P 4.832388182685996 1.07110363811275 3.37131943419087 0.2977741123965388 -0.35464151500754404 1.8460333007501948
P 0.2340883745423143 5.841142576655926 3.1051845089121457 0.39761930412065066 -0.2760454624701955 1.3020894303969706
Ni 0.520160737288833 -0.10117000989192575 4.780914481216089 1.4101976334608228 1.0617000265674876 -0.1399921962566428
Ni 1.9486518017859162 6.681203245958589 4.708470985989995 0.2755914056519125 -0.5411444532312164 -0.2033683465204433
Ni 6.303790464143358 5.674216274958253 8.909570126025 -1.0057332813938809 -1.295764516620207 1.9670916362168123
Ni 8.555233543597415 2.2989006521145896 9.933718320874734 0.2558525324620884 -0.840817839532997 0.2696768399396904
Ni 2.5902263397491994 5.031862258146841 6.64412815028099 -0.24390950116759927 0.7814898911966413 0.9048884447606609
Ni 0.8009598349906809 9.034032957914691 8.739305660841676 -0.938459595847887 -0.06362631860139364 1.10609269375025
Ni 1.4818617999543553 1.1774753097598092 11.564107096227893 -0.41215349318108374 0.9140215174101808 -0.9230859416052942
Ni 4.129443280993823 7.184229950520633 1.34882470073524 0.28325175041064765 -0.04168478133329595 0.6406710852736449
Ni 5.691256045126664 7.730608368229224 7.932979204618699 -1.177659864465275 1.18225262604228 -1.393984256925754
Ni 5.546381743865025 2.88707182527347 4.726989953228345 0.32952132290114866 -1.1664938205461266 -0.9685188771271126
Ni 0.830071557226808 7.447095596490981 6.848909932875144 0.7761103720522827 -1.2420683126483318 0.15733917217552257
Ni 5.204589332667803 3.9545137255415193 7.103199498774563 0.6126758856122997 1.2247498759745423 -0.6154457350479531
Ni 0.9292203603381192 8.01175551230047 11.372921781309076 0.13622373035314606 -1.4342405333426396 0.044016000569633874
Ni 4.7002574542205195 0.4868235145992413 10.288441923614123 0.7046308759550575 -0.012190114308288683 -0.627192591171236
Ni 8.246188307729167 7.148256095308706 4.443953932506516 -0.568118410716899 -0.712951737115927 1.316326914152591
Ni 7.3286510664054525 6.266148886744735 7.045746469442902 1.640603957935665 -0.5771882342286512 -1.8201412634747813
Ni 2.207828518788955 5.40498790629736 2.266449860022057 0.31435798489714895 0.8142382892722558 1.7120379455069352
Ni 2.556980660505725 5.299731070677276 11.376384117587977 -0.8620908899791604 0.5856389360991656 -0.33860554459060394
Ni 1.1234012305977135 3.3245135421022045 3.543374887983385 -0.5822890457903263 1.2068030616881347 0.5223412044817843
Ni 1.7871546609025402 1.4241078555324858 2.4995013464222087 -0.39768563858221184 -1.333884206310064 -1.2588493887614125
Ni 1.1644326346149456 3.3037667155514105 7.936455136458904 0.6813824469500782 0.10687278799485465 0.7347688329910184
Ni 3.3981833569579725 2.417734921624184 6.922627785380856 1.9173842416893558 0.9195334483673454 0.020529744522235608
Ni 4.2746166846041636 6.868359742877482 6.058343451316441 -0.4656941454117012 0.3045304572837659 -0.7013396067982953
Ni 0.50665490668886 0.4626605766779823 0.49978371000552374 0.016103333319765815 -0.5575450060764269 0.22907037927223775
P 0.5824311271760853 5.390975414446102 7.958648530732506 -0.48388367183653436 1.7723884215705348 0.23881537447414355
P 8.647982462817282 1.6715833261060462 7.77202679255826 -0.6759754170018939 -0.4657486527987205 0.3473786627975437
P 1.6576524076226167 2.928121356705775 10.313580116466298 0.9990209023707116 0.9071589859623925 0.6603965887270304
P 3.8696955504159924 6.011884699226419 3.6450560909803635 0.6247209897022918 1.7314148073716502 0.15533988235730667
P 7.062268701910985 4.068444529273926 10.305581394565436 -0.9369662991318122 0.7598499443293623 -1.830011471400642
P 6.6006178222525556 7.810514013870028 9.76936973760041 -0.08284814294548312 -0.8557127543669586 2.157575927685736
P 2.5648117038171656 8.573913844829914 5.894552286055606 -0.349838694302262 -0.12242024881115045 -1.371182171429574
P 7.173362565184502 4.371317380309896 1.5136110610835718 0.0842751051999968 -1.6485777201697607 -1.130852160083117
Ni 5.546454253525316 3.3122866006356158 0.36272957560628094 0.43352553109895664 -1.4033222464972281 -0.48983449010333063
Ni 1.5375764101805374 1.2062163263576982 6.92997663945136 -0.2583701566776196 -1.5994429103163228 -1.469758009522959
Ni 7.002665761151691 0.6139773612564866 8.824298765522654 -0.04190898152896008 0.8427824194585356 0.6182803762832706
Ni 2.855901735055829 1.66733244727148 9.128970762504597 0.3640386399517279 -0.004313539773689346 -0.05440711399597082
Ni 6.727011223847498 2.246403658063826 2.5434766426472595 -0.702430525869629 -0.3192659637217276 -0.4767264919664628
Ni 4.300013193121124 7.0191617088679195 10.15115575830195 0.1473290962376882 0.3101555167800271 -0.12750769063638687
Ni 8.195123379469152 7.608628992204503 -0.0024526392593468174 0.2317589818479944 -0.8955481411963415 0.07012735294470504
Ni 7.910305433845669 3.828936057624852 7.962124462572711 -1.1841115336278898 0.46480402949726407 -0.24649166007247875
Ni 3.470031366598927 8.592005005072545 12.167309521965121 -1.0536856409034434 -0.5186249319724616 0.33857057758761044
Ni 0.2672832970235847 4.512693090462489 10.169780770918473 -0.025221750681266242 2.1436572607221147 -0.07165304556061208
Ni 8.860644232743574 2.2230827385726974 5.611663097395866 -0.36895124676199686 1.2937911949439203 -0.7124981945182762
Ni 3.695753939085154 3.0499919682400596 11.439237303869819 -0.954722851784285 -1.1212578315264625 -0.23444681309280269
Ni 1.198194945187994 3.716491701928412 12.54617612246919 0.4989999586526825 -0.6165525949588866 -0.20117056753817608
Ni 3.3641219440362233 8.505138432043795 7.915323102337814 0.08863698171311832 0.16754259507108563 0.1150499244890083
Ni 5.623232920066066 7.912181621305701 3.624786015445983 -0.8599152224840803 0.8016445117676452 -0.44325689945410757
Ni 3.113419793579708 8.593418943448222 3.5757830806504973 1.0266155241595287 -0.18447433782941777 0.13023897352462085
Ni 3.1425868044318075 4.476084775723014 9.088815819006134 -0.507042626451501 -0.7802825011521013 0.41621892149970896
Ni 7.263763984152445 6.240543912954437 11.26070764378406 -0.08187266640609125 -0.3875835171512035 0.03388148323879326
Ni 7.910794874052634 8.66678965595529 2.608013865789363 -0.04641046894373942 0.7814533815317509 -1.1030212539137778
Ni 4.9169888288306485 0.5621112012502552 1.2466078326228613 -0.7468293636999783 -0.4109710428372083 -0.023637179802965744
Ni 6.10700830982082 5.812936318802684 0.30276589928703973 -0.5376649793230482 0.14641841149796075 -1.155651478514984
Ni 7.743560406298723 9.011464326149085 11.194578833598566 0.9860525151355019 0.5759165666050791 -0.12201375740135117
Ni 0.11928654851565974 5.129786554369986 5.791836914028726 -0.1050493616328707 -0.8429942783590255 -0.5324561814285991
Ni 7.16039239969993 6.3744511280970455 2.3981781598729173 0.6527784100601404 -0.6979130976152497 0.5441503299370757
P 8.612570557472612 1.5453349438316863 3.3713729100653347 1.5893803838739984 0.6598988231550055 -0.34603937516082983
P 2.045388752321794 3.5103014191831026 1.3967798709395196 -0.677467428166388 -1.7744242210536407 -0.6732551898572535
P 5.060965823046185 1.4000890305610552 8.207671176182528 -0.9458286346184485 0.06926989004041618 -0.6939512847540242
P 8.48040357417699 1.8125874242496471 12.394310983584733 0.7615615277038303 0.3531394765407208 -1.9711673489480828
P 6.3073434374976225 7.876833161913785 1.1695953224276727 0.2705073062607858 0.8121934909280851 0.18373180323643842
P 1.7435944824826553 3.315132604802042 5.6927162084107765 0.6279736923116347 -0.11952955752691673 -0.4801303754416892
P 7.1709697463948965 3.95252877359105 5.692331000840481 -0.856131587071932 0.4376413530395431 2.091328369411411
P 2.5342760731270713 8.697343414060455 9.95136173396507 0.34275170554849355 -0.2931471551474887 1.773780931042687
