# total energy = -340897.0522742315 ev
CRYSTAL
PRIMVEC
9.00222378182807 0.00000000000000 0.00000000000000
0.00000000000000 9.00222378182807 0.00000000000000
0.00000000000000 0.00000000000000 13.17566446343561
PRIMCOORD
 96 1
Ni 6.24663388089084 1.9193460669016302 11.515069052600703 1.0263026209048003 0.27925857009085453 0.05639766206343835
Ni 4.504190507887581 0.2253130509645705 5.951171003342226 1.008532955626205 1.0053766693854105 -0.1571442825558971
Ni 2.741474127573797 1.7580262218729388 4.764504203800342 0.3642389288879921 -0.8821668347934292 0.694194768223398
Ni 3.220185366362341 4.470828267615465 4.87047657833766 0.33548499668375126 -0.5791242749090993 -0.2871791104895119
Ni 5.028416988666364 4.592988440441321 2.4527287091970797 0.09931657291415154 -0.22738913491507287 0.7799850245163406
Ni 7.219900271818961 5.950352701226539 2.5744855824103645 -0.046853727128745117 0.31243479973250704 0.04846992257592943
Ni 4.916222277249368 4.456757792292929 11.273717640257608 0.2671116503156755 -0.13381949178702762 0.39987339026215
Ni 5.575842199391515 7.658497602714211 12.489567847925274 -0.6460724587948744 1.1240711326055415 -0.10989974774663654
Ni 2.040579010707511 6.488055510577193 0.3220617473090097 -0.860424043799699 0.016503654081978028 -0.10020231795321452
Ni 2.732408888514428 1.6056905958921623 0.5572385345569472 -0.4738705105749065 -0.25925230217225675 -1.0447268890482588
Ni 0.5596979420157552 0.03363770831106071 4.693487463093737 0.24045188163630202 0.15415511802058612 -0.18101877518064954
Ni 8.598725833416031 2.3762539203855155 1.2348656043559532 0.21953055810260255 -0.12474812561337871 1.2741865333391151
Ni 7.010373519975056 0.5309745475105629 4.721406959040835 -0.08769930039019735 1.4658311636647272 -0.04458909946428449
Ni 0.4841638855594082 7.195153159431468 2.3122103019980647 1.1866147596657177 0.1613783752419027 0.34747533627640803
Ni 7.578611871420427 4.096155725757533 4.0631769802063 -0.2754515376399385 -1.9560397492780248 -0.6665492385919876
Ni 7.592250240015207 3.743475615897654 12.594445552085613 -0.1565246466940272 0.296011106958845 -0.6225057272185279
Ni 7.974061545104599 8.826103994450333 6.886024006395238 1.0846242394638288 0.023277996691334103 0.9149977652805209
Ni 6.784714783628281 0.6791169377874128 0.42898205598034167 -0.10699517250533186 -0.4921595386920814 0.006730119634981957
Ni 1.8691766753645265 6.440289712713229 9.112487229381989 0.9037540740459016 0.36396073552594094 -0.27190392949799624
Ni 0.12360052858504081 4.997341313161953 1.3710728467232585 -0.31018277047353676 -1.160888558544207 -0.7750479922260394
Ni 6.551350143969867 1.7225394568560246 6.7575604766782496 -0.8895615845956035 1.3056833183958159 0.9542968199904597
Ni 3.4376970904462274 4.227066059820436 0.44880135122672377 -0.5006022701427959 0.2649940897520404 -0.3744891458610905
Ni 6.003159744247649 5.723496669154941 4.794901111653235 -0.2759755284642086 -0.2648336529147762 0.37733021485431145
Ni 5.145751969698951 2.686335508667506 9.428386954708735 1.0027883398329438 0.6714975837361984 -0.3556797264640713
P 0.20399488550628678 5.575743174933071 12.361170934662148 0.8270920053064723 -0.09206940443343499 0.5821509775505651
P 4.032843087917869 6.016311992773704 12.522374651007757 -0.3162294908882489 0.8900830043167122 -0.1463682749863157
P 2.328236060263694 8.438243195172367 1.4441051852703712 -0.22273492397251318 -0.17203816894859403 -0.48362501885850906
P 6.369757291630651 7.832213509495386 5.880654786261938 -0.6213471881340525 -1.5187794337269844 0.16849724567487112
P 4.690518529785117 0.877305389139486 12.70605691942014 0.5368139441766625 0.22288379084555163 -0.15901270322320354
P 4.002127501353254 6.116371706919569 8.169267559812809 -0.6322142127555433 1.0881417656987842 0.08529069094870473
P 4.8097169710811505 1.1615658997710416 3.8577813487242056 -0.37500388071398 -0.29625690442106395 0.3336014065077932
P 0.21265592473073452 5.354486525875305 3.6737569958190157 0.8680712759323114 1.9947960441106163 -0.2266633124926419
Ni 1.5468700675764555 1.151618442809172 2.648216493500682 -0.9924638179784843 0.030945283428604774 -0.42728314973367054
Ni 1.7574950906867397 6.664697139994212 4.676227499986957 0.15755488773075446 -0.6862287192987859 -0.18599180291520873
Ni 5.923832150810549 5.472010553601286 9.096504681789133 -0.09414017091953465 0.2750558448634166 1.105257085222832
Ni 8.539329162796651 2.3904144179430005 10.223919746509905 0.27029776135314093 0.4197634443178577 0.8222017670937066
Ni 2.2845032585254477 5.363497751593704 6.898276932794153 -0.17855437280055703 -0.6770915328842081 0.7112059580694139
Ni 0.5565534653489849 9.11430117741621 9.076227173366862 0.48615935524458853 0.026515015571393043 -0.4417911135418585
Ni 1.3590566788022598 1.0558257825998916 11.227787395764256 0.3038470580634961 0.625551198913071 0.3600835119587218
Ni 4.072470875742439 6.806383135580517 1.5999075675190357 0.8027333739564498 0.8158107759656982 0.05122280273071824
Ni 5.768228717701122 7.804279609990696 8.066536885956006 -1.1787430702271247 0.5747297453858295 0.21216331910425396
Ni 5.2802451887128266 3.1355284566162585 4.767864733830989 -0.6250107530285688 -0.7186798978489558 -0.31140995801241855
Ni 0.8634905769642053 7.34362683153293 6.819604701227483 -0.4268774296548196 0.15884198197329416 0.7317297890543785
Ni 4.806107079459694 4.548463443035523 6.949464475808531 0.9451555198108239 0.34914475355903096 -0.489331582324983
Ni 8.14891173204613 7.216848518054189 9.029045619807716 -0.4495054514669806 0.11801363510302257 0.653387761509365
Ni 4.751841676232408 0.3469573963841685 10.455456034576503 -0.4257875390247505 -0.8240935847997807 -0.2161541854312019
Ni 8.206435940178572 7.0652060632825195 4.817918896907357 -0.1407918093398027 -0.1336261448292989 -0.26640845360106374
Ni 7.1613588124315966 6.075915714533468 7.1137127441401145 0.047917906727201344 -0.13087994954272944 -1.3169537491033125
Ni 2.347212747390953 5.13448118588333 2.5254846794828993 0.01814787455362036 0.8110125832461066 0.4250601739404228
Ni 2.346834654004167 5.174955182716421 11.38950513907142 -0.048065745158975284 -0.5799593692158851 -0.4826282021628785
Ni 1.1781209887781712 3.3823244137290693 3.719319049371427 -1.0247874698118544 -0.4638748328147753 0.55201662005903
Ni 3.5833980777112595 2.7166189885043655 2.7320533006863794 0.038507154936262715 0.25898747854664433 -0.2987547311422532
Ni 0.9681081168655407 3.3523380072675417 8.31514859154774 0.8481830216488168 0.4484605551422341 -0.9633674148331601
Ni 3.565204584028057 2.6446822205565823 7.060943510457682 0.15582479241352518 -0.7502191061078176 -0.06577730350612543
Ni 4.107264469550246 6.842500056242074 5.923672811454689 -0.09514084426990711 0.11210601136933596 0.22565132628835977
Ni 0.7785266913969459 7.273148423791322 11.04596318628122 0.1325323975444879 -0.12803733788761174 0.9756534312893649
P 0.1268503312667014 5.512538563775346 8.10666969851864 0.42889446008484844 0.6974911795864827 -0.7152960689783875
P 8.443032378071656 1.829269818611614 8.093547157330118 0.011382016584696526 -1.7927109351779704 -1.3564093839957736
P 1.8424490738081545 3.1142652047212933 10.318138818052276 -0.2322014687020517 0.803091785737133 1.0880744027959584
P 4.053215119686838 6.115255431206203 3.7467236181346153 -0.276710092637388 0.6757201064579781 -0.09698715345002651
P 6.834902179612374 3.788522742266157 10.370011430274616 -0.25738362439463414 1.1727500858684836 0.3698130805416599
P 6.355533778508701 7.701834306618681 10.366784133151693 -0.3263922903538637 -0.18411746871063128 -1.1785391817464348
P 2.4509273642757496 8.571440094002975 5.746579270418226 -0.6088079180164612 -0.5116089056659447 -0.34943863065036596
P 6.890535920810885 3.901113551516929 1.5263476986751212 0.24830403069086912 0.33954168325162815 0.32855047434744705
Ni 5.168977706315804 2.773630069897597 0.6143351370733799 0.6354458323189637 -0.31463874936236136 -0.497795139711304
Ni 1.5243915155096786 1.105815129667097 6.942112359880242 -0.7368324003882666 0.7164157844051274 0.4969479612196603
Ni 6.921665609656265 0.7972972276061715 9.265284669428052 -0.9221258916848699 -0.45758154360689585 -0.7907047249266899
Ni 2.9777464854210645 1.6244782363260284 9.228471876890339 -1.1367279021376038 -1.1172510243599145 -0.42791666955261143
Ni 6.4140122223316025 1.9259086878294156 2.5978058423739148 0.7207578634239071 0.9115691992149462 0.26900629623522704
Ni 4.258753886522501 6.939201941024339 10.304291597872412 -0.6019980941834794 -0.4957061183927592 0.03955050859911253
Ni 7.959459938595863 7.241352570407319 0.15426030136398705 -0.07779232568913054 -0.18707115202231653 1.0237376883911014
Ni 7.500508580378634 3.9042013141756815 8.18227217187355 0.32296321006765666 -0.9530968861450877 0.2384541344799829
Ni 3.053536205024667 8.463512436522564 12.231338166751586 0.365550448610564 -0.5637321087237452 1.0298489434951619
Ni 0.16964870220617706 4.890818002546746 10.210072526330041 -0.2910115968617247 -0.8080915529445696 0.16035533329402707
Ni 8.71118160931438 2.2063189474722007 5.655719828684154 0.20987066641533533 0.7021926988272101 0.09534190453711967
Ni 3.626581743816317 2.364596040959614 11.49323686018086 -0.309483430413667 0.8574240806311104 0.26756287892048114
Ni 0.9717180084869974 3.2253706470954064 12.521268277740232 0.7977935134526712 0.5529743559866089 -0.4354073215027017
Ni 3.0678227337110804 8.43362505451948 7.931591755322686 0.7535785094983538 -0.6399396064242592 0.6293024384253871
Ni 5.653918483762824 7.932057170277373 3.7534833877569396 -1.4317830729410825 -0.4674471235470659 -0.8977929713664602
Ni 3.0185985756409415 8.32938830867198 3.476688421069708 0.8968249510262362 0.0636725984582968 0.8588502715546759
Ni 3.4316475962576516 4.220485434445661 9.137309960446837 -0.7358548669663455 0.3575322062917778 0.0958556109487446
Ni 7.26536150046823 6.019732837701769 11.446279461986737 -0.5987096532401948 -0.8575678052978263 -1.3509694439271247
Ni 0.6700417962821994 8.76501490581391 0.03763289509809939 0.4508527095234945 0.4975341727404335 0.6008408406505845
Ni 4.483845482789097 0.4953806560340594 1.716498964890944 0.3600212912622187 -1.2085539829409704 0.45429258844297893
Ni 5.980312101017581 5.563401126521557 0.3402930503308906 -0.09489324703547529 -0.5663250662619022 0.33658748571931063
Ni 8.010574563599931 8.782398199382571 11.141012262829822 0.14957186952527787 0.3659857363757697 0.9235518254981191
Ni -0.014930187666299359 4.795052349007951 6.0056785663815235 0.15650536342031757 -0.3855209781952199 -0.15839949511923687
Ni 7.828513595638979 8.781687023726473 2.545538032540149 0.7593303243804664 0.40448774910570984 0.14296490573172152
P 8.482786197025154 1.744144793243796 3.4735133368430553 0.3478257776372913 -0.29733573930753954 0.3491038730187665
P 1.724681986047812 3.29493983026403 1.5082181207787329 0.042174576485520913 -0.393972965617315 -0.028356439655506004
P 4.877782782926125 1.0113638007585575 8.151019152566288 -0.11234538107365168 -0.541145738782797 -0.7675174881769491
P 8.479797458824846 1.4913353508363887 12.40501986508348 -0.504967231979711 0.2801376302616982 -0.15741836215289018
P 6.293706507545696 7.66985840876478 1.583253454053462 -0.8653021978276066 -0.127266006939226 -1.1013790903246645
P 1.7371860744822347 3.2938235545506616 6.078091551952187 -0.1620201225909597 -0.1922655517390624 -0.365644550986267
P 6.736534883483551 3.9117361752409168 6.099647376110736 0.739260807324101 0.5399823146023152 0.09216659213293159
P 2.4402417249872976 8.483551386022222 10.195895824770266 0.18645562992550468 -0.28857701927830304 -1.5914418943887172
