# total energy = -381179.02587597846 ev
CRYSTAL
PRIMVEC
9.14604911725828 0.00000000000000 0.00000000000000

0.00000000000000 9.14604911725828 0.00000000000000

0.00000000000000 0.00000000000000 13.38616737992736

PRIMCOORD
 96 1
Ni 8.529550512071467 2.330577938937015 10.107867741945615 -0.06915856127353251 0.4388302311413217 -0.6305429957007076
Ni 7.751221733870789 1.049161584077039 1.44749946042221 -0.11610073435102584 0.7287097712811321 0.5465630531436265
Ni 9.019101936066406 3.399385236475571 3.3857768300233406 -0.5903530537453832 0.140616460104203 -0.5827582721172608
Ni 0.22668757069726472 8.93301017591126 13.044994279538214 0.08306848648640533 0.31899702633105703 0.4011977655005284
Ni 5.215488767626849 7.622445362577422 7.8086872749555445 0.770934484278298 0.8173678360401729 0.051010172499279895
Ni 1.6908209506131713 4.645964290323016 0.7886007059421241 0.5271645940123567 -0.17621955401979328 2.7242357515792373
Ni 6.752793284137806 0.03923655062844774 3.7023865262378015 -0.3621735617185311 -1.3277562390354551 0.28250433072166187
Ni 5.9470355046936065 1.1515241655767094 13.169686025304621 1.004318146213909 0.061739385991325925 -0.7155115274233033
Ni 2.8914685458927694 8.757707852858704 7.034819024899739 0.832813481171282 -0.09295026437649152 0.48049701475248857
Ni 1.4979399211951447 5.6154272025640894 6.982117660789893 -0.4333401545610279 0.07650034635058438 0.7256180197296859
Ni 1.9946984318789467 0.11418293535333168 1.9398029305906002 -1.5498679276016727 0.26031108245407425 -1.6152958181881794
Ni 8.728102091929967 5.374721482415025 1.783786881270029 -0.28792910128165894 -0.31441917715238754 0.9188662470969917
Ni 3.5791233933404323 1.4377680641824273 5.118348580161873 0.7951607038155144 -0.9457630714878356 0.6492608838251851
Ni 4.042983565420382 7.525488096094398 2.5460085524050275 0.35218713992978057 0.9295828621835475 -0.5650901654135365
Ni 0.7551636650464265 8.01763699803304 7.734607935685108 -0.44367444660750044 -0.6304136692116948 0.30060541119774675
Ni 3.7186555183725063 8.505505548994034 9.402323222463163 0.05315164432231491 0.9495955578600486 0.4699935441180034
Ni 6.554241704279305 7.332113180025105 5.622404723420603 -0.5529018508774607 -0.14615590186519345 0.47065868850582815
Ni 6.133002120993893 0.23236909639665673 9.296385450371265 0.5454333104145574 0.686750910350843 1.1564983998963114
Ni 7.175249291953191 8.05916920698497 0.13407193372084275 -0.09844882559721756 -0.9900503234409853 -0.5648063156245305
Ni 4.961475546040862 4.3624093301519755 10.358122851957422 0.8389604746092841 0.08819320930748037 -0.5516309545848371
Ni 8.773932943957742 8.163223807567686 2.2352358647246167 -0.7034399409707498 -0.900501371436559 -0.5578106010329876
Ni 3.8279325129899178 0.37031529651521755 0.45113435936563206 0.38278326754908276 -0.5909194677718146 -0.6320100671645373
Ni 3.1327504671349797 2.8413756349855417 10.610237353750756 -0.3322214954411311 1.187589721984477 -0.4198333783238447
Ni 6.47186324005776 3.7884032887903487 12.221544382719733 -0.5849015437125088 -1.6220735032316451 -0.059550348759807116
P 5.715045969334498 2.0147923017462426 10.981234945528652 -0.019464279372198735 -0.2623674507624707 -0.6673069426936185
Ni 4.72392521283045 1.0545760451427828 7.746882848178917 -0.5207679464573934 0.00021777243776091527 -1.6140118092694333
P 0.4005475618071369 4.32256914028309 10.777069520734079 1.1921477736688049 -0.797513263208091 -1.6184053103514386
Ni 7.770940615725086 8.929571261450585 7.096141454888927 -2.3106815213958853 0.5114487259389967 1.5110501834035266
P 5.844791821832205 6.4577691783984505 9.618362962801072 -0.3875896877987906 -0.1070278255154802 0.7961202395153063
P 0.12868125238275252 0.22898688744038634 9.378669710287104 -0.4506475354912239 0.5270411810606148 0.3649948332174101
P 0.1275892141205062 6.865591507657771 0.4067961425505764 -0.02268098653728352 0.3997697748047502 -0.30416998862055356
Ni 4.285070338983175 7.907518566898655 5.189602704866081 0.6695898251905242 1.3550487562028213 -0.4503469735316695
Ni 7.627640318464826 0.29363756469616925 11.39386352358873 0.20655420044759265 -0.23429974599197714 -1.0623787978020671
Ni 5.8199694445814805 4.866393219622834 3.4347566667553977 0.5960557605571153 -0.7837043823494568 1.1687371080543485
Ni 5.648032867596821 2.9119191116748695 6.2538973417799095 -0.3674949739314445 0.3819216908797358 -0.24810811262997917
Ni 8.75471709480381 4.679411391872721 12.619581354049595 -1.928783484665233 -0.16956348215585637 1.9344954474483456
Ni 2.4950604859071794 6.721596110666097 0.9470541773471897 -0.6153822287998693 1.2593427834580635 0.27552635674193193
Ni 2.8189952528438607 5.0613321100878075 9.730953571006522 -1.221396386121277 0.6984687130084036 0.31829922893308404
Ni 6.280473016642633 6.873493694078046 2.513787936039303 0.5059252250176062 1.222683480363817 -1.321883325194446
Ni 6.284671053178403 2.615998693123954 8.689697831769395 -0.46015701764355593 0.3898710276337995 1.2593710655928376
Ni 1.073471782578301 5.25713072916795 4.6213733081144595 -0.6038613726444633 -0.21911815315553232 -1.0747923409750717
Ni 8.223139575205673 2.198966292423411 12.57665254340047 1.4253548008172356 -0.3780002443381426 -0.005256363302932883
Ni 7.958608397157515 6.381198455353843 3.969935900488147 0.754726764170184 -1.0699573814802734 -0.020691981131712753
Ni 1.4805624279098182 5.94263625507769 12.363503869182296 0.8965590989593591 0.6801999966062028 -2.037182479496627
Ni 3.8035948763413625 3.349703897777732 8.223684679731885 0.21183730322340294 -0.01637407048264922 -0.13709122055976392
Ni 4.109393027917621 3.1956752849260566 3.53451079505245 -0.1909568602299679 0.909539570379427 0.354837433068434
Ni 1.291870288978465 3.715893411545049 8.313185172385685 -0.6680903578268623 -0.7986836293671083 0.4463267966286829
Ni 8.949290143304882 0.8953030877385775 3.726066561956243 0.3979193518595727 0.19943198758051459 -0.6679713157504948
Ni 1.1643011961659733 0.6642217550548545 5.8191545316068884 0.2687337593001307 -0.25190100401350807 -1.1019586169772184
Ni 1.963556134701822 7.370435125743798 5.226093611555446 -0.5412043599348744 1.3820625657875036 3.740842228242196
Ni 1.6522886457652344 3.282379830370738 12.541245443529164 0.00490155106667543 -1.509415218903265 -2.2076216793892174
Ni 1.5007660503662847 7.2360339342554445 3.200418425988041 -1.091502454640901 -1.2176202069082964 -2.9519982106733287
Ni 2.4697350759560908 8.186646839306485 12.398910969053603 0.5597450990515392 0.6160825973010035 1.0963880648679762
Ni 1.2794591003531026 1.07838321094368 11.108149181225759 -0.3950327743403971 -0.35908720948372347 0.3122118850884236
Ni 4.157629290858049 2.650058579963194 12.812824567011884 0.3087884612291714 0.45764067897960536 -0.6273661406346228
Ni 6.456507023622989 2.286219600813945 3.530722501516249 0.03697092079739439 1.0564894289008255 0.1467066321623409
P 1.9511266539782648 4.20399061373348 2.889043013672102 0.8710429569661257 -0.23726602770915267 0.08107536731577651
Ni 3.405531381469118 5.8999516439394695 4.124546202062426 0.5312035399684206 -1.967995378978004 -0.05982005748142602
P 5.9329505890833945 8.909751773056215 1.5770514166790484 -1.127209164013891 -0.23732310619933322 0.9019938968216853
Ni 5.467297791380327 5.051783634829976 7.84804180961735 -0.5467615423076777 -1.28446554666762 -0.15294927063794303
P 2.4222304969434663 2.193771336536008 6.94609594641923 -0.31660255795695147 -0.045292039068580064 -0.9351927521711572
P 2.542217515054097 6.927583428440898 8.624225839304653 -0.6793448476947591 -0.12783216385534113 -0.2840775887460527
P 8.763405841446474 5.916222465283994 6.093651244751726 -1.9030745099349031 0.2417713717786739 -0.20542548615978815
Ni 8.177994676860212 6.907032256118725 11.662015622474604 1.029095610268905 0.06967483878831872 0.17155634421616905
Ni 4.404618346737124 0.9730573095364063 2.6077590174919805 0.4550808886722292 -0.4672491486036469 1.4073143983757568
Ni 2.3154229355823914 1.4194851120364442 8.863463618573563 -0.23384568917369403 -1.1165226308343221 0.7562324021814331
Ni 2.728650579858358 3.840078466191451 5.563103570281971 2.0304649582671357 0.39250846525664657 0.2774703678421802
Ni 8.61367587167064 8.185476145022001 5.2505638659159155 2.027452396693057 -0.27559166276222863 -1.3465090941629263
Ni 7.633539520132739 4.05169060416124 4.966776596097797 -1.0941049252607544 1.5894312917165916 0.7239102930099597
Ni 1.8084117038602465 2.0392854212294553 3.5674941919129095 1.3854016574630656 -0.06270920610376297 1.0687001120344046
Ni 5.590193253103976 2.8647254983315618 1.4911252000125674 -0.07554209620237312 0.5535711090303435 -0.18055751927351485
Ni 6.034938182570066 5.981927682000722 12.07962422426829 0.32875204883529185 0.7009855658929863 -1.3461439975140237
Ni 5.4568438572618385 8.507261590420761 11.5840949425832 0.9874234273410994 0.061063442970223876 0.19212079863108206
Ni 0.17836716410514003 5.925478266970704 9.341108715853325 1.8643490683402473 -0.21867978006653307 -1.115716332882943
Ni 9.089114941908077 1.6002018961547424 7.52105866451646 0.033144347962452594 0.8908597345817367 1.752924142198336
Ni 4.672140282840177 7.136424313534133 0.07363301207447717 0.08599208789110352 0.1540584445417218 1.060756945927928
Ni 7.316866716179505 6.3015638058615595 7.74103303517613 1.8934405863895651 0.22570506234443063 -1.2656831238537942
Ni 4.202618706368849 5.212068145264369 1.7723552345030136 -0.6063692266679814 -0.6147556509594638 -0.48826868827810754
Ni 6.48309458834954 5.093754854138587 0.8784670405598255 -0.5214343763967987 0.5217138553104306 0.13092340118615517
Ni 7.536874927220835 4.7215563861141865 9.896928753189405 -1.7626254286465 -0.6260844457087218 0.3115282287578377
Ni 3.6713430063909307 0.8464156261024053 11.395188786102963 0.5456102023120539 -0.8173025300198763 -0.35857530284431144
Ni 0.6239718221863992 3.034576776121982 5.636325924751969 -0.7974019344412073 -0.19473149678105173 0.6714577316371985
Ni 7.743173210664954 7.649956678262824 9.470338731181931 0.26428343683826094 1.2101758348151095 0.4400275938835325
Ni 3.161057489091866 2.631702459424431 1.4507389910125588 -1.067053320459601 0.590676241412757 0.16767732087673703
Ni 7.70013190361193 3.918889971264955 7.389886942964447 1.2070064359481922 -0.10156885928343796 -0.09299320179928501
Ni 7.637682680373925 1.778961425766167 5.470511713033203 0.4472063710201588 -0.9235304853418804 1.1076867777102473
Ni 1.4800411031112584 7.449639910928497 10.571431582034803 -0.34919977516668244 0.7832073881083801 -1.878203457724836
Ni 4.019569679730679 6.91077299019962 11.079074805749588 -0.7058086983132426 -1.678340296144174 -0.8295389241850681
P 7.67231876830631 3.2999951209326004 0.9073923354357063 0.6962629636063363 0.28843355172190327 0.7664029149565317
Ni 0.7524911895001254 2.3146638135072957 1.5628082744194491 -0.9800747002855122 -0.10743380270464722 -2.0040738698681166
P 1.888174398039895 1.2579201547283954 13.303668327744308 0.2561098998885331 -0.2800021331250984 -0.481355506098042
Ni 3.661227476089051 6.273631771917672 6.790213429415482 -0.4859115008998406 -0.7498028445060054 -0.3687954379104229
P 5.853919578831549 0.4759640534556344 5.762959376741782 -0.6159005631971844 0.021775958224510884 0.5221589132676491
P 5.238216699634235 5.5915377223213145 5.455706088754105 0.2456622221926479 -0.8167358588831288 -0.11143829587835002
P 2.8103430903975872 8.83491879934014 3.735503455415085 0.7164224692733469 1.1832648693568784 2.649511009071837
Ni 3.7750683492061348 4.869594336806973 12.443781485926136 -0.33472266459642996 0.6521487468959414 0.453852929802399
