# total energy = -381165.44363685715 ev
CRYSTAL
PRIMVEC
9.22316137122036 0.00000000000000 0.00000000000000

0.00000000000000 9.22316137122036 0.00000000000000

0.00000000000000 0.00000000000000 13.49902895821797

PRIMCOORD
 96 1
Ni 2.137310844373369 2.2063462069248163 11.00323423306427 -0.5850666085354633 -2.114270065809249 -0.2248028622451354
Ni 3.194285132736218 4.08158092211991 10.503351801430213 -1.9812787263504716 2.1403870746112754 -0.5423217613687692
Ni 6.925026221042564 1.4793950772548075 5.438988622998236 -0.9462546664122736 -1.9318371838898925 -1.020325577385759
Ni 6.8199098513700385 4.02217453999648 4.806140486057175 2.835867651525632 -0.7468039097786816 0.48264234323026556
Ni 5.615005278443038 2.6749473645936757 6.694411217475411 -0.9664833347543227 0.8390689751626904 1.086168444022497
Ni 4.7244629362713555 7.110033614151381 2.6327154311819423 2.0549264337436095 0.2328247041083474 -1.2760683237428605
Ni 8.470837283031235 5.31887723763618 12.427921206576904 -0.24188295765587373 0.9409700209745664 -1.3430923551718934
Ni 8.850093676901048 7.1341706273507315 0.4234593168576626 1.1848849214588044 0.3162009516431587 -0.5227469245606352
Ni 3.4518972518310056 5.408793837437658 12.398723444756046 -0.8579521852204386 -0.1974398968511503 1.648957729216999
Ni 2.3433285989908295 9.090679840181544 11.919008377685117 0.8458042370039949 -1.3432288807497574 -0.10077233152407161
Ni 9.188159432273228 1.5055796322693114 9.594704393568685 0.49144682889577307 0.7786575639541686 -0.0809036176246026
Ni 1.705786795249175 1.4716937375446597 13.652782855988715 0.23109538012206654 2.0385451641721084 -0.16171210443223763
Ni 5.865663133895369 4.113502283481374 9.03144408654271 0.17594984529817437 0.4071002470278924 -2.0341858587621484
Ni 8.02229650125408 2.994133308724331 6.916807461981829 -0.39271646750239464 2.1353965633752194 1.9185173268525346
Ni 6.861340292062237 8.30575191839418 3.654119675561369 0.9250988582702647 1.924794161000182 -1.7564732930021751
Ni 6.703430546939546 1.2184810664040517 9.719004016490477 -0.6050929310587192 0.07015383530726628 0.8255051204353268
Ni 7.756116065284169 1.7107765255284446 11.743641955114045 1.8942815942336213 1.2440498618547349 -0.11213095107000043
Ni 7.610076528792569 0.9938509722236226 7.719041723687903 -0.12533150892067446 -0.960106227583385 -1.3380275390544765
Ni 9.020067317042749 2.2152834502531205 5.1781871347157 1.791966086592146 -0.5830408363546863 -2.666890380890549
Ni 0.7555955018110954 3.569511005105029 12.36081809632399 0.058867463760169575 -0.9940465890845718 0.3908467612835075
Ni 3.720171345422718 4.058661366216056 7.285277368676768 1.4286262724796557 0.8609516341683946 -1.2796030763689963
Ni 4.699772533392234 4.848117860216213 5.023744375936777 0.2963492070245542 0.033999753984212414 0.43486790405946396
Ni 7.531015589875934 3.6182185200862174 13.497759960362165 -0.0390843675959714 -1.4072555201133636 1.358093713676732
Ni 7.984666003029644 6.110870101001955 9.529774260125006 1.7809856763212424 -1.3912853699373524 1.1575183565203935
P 5.459226083587467 8.344987246689952 0.3780804408002974 2.1273868056968652 0.6308967794957006 1.094560010520302
Ni 2.527699593967909 5.4028080057348005 5.178618778665922 -1.9436200354574333 -0.08664463387343788 0.3471711747724279
P 3.802368159191389 6.193638750773056 8.717754224248315 1.2976689327317716 -0.522872394394906 -2.1504010072038513
Ni 1.0918378381884297 7.159082386101761 9.107767591176744 0.1302466868341047 0.7363516040971061 -1.68892475652824
P 1.6574297603985082 6.805807637697205 12.558753594668394 0.9214748883644323 0.3099598558294533 -0.20418415755351932
P 2.291835689288126 8.505193558983693 2.8404385483292307 0.03432654119601185 1.405674805889805 0.6260844457087218
P 7.655574383631086 1.1003877087408935 3.4537806213744933 0.7887314032504029 0.7361443731823064 -0.6547465895301047
Ni 2.9692584426186195 4.359244193945072 1.1525502199561197 -0.18282497515145288 -0.17567242326707164 0.0740534274719886
Ni 7.45941618847488 8.924284786635695 12.510184427107149 -2.6227031448503735 -1.9972005397870507 -0.16703428797609943
Ni 2.277475227098065 0.2611510460969246 9.295579747645867 0.29480525957620196 0.16439042259534914 1.460368340777943
Ni 2.0920251222454316 0.6343708808765656 5.180657097319746 -0.3289204560923561 0.23468155481142808 -0.783428760090567
Ni 7.5288389238021685 5.480734495807904 1.7135130374949128 -0.09709822510659406 1.5557164159626495 -1.489168552839087
Ni 5.126002487913284 5.895832094604225 10.889247949141145 1.5646052338118475 -0.6938751801004501 -1.080381662137391
Ni 2.9384069679713787 6.581823164809841 10.553932540477428 -2.4355486890856315 1.1408210983703708 0.6543470400988407
Ni 4.466463444400727 0.39419422595909964 4.621149694638752 0.9740374929524966 0.21672111367826546 0.7373756744862462
Ni 2.895297911917208 8.467461605984633 7.2003551107352255 0.8142262050873977 -0.30776439084003127 -0.1713833089734145
Ni 3.9011943328371825 0.6145217153793082 0.35408915354995324 -0.6927117559199683 0.3384811031975977 -1.3440462344447304
Ni 7.5608617399382565 3.4758221323197778 2.556486925109603 1.4642658760601364 -2.292572984720632 0.15010563054156084
Ni 0.5485871796668447 1.366180771934965 2.504448004256192 -0.12169982570535813 0.9629791782558061 0.5278837315665683
Ni 3.0888275060945003 1.6609622311877137 2.8739296917489794 0.18803403015621808 -1.251912038211631 -0.7859875219566786
Ni 4.319031210548371 8.168234582971056 9.602372529898048 0.15791355662175383 -0.5255859366713271 0.5350535098421301
Ni 5.81871724272812 1.881838498707029 12.807095514310882 -1.1379730873986145 -0.09825573574980498 -1.1044975813489883
Ni 6.752497765212586 4.9910584145010946 6.839809744254608 -0.29593088854021293 0.0863219604266965 -0.3686224026676684
Ni 0.054436020482952624 5.347828741049539 7.1638802746253765 0.8616388900434064 -1.3950772328796168 -0.12174224890751938
Ni 5.744369339250869 4.893394359182821 2.97447045108593 0.3604702058741792 1.328917349223092 -0.9470501657303756
Ni 0.7810108451707172 5.458469784358446 10.635480043688501 0.39961345173254403 -1.0001413891284001 0.6493976665133655
Ni 1.1640920840438795 2.9877877737296226 6.974259456219534 -0.20383731573706182 1.8037129427154293 -1.5914724905163367
Ni 9.099119032798052 8.305834926846146 2.2208597735929474 -1.418407680075441 -0.2995926536625163 3.712087010486375
Ni 8.212081491931587 7.2642356484196045 7.385022169190981 -0.16180157882225038 0.49728374729252417 -1.8179349998520822
Ni 6.875792985865593 6.666906828074652 13.349067842672197 -2.4424155914087935 1.1770343150661342 -1.4471068477823466
Ni 4.732321069724105 2.8084987406451076 1.04098962746266 0.4714436463009687 0.1933922091443379 2.1376089976455055
Ni 3.715661219532583 7.189039214100038 0.49465013221181897 -2.2164773300076344 -0.8077796781311056 1.1093636511920377
P 0.07795047029256068 4.516074829192209 5.103739621096092 0.3862586276921928 -0.8169286916202253 -0.8763939368653939
Ni 8.23753741720106 6.514494087104355 4.844896209963812 -1.2729287496726143 -2.563009071423851 0.006345482602053587
P 0.07488469146662864 3.8770019806698546 9.075748464305185 1.1528111808527113 0.07436967316082677 -1.4365020756833067
Ni 4.477605023286786 7.939989009549454 12.045790875636813 0.7870848687859154 -0.17561585899752333 -1.5949041419057048
P 6.048724439963658 4.276964371724436 12.10115013456885 0.2077201957312358 0.4022948552194491 0.762762489990467
P 3.435941182730938 1.4905735487861844 6.79452033286214 -0.29009602702599074 -0.14919494580183337 0.6438379130374009
P 0.5031050042025889 0.7876220072117163 11.642899208543978 -1.072323567719605 0.6990682942656153 0.1945198949908779
Ni 0.20515538903315034 5.514832523243136 2.8588239981234933 0.9570008491851841 -0.4338294354926206 0.9329929163063609
Ni 4.441136643389869 0.7685383641048089 10.983620258180915 -0.21560808311974483 1.2956375041240396 0.6098317312952852
Ni 5.241282781370939 5.354423301400145 0.5684511022222292 -0.37796296334230395 -1.4745189212467122 0.2518809494088501
Ni 4.626974121018343 1.4698214357947672 8.698328401856083 -0.9689634208636989 0.842383384247904 -0.2595590347793982
Ni 0.9307461024070552 7.649099724377763 4.3679748384595944 2.212889098435744 -0.9954087595394211 -1.222421484951682
Ni 0.06475950495908296 7.807120147436408 11.612674908867145 -0.20135954362053066 -0.29735245147808786 -1.4315105360059863
Ni 1.6291699940848625 3.264796201100389 3.6879483866857785 -0.43091149051487726 1.6323946826519953 0.3703116174446332
Ni 4.388361714262363 6.62306914227545 6.5261595415539295 -0.10765517468683396 -0.18468516828864323 1.0572749009165983
Ni 1.5691641064750137 8.434064538810444 0.8525678200296555 2.1991342107434964 -0.509366132378355 -1.455727756682138
Ni 2.5354747189686933 2.669035318181454 8.638581685079593 0.1759940682725485 -2.5866899599805584 1.770035605067642
Ni 8.518447241814211 8.676043399451698 5.350893597559339 0.20395610070311324 3.3428272313450234 1.4376662711947368
Ni 6.4334501685018735 7.857054342874422 6.005123789410624 -0.3168110744233318 0.9958833851829946 1.498483916702742
Ni 2.5609214210768356 6.3477946692346325 2.5810279127751863 -1.0268893466462057 -0.9951549916574022 -0.1922555244367334
Ni 6.804654742531015 1.4341646940948476 1.365008508129983 0.9984452323728998 -0.005073814978481584 0.28284551611116454
Ni 8.35635018144792 8.537520739443655 9.05980530763098 -0.39593317466747935 0.8693213462893288 2.924064203267222
Ni 7.738647397726061 3.5570689604715082 10.378742280287751 -0.552886424258493 0.7873926298343213 0.707239517222498
Ni 4.96988203608852 3.0995355963980717 10.743120792616915 1.9696678815844206 -2.631345908127036 0.8872036258863881
Ni 5.562294911444839 8.781888398869256 7.970569323253607 1.5851108099643667 0.48569192868986677 -1.7957731190430621
Ni 8.908706867150139 0.5300790618268993 0.46631196902687266 -0.9685517872475772 0.9127398224842797 -0.8014496221480197
Ni 1.06672316988815 0.726548077519909 7.408523706574729 -1.34848395850111 -0.5319411894653936 -0.22895262274745087
Ni 5.0465818457047975 0.3212417867910051 2.2791759780472285 0.23988032540354817 -0.7090763133209208 0.8055608161029157
Ni 6.23937640780614 6.479446074052183 8.32583627450534 -3.4538754908738065 1.4065099001965906 0.7977935134526712
Ni 5.486923237060012 2.521298720005223 3.6004067509266506 0.5069063579839528 -1.0951842743678621 -1.2340526414327069
Ni 3.3367184131479757 3.078368441146826 12.739816241676573 0.5940562136285834 -0.6566535767448304 -0.3613986312257195
Ni 1.090260677601082 5.342110381025238 0.49336626815475 -0.22162652139968284 -0.07391278812906625 0.8359098607084186
P 6.648442059092956 7.418336227913204 10.531226961916419 0.32659617883455366 1.5168963577716585 0.5439878362172825
Ni 3.4678717672537323 7.542978030120319 4.41784078250377 -0.4479411923036543 0.35142043696708514 1.7847921945515264
P 3.8642186790671413 4.033934070691616 2.975145586495251 -1.4360498186372366 -1.2281239346530977 1.2384592551408349
Ni 2.0796660860638765 4.845563044527936 8.616646240489597 -1.6077095212004893 1.452764560288756 0.15374168463225135
P 5.874028541221244 6.768297040570052 4.41956828062079 -2.4118971111049623 -3.922782743906166 0.08663640634332175
P 0.384431509691804 3.307241189538834 1.1898772761728154 0.0057502722202159035 -0.42324523221887106 0.39769155211948287
P 1.0184030276828016 7.47148930665522 6.532247750347546 0.33551045060504797 0.3550199813928854 0.5322448367487413
Ni 3.7430816781652423 2.6638519015142648 5.035475314831792 -1.522233967934488 0.6781577693651933 0.6363801712077749
