# total energy = -340864.1929251912 ev
CRYSTAL
PRIMVEC
9.33435501609845 0.00000000000000 0.00000000000000
0.00000000000000 9.33435501609845 0.00000000000000
0.00000000000000 0.00000000000000 13.66177209712699
PRIMCOORD
 96 1
Ni 8.482894005179661 5.31592463191813 2.443954487274789 0.25565918550435973 -0.4496910851152256 -0.2835235160147956
Ni 8.686718985754874 5.362615076726575 13.035967523340357 -1.1137298985805335 0.9909900616464353 0.3957681098445249
Ni 7.463573080843985 0.7470695193876542 1.48814918303089 1.0033131019881625 -1.5066924206554633 -0.15246436058172452
Ni -0.07013834512008378 5.360094800817283 6.263020982742141 1.3179341107387108 0.6373188809719604 1.6757835911605912
Ni 2.2074723315282796 9.049909412994339 10.25992281354677 -0.1580490537583536 -0.9188896441357595 0.354413458157138
Ni 2.7060575812280607 2.2593060060627255 3.3075699656278186 0.21616292718195032 0.10813622808831054 0.41578106263134207
Ni 7.731693100171811 7.494703155501355 7.806117781208736 0.21912303825153878 -0.8001501866103058 0.3427553050929194
Ni 2.376657519883552 2.7258837517144934 5.908976356746842 -1.2034935376989275 0.7212150055659837 1.4375533997659564
Ni 2.5038941158819368 1.1840629596064183 1.233201805788965 0.2817833933952373 0.01837747406592319 -0.6966488861908454
Ni 3.9664195603994994 8.69337438102645 6.2542224195121445 -0.4370363724656925 -0.970481143059806 -0.0629694017436851
Ni 3.5909917934671376 1.9117599581713118 10.62112595655998 0.26879597999663385 0.48338744892640617 0.05542372818594325
Ni 4.810114591278378 9.193947848388007 1.2990444806369883 -1.3068518847826203 0.044964994746464496 -0.7417830595253225
Ni 7.538210585179916 6.766128727545819 5.358912138010959 1.5452381421391452 0.24573189908831877 -0.1597143572759185
Ni 2.510978891493614 3.18034550429122 8.874113634272545 -0.12768638230609622 0.17940180840251685 -1.0593819199572725
Ni 5.532649691406832 1.7550361340342069 2.4319869104477383 -0.11777272273681005 -0.4227418102198913 0.5827667567576931
Ni 0.6958099076992138 0.4782503568538798 2.8574692238096904 0.05997458078141929 0.14676602464536662 -0.34944891506301107
Ni 4.087644831636461 6.225268183056464 5.849369964621034 -0.4329668303820092 0.44645072380105694 0.810121953111037
Ni 2.354824463024905 4.667933692573412 2.7702518089443022 1.2571236643195576 -0.10968788884614657 -0.9056124674108791
Ni 0.31427373871114456 1.3254317694072792 13.475739801107997 0.021786242637156027 1.192028217371805 2.279021728398759
Ni 6.134603590808477 0.36714446011048807 10.83146258333639 0.5560373111826489 1.183046068477853 0.2723608145297568
Ni 3.8352718695641017 4.778732489030078 12.484729042717849 0.5663155531802054 1.0371706739675557 -0.19935434026504378
Ni 8.810492535966787 8.69218891791356 12.442691773986375 -0.6843739254782343 -1.1688258111134129 -0.9433822299604849
Ni -0.13146505891286397 3.1915373961995215 12.267834097964151 -0.8318904551363802 1.0354066400885975 -0.9285443936167042
Ni 4.552766417873971 5.924664607564425 3.478710701401598 -2.5639328687897 0.18351094547488397 -0.003698789007825888
P 2.2610701991992297 1.6574641189237151 12.39722506314722 0.42509359828151955 1.0291406045742275 1.4349761259570835
P 6.968506883061994 0.044452066426785064 3.492987597709978 -1.2014399976040084 0.23814585921094472 0.3807356409914346
P 3.6189575217050627 7.4451937354165905 2.32155868789329 -0.1253497637531196 1.9520766508652185 -0.21532346199979047
P 7.6794487140077035 1.201695556616245 6.240861223450808 0.34821375710432934 1.0094876062299905 0.5691759054471359
P 4.025944743634897 4.327799122726362 10.471215278297665 0.24475205167355263 -0.9884837502848138 -1.7352303244629987
P 5.723695939686411 7.6336356985899005 6.894454642798331 1.2676248209611976 0.2142942494043277 -0.4430707515852304
P 8.022290246868439 5.151593308277051 8.09335736033287 0.3380620133823081 -0.5226757050030675 -0.18690711564062648
P 0.5220266159627657 7.244971815956144 4.432083472675269 -0.7558472509278724 -0.01610898974672064 -0.04900496914379302
Ni 0.32571765821037574 4.077535724933633 9.493907353369892 -2.5402568653289994 0.13668678603249362 -0.40297439778497696
Ni 7.814227469023526 2.7268358559468933 3.075237864211944 -0.03790783078936697 -0.7720878811564509 1.1651504191443545
Ni 4.191218837153157 7.4063534833478295 13.234036007051643 0.02147951003001462 0.5530532888536605 -0.7952069836724175
Ni 6.177270928517275 4.066521185774503 12.626415220596177 0.49004480634192377 -2.4817336722821257 0.9301194514133079
Ni 3.590711762810549 5.702068238642594 0.9787706183906841 -1.937928898609927 1.6543979263959636 1.4007470295708844
Ni 8.902678628115568 8.834556503722919 5.706905301517392 0.6105045889925937 -0.8051970050055939 0.10010153070929212
Ni 5.404274304071656 3.8158470763521115 3.2768720716171162 0.6847192246327949 -0.2817466266200309 0.5525814914235645
Ni 2.666703939622222 7.673782760389405 4.518152761848646 0.38653707816456007 0.9267685326632039 -2.2300630391118688
Ni 0.6638938803323533 1.205774669847211 11.205208299458178 -1.5124532343986405 -0.7024716635202096 -0.6086289692364356
Ni 6.324865753249609 0.43055180168171736 7.865956598779512 0.8094874048508317 -0.9902166738155206 -0.7485795136218656
Ni 6.513933118222633 2.6293011782572795 10.631468422143302 -0.3153553158134117 1.710118102776403 0.4256594980873185
Ni 2.0078384764466675 4.370765159802186 10.928557612895158 -0.891884062081193 0.003265815235465343 1.5175165078541608
Ni 4.355578163859895 3.6335471189132993 7.318679618512204 0.7604819214864065 0.7897580447427044 1.083454901746076
Ni 8.483752765859863 8.993408560850094 9.796228450222339 0.4333177859635247 -0.2352204580340336 -0.3501791083608163
Ni 6.151825476188641 5.174341131947219 1.2327472226897707 1.4209990949517013 0.7249834714694804 0.7257913120827565
Ni 5.684547653895403 5.430363826910441 9.792990362396658 0.8575536642304392 -0.3945794888530624 -0.6475968658592008
Ni 2.0184329696209153 0.09884055398483566 7.526325150678798 0.7757223925852448 2.762916970199519 -0.731226881276031
Ni 6.366571652370788 8.750108592051186 12.966224021446063 -0.07245188731282362 -0.2744300383539596 0.847394207198934
Ni 0.7917978827289394 3.249326389364073 2.011546082339893 -1.2359987094154845 -1.5538708781134785 -1.3711094092101097
Ni 1.1087720504051146 6.471051090343784 8.610250080924857 -0.6755730393571527 -0.8319513902813027 1.774856937715685
Ni 6.106983233713677 6.091058823709037 12.048385273622369 -1.6668724047138905 2.3492483259254895 2.0643135313854644
Ni 7.645994384900652 2.9880204493465556 0.8612053478353283 0.09431834836861176 1.2713480354490558 -1.3001500472824123
Ni 6.860825761248674 3.0997433469699627 7.377398313456626 0.8420321715560725 -0.029767975291051955 0.1014611300609801
Ni 5.336805584544378 1.9914753517467068 13.7953845278125 0.24720719808226457 0.16684145523900298 -0.21123592219397816
P 2.7263318007650343 4.925431215661332 7.120925702571819 -1.68123484408315 1.2425771339639502 -0.2606126728548931
P 5.649151778902675 3.3472997817490073 5.593771982820304 -0.3557054374956842 1.896388613274295 -0.8805002457242835
P 0.9864079878313619 5.134138064016396 0.8658137190072455 -0.5919157702468129 -2.489482205879293 -0.3761282241264103
P 4.689645402814205 8.08167541477554 11.175165677183895 -1.4611263019898901 -0.34870663758034787 1.3734401142258152
P 0.24779819457923236 8.81086591017557 0.7806573297743453 -0.3434392185338214 -1.1484120233437511 3.400062301708093
P 6.61650834773083 5.757841011079711 3.539587499272793 1.2861300788542365 -0.25227407108221067 0.41594972699872235
P 1.0839426655209754 7.403767866952 11.267260292651521 -0.6643594300295204 0.8211208753247021 -1.926985769334862
P 7.682529051230172 4.665021373744896 11.063467048884055 0.7672061275841174 -0.3199915290338425 -0.338175913252353
Ni 4.244984723218059 0.14739040235302567 3.699102295620559 -1.0371110243742139 -0.6500049610800611 -0.6674321554175732
Ni 5.618889799280728 7.699172206586721 4.675373173683434 -0.4428223830198503 1.4125607343763609 -0.21957838062140247
Ni 1.6977511960515141 6.416314431336042 12.941195814795746 1.3226865378220318 -1.6510621771545113 0.1287140522396622
Ni 0.37498811880151894 2.6403623891925068 7.348885592002832 -0.5735696636394574 0.21386538939702526 -0.4482708077289312
Ni 1.8422936866270394 7.220487802215129 6.652518423297009 0.1581395565896309 -0.4067711458232478 -1.0577580112006042
Ni 3.654568086867841 4.239757484295083 4.9056825203232215 1.3798329051260365 -0.9532966608607194 -0.8421075048786981
Ni 7.584406309161723 7.010259453959271 10.856163154118498 2.656370969416464 0.14707687101756603 -0.9577886351938022
Ni 4.3068621639687965 6.91171666590594 8.234045695638223 -1.8645488430558792 -1.2343382909939258 -0.4186257311689887
Ni 7.700675037777077 4.426033877057445 5.029868649035841 -1.5024022779205415 -1.6058207888182088 -1.1716188004775177
Ni 6.115720190199224 5.3734522631365325 6.775938201446098 0.554410059991871 0.05478763726384112 0.9452079703153142
Ni 5.885525656128637 7.930785562650686 9.517514871155786 1.0778095305348405 -0.7927819191706927 -1.5741044315515342
Ni 5.957194835504736 7.5079206024923115 2.3224603866075033 0.9372164674694052 0.15477886764751408 -0.6083901137527523
Ni 8.440665382166186 7.843005286165557 2.6688545750648176 0.42124182863559717 0.16074819785707153 0.0664146799798082
Ni 1.9175565927626843 8.766882428380809 13.186164766307918 0.44783166330898355 -0.26114540542991155 -0.843352947250025
Ni 1.7161025384132502 5.461251208332102 4.6903874840541615 -1.1773107086559724 -0.07102878171305187 1.3881085148712675
Ni 1.4148082206349613 6.902223626647605 1.7381185486342017 0.4714205063725171 2.5356689888480006 1.5316192658041299
Ni 3.9338613293935305 0.03178721326483009 8.760966314042626 0.61454404916929 -1.145378635834066 -0.08389432482181035
Ni 3.1179640083586246 6.4218590383364855 10.281385296503199 0.079544789603863 1.0983783558251277 1.1008918662756009
Ni 5.69819448122646 1.374707830611554 5.021152228131776 2.8484663141262487 -1.280810466413536 -1.9694457382712853
Ni 4.354962096415401 1.4622174107953159 6.676153010713039 -1.3810526364657505 0.9460142682666933 2.011247761908736
Ni 0.2402270990606138 1.7215257987958386 5.067342351500452 0.2345188039813187 0.7275190934071406 -0.2904726936391191
Ni 7.999925131762273 1.8902069319692527 8.988681643366887 -0.18362818777903858 -0.3487441756865026 0.3640435250477343
Ni 3.9580186407018583 0.4957214695184074 12.635377135042516 1.2483472036785082 -1.2451078708056043 -0.6624020491928334
Ni 2.40715285838599 3.421274546864347 0.057674180595350226 -0.6673269972982766 -0.20325238976786933 0.7238285319294308
P 0.7482801852596364 1.839773410717747 9.296343858275987 1.099882708284796 0.2906210462915253 -1.431639605384683
P 5.1710647732651385 1.6238137683570528 9.151242239822807 0.7396338743928037 2.139294612878045 0.04031258357611767
P 2.6202561880494857 0.9085585318643655 5.0011244355726 -0.08273115775164461 -1.755187484311216 -0.2904112442735644
P 7.4550601488837085 1.4185512970780212 13.005160417373586 -0.5201146291441107 0.4430707515852304 -1.4200935524182963
P 7.101344092192139 6.947047200412131 0.4402221936892243 0.3984001481507332 0.4663086390672485 -1.2694119947686073
P 0.3471418703104045 8.458848706133969 7.876134779710965 -1.8717487032384283 -1.4232876338755618 0.5646363657055695
P 0.21115618316468768 3.715381411123544 3.981887520433901 0.6489955459789404 0.3963975158984076 1.3680539102132374
P 4.572555250939526 4.004111686776249 0.745504148017327 0.3292238462653878 -4.479025743341718 -0.5961004977521218
