# total energy = -340886.96454238717 ev
CRYSTAL
PRIMVEC
9.15146369219108 0.00000000000000 0.00000000000000
0.00000000000000 9.15146369219108 0.00000000000000
0.00000000000000 0.00000000000000 13.39409215764879
PRIMCOORD
 96 1
Ni 5.598206548796781 3.2767364646313064 9.880633958543354 -0.9034195735246182 -0.5732786147615998 -0.0985311008983787
Ni 4.546218349133145 0.7549637200729957 6.330329130773855 0.5622318700291349 -0.015447702013637911 0.445265188133388
Ni 3.338316663456362 2.966163243123518 3.3422014597710055 -0.2501567676288918 -0.019130807292179957 -1.7481956263744152
Ni 5.056760202610956 4.5094386167690645 3.2916515200697187 1.116416187163445 1.4201406036061477 -0.43831806739159357
Ni 5.252171405688889 4.481435138034532 12.119643864445633 -1.456307540445008 2.2904646801283777 0.45689660172472923
Ni 5.855682978272621 5.599954478351778 5.536407629990759 0.14132891279019533 1.119427206075627 0.19894399220050255
Ni 3.6357666861062024 3.096361116311817 7.553330731454552 -0.7495459913001931 -1.614817335889864 -0.47755592984629364
Ni 5.499041288807435 7.950187612733799 12.86288272930468 -0.3591064927574331 0.9581125941921241 -0.3332759048475744
Ni 2.308694640925798 5.398924276599662 12.05880859476077 -0.06352321736462609 0.028239711571983624 -1.4330508839099125
Ni 8.345787082909085 7.603621684734862 9.773548106774685 -1.2022061863460713 -0.5407001666049461 0.5868571247769828
Ni 7.911312195196448 8.943551536327691 7.446753701064194 0.6372623167024122 0.6957276599281567 -0.030398924006831522
Ni 8.748076273004287 2.3454835247535173 1.8295798287297698 -0.3645171222500432 0.43578167412298496 -0.3178899093098073
Ni 1.311212558694475 1.1091390900875424 3.271158647543497 -0.27417164248625037 0.20480173653286018 -0.6065224644163941
Ni 2.078114363084202 6.659666513326507 0.5940370622785486 -1.7751220184516137 0.8092966289962643 1.7015488730501533
Ni 7.5407145236821895 3.962007213363507 4.601807999860283 0.9794807754552551 0.3992241867139254 -1.7779643729964152
Ni 7.708707941698469 4.538110152349224 -0.00066348111380837 -1.0107407619108013 -0.5086986739976852 -0.12890148566011994
Ni 4.324807837857563 0.6406738361279117 11.172681522085588 0.5547530451535865 0.37347381722269873 -0.20152589399506585
Ni 0.37969056578570687 0.06773089753665003 0.8355432725584313 0.8526461996264928 0.20847892827413125 -0.2146344063525658
Ni 3.433867095308406 4.598583024073992 9.817373550994228 -0.3948738801650296 0.21697359600870378 0.28364667185622117
Ni 0.20801917453301952 4.884639474493607 1.756903480242747 -0.8239912548939615 1.1511157954281594 0.5266616862340091
Ni 6.474559858305791 2.0897733277599517 7.584953614058204 -0.13648521154464882 -0.9384220577417322 0.8101435503775918
Ni 3.0869808660821123 4.343119916598674 0.6768065600127336 -0.45648728210145256 0.0329833969045561 1.417563844017907
Ni 0.353122951696092 0.3518417467866689 5.573415233799444 0.5775345618244763 -0.3405899220104844 -0.5678188771986091
Ni 7.093455041266238 0.6490959281146406 0.8714087737050021 -1.3287769669904859 0.4570344128541742 0.19671741686282895
P 0.17555252698187532 6.075354711456844 13.025941678126951 0.6725890170281642 -0.39327439688839366 0.03541257517133901
P 4.039291323792634 6.229172512296721 13.209682019626406 0.35305617279829515 0.2588314125847543 -0.5967471301971852
P 2.152506611003488 8.62669125930009 2.086089863645361 0.5847027974381415 -0.24935355500130602 -1.2122538003900605
P 6.106780837592264 7.846528984097835 6.382231656800946 1.3087737843956815 0.33970032031667946 0.4217149116172737
P 4.692870553943892 1.3730306955741376 13.181487275301823 -0.5154228800953962 0.5397907674167993 0.07937818211901168
P 4.13960051673682 6.417015454945418 8.453895153166203 -0.8174161727796052 0.7085656922330894 0.6431745684217891
P 4.664766409109332 1.3756114083202613 4.200520895033524 -0.049667285318140277 -0.5045921080284793 -0.38949898900636143
P 0.026973939075174765 6.03309325237316 4.149824531914017 0.3944033682865143 -1.6252051068820914 0.45442911402084313
Ni 2.5219695010265437 1.8571522735269181 5.170762730597784 0.11251121722755461 -0.3869065456888369 1.758820195967797
Ni 1.683045677799963 6.773428357819636 5.307006975812196 -0.3786923853091607 -0.3667123301291491 0.30743323275285767
Ni 6.6165173622698665 0.8865681732225685 10.032054075909885 0.6674547811253925 0.8601705330279961 -0.3668298295436198
Ni 8.63973209498529 2.5463856060146917 10.711108235392292 0.2729665664345557 -0.19070334945826511 -0.08504695036901483
Ni 3.566325380015473 4.622221254652848 5.176267335976483 -0.9233793044759968 -0.30329041422907765 1.1187900867122602
Ni 1.418934437186038 6.6158676083515155 9.909042847117085 2.0007687167542834 0.8060904633541408 -0.8069188727927071
Ni 1.3737994185197915 1.3114596482127208 12.166510340032328 0.3140790202041494 -0.5354342902203166 -0.8174349418326825
Ni 3.969191112319915 7.153726580790956 1.9839732566325237 0.7166767513759981 0.6798654960849194 0.5166935192777038
Ni 5.878460971269436 8.311954121836678 8.498591816724154 -0.8432313340704962 0.030784075260392143 0.869656103920928
Ni 6.749396614304315 1.0425713435793758 5.174513000396939 0.9501971959997894 0.4962285665551324 1.276007645708254
Ni 8.107693453420087 7.615061014283283 5.344577394634664 -0.1210598781285141 -0.48057029119258526 1.152514475547899
Ni 5.190710175891137 4.601401674874723 8.002300622424583 1.0409597086963427 0.744703318495911 -1.0778959196010598
Ni 1.0003830962048021 7.472060243464392 7.4086470064724965 -0.5248043213102962 0.6723522184270098 0.7502569013242886
Ni 6.269045439370694 2.469943430240329 12.075149448234098 1.206691732921251 -2.438531682973355 1.0494412638047927
Ni 0.23868115345460494 7.569184727062297 2.6833052292456423 1.7730512519655142 0.11853222661065395 0.0413677643135094
Ni 7.128450238220766 6.4337168760861125 7.808635518608921 -0.5368509680621851 -0.16409140329769156 -1.300975114286869
Ni 2.1465032508564774 5.7037137730877685 3.156505450491955 0.4826053193447431 -0.01816690071701387 -0.5597641252149327
Ni 1.4674829517895334 1.291308125280224 7.574385503848192 0.5972438673279457 0.7059930464099067 -0.4325703662745388
Ni 1.0635098923848039 3.881950209451843 4.437395549565841 -0.6997468083898788 -0.2226811879164423 -1.3420965669175273
Ni 0.9536648743290541 7.970650285430014 11.93193910889788 -0.04744919462089893 -0.5462180110993818 0.3510157453294987
Ni 2.3567489764928014 5.300921252492436 7.525658535703741 0.6173013001994531 1.8664131499581276 0.6133849958641823
Ni 6.316056508082881 2.363338030312691 2.896311951461773 0.713787602753661 -1.2254065357219348 0.8720168908436207
Ni 3.9049752919669034 7.35918609094422 6.292972856200533 0.5549854728793668 -0.9654196693764986 0.7792833704636257
Ni 7.98885254660746 7.403003298846489 0.8441904905506731 -0.2643307451364286 -0.19713882067096372 -0.09479888754945609
P 8.981484353110252 5.922296482098981 8.642122457287728 2.2295123088147215 -0.27984838115605354 -0.7869606845032253
P 8.577273355650917 1.7509769923903014 8.528367018819146 -0.9105860093660706 0.49740124670699504 -0.4653092512684567
P 1.6146750929549654 3.630651017932149 10.702562598646438 1.0215897888101633 -0.8254120465008882 0.4819656288782151
P 4.163339413415702 6.436965645677863 4.20879839389476 -0.24736506381636753 -0.6070449125787674 -0.7179021391426669
P 7.144355482024889 4.212967800728568 11.110064462430264 0.12086370295730799 1.1046706165917426 -0.1422059160785099
P 6.496257978593235 8.014504099186837 10.763157184837603 -2.6481670934494326 -0.5264086896829385 -0.3902448660334505
P 2.5187756402166244 9.02530156101252 6.311416716018042 -1.5565499676075387 -0.2067200366014956 -0.5096427830785094
P 7.086920896228181 4.15980694845115 2.1033678269952945 -0.23746708797636523 1.3977259833563733 -0.31038228807885254
Ni 2.607499080194171 1.7580602252466833 1.0029885179027502 -0.2990231543122915 -0.36008582595156696 -0.6884956609560917
Ni 0.8271870711099013 3.6157249807373706 8.393943914868844 -0.23243698175162553 -0.2710204984517784 1.0583933307917577
Ni 0.5055991479665303 0.1624329887093832 9.398781943572983 1.30761961618658 0.09476340632583036 1.0632923107552719
Ni 2.656926135306985 1.8992398548014655 9.903403715222895 -0.24458904373312718 -0.3167833065091899 -0.9188940150111335
Ni 5.247705491433186 3.5508228006114537 0.9963747551310357 0.3596775347695547 -1.0279830939310166 -0.3888294737431626
Ni 3.9041425087757786 7.445365424030198 10.751411281257285 0.6507937755299438 -1.640323964801401 -0.09297186164304633
Ni 7.298063465301102 6.45038169137225 12.065867118665327 0.06956479557301568 -0.8864459217847572 -1.0627726908063762
Ni 7.564746267197511 4.350514299218772 8.788801201343027 0.2982713637479315 -1.4118606229855426 0.943482245873459
Ni 3.0960499665481 8.740425649402303 13.179170124708495 0.17354740650426886 0.26067437933076393 0.14670277550759897
Ni 0.11042156026499024 5.025114441348206 10.955938257265764 -2.354277917929597 0.37144778793160543 0.2405732377055147
Ni 8.726460515889594 2.5372341423759557 6.3207795784668335 0.318267090143568 0.3217673899873426 0.22985276596421703
Ni 3.2462071819324825 3.026370722402763 12.159639421132365 0.4584482624825653 -0.7114296440444458 -0.5184141015132362
Ni 0.6603513132439222 3.5191953422759816 13.02604966539789 0.8301709013421122 -0.3788795616193023 -0.03339605896194248
Ni 3.6062898217258335 8.885247561485304 8.360645399272938 -2.2367327378225608 -0.9368068907358125 0.8415423764038475
Ni 5.591480223022309 8.3298909905686 4.372729477201805 -1.0851212337049054 -0.5567171108584928 -1.3237810564377912
Ni 3.033600378677365 8.28920358323078 4.114022175866553 -0.19140680328319296 1.5253061791019085 -0.4330195379968156
Ni 5.501109519589789 3.028704345630641 5.320695735123017 -1.785595921399744 0.7530174947885612 0.6484913526490121
Ni 5.60507929798947 5.939574445448915 10.040036897641953 1.4434437971084624 0.1608584981826907 -0.14837913476875736
Ni 7.756396218719924 9.09930944745898 3.4337096901338198 0.27431151049822433 0.3096222699843765 -1.7371545380689049
Ni 4.626494988172138 0.9078398353044468 1.865073780452608 0.4332393673171055 -1.0703247921220211 0.9440216633166968
Ni 5.970561301329676 6.106268355628494 0.8835857112227045 -0.28420357280095565 -1.0354783738667974 1.030067230153555
Ni 7.876307846778283 8.82596438003357 12.082890671326105 0.8783482323782873 0.718900241389878 0.41575689426162593
Ni 8.968617395234189 5.120921114182136 6.338218607576809 0.2587285684583028 0.49177335899725627 0.6600988549809536
Ni 7.2722014290580335 6.692703297062344 3.375378260900516 -1.3888811313712337 -1.6362351394440078 -1.1972467854582671
P 8.523847110927974 1.9117865114501729 4.044439937235787 -0.27915341197155796 0.06937813348350631 0.9578259161896407
P 1.5624934472868919 3.280808865950544 2.0232714717899842 0.7872890143769216 0.5521451752170942 0.4927467786541191
P 4.65493773716133 1.485493032230566 8.896623745934615 1.0166620124912424 0.6000414846777408 -0.1886104714849784
P 8.47819045883432 1.5919520087399834 12.892563671324194 0.3592404472321361 1.3658921266752282 -0.06693224304617505
P 6.062176603817063 8.227239022932897 1.9870005608042174 0.6513877003602008 -0.9656315282769887 0.07397115217082745
P 1.8003765931121989 3.6747153153526635 6.38990607420839 -0.19231183159596557 -1.60298023404562 0.08695136648057927
P 6.936855195480186 3.9737942985301995 6.722628583161012 0.04431450564665917 1.0939771414336386 -0.772158072272754
P 2.383022828599613 8.799599013290372 10.510786356925813 -1.2963990648804125 1.3005405978526117 0.3203473697113644
