# total energy = -340861.72269522 ev
CRYSTAL
PRIMVEC
9.26334474120444 0.00000000000000 0.00000000000000
0.00000000000000 9.26334474120444 0.00000000000000
0.00000000000000 0.00000000000000 13.55784138198881
PRIMCOORD
 96 1
Ni 6.675722157262654 7.1408347061985715 3.8457221117502645 1.3680767930313729 -0.3941089769745471 0.9821277261597988
Ni 3.5745210149032807 7.820050946501861 -0.027645526609128664 -0.2485590841244687 -0.40419001535963295 0.5979144110324088
Ni 2.2806169950791646 3.6287671628134333 12.156963775835013 0.5010794668895305 0.56210202931949 -0.8029112942952108
Ni 3.856580604677225 2.068699453115274 11.905547331089549 0.19075759973496825 -0.573033074409697 -1.4237357771565737
Ni 2.6674728060463377 4.533267951814622 3.2412731073805823 -0.27943289088518974 0.9530542058326104 1.0327751160030214
Ni 8.417592274557235 2.2285569965724954 7.02031858865911 1.955011565123827 -0.03173924008480985 2.785477371998538
Ni 4.130831194675169 0.7768204004928584 2.6602520286733933 1.0066899888801955 -0.6299560128489862 -1.2051326159642473
Ni 0.8773832730530716 4.1973420112726565 1.8038706112456453 -0.6738072057059814 -0.8879677577459225 -0.16217181767747554
Ni 3.1125209498638484 2.6922337270442602 1.8633088639890694 0.6828616025987659 1.1233735923178847 -1.4888685051001647
Ni -0.11771395569813112 1.6966557306911902 9.7530099746852 -0.36517429621806785 -0.7425695599823597 -2.3381488735782185
Ni 6.515299549764701 7.9088030542763095 6.256212129082695 -0.3417309775934631 -0.73027325911351 0.7967727854976407
Ni 7.13227537548324 6.749245325972162 13.442301980602346 0.9592351378323414 -0.22918119381848917 -0.260080711610823
Ni 7.111312425906622 8.427152046525006 10.303728799457332 1.327061784071592 -0.8917351952081546 1.0215319389890343
Ni 5.687842000546424 3.287885332733911 5.736132744001071 0.5231418460062087 0.001523121512745764 1.252696224675823
Ni 3.7672912228968363 2.784265058923933 7.272250075382683 -0.024000733789971567 -0.7732762450375973 -0.5233598755542858
Ni 0.21522548243839845 0.8960211230522563 5.308491351641547 -0.1001354692710211 -0.3504259342642997 -0.40636851106819044
Ni 5.509485557263967 0.44334739368835996 11.620385447098545 0.13326490483513823 -0.05271070013015438 -0.24907818985273233
Ni 0.45732763385673453 2.267259251690087 11.748330767271876 -1.3259168718338712 1.3868728426919534 1.8687353703334009
Ni 4.777218140546496 5.759336496716259 0.13761439961127653 -0.5472634216447607 1.2501611169587954 0.33079144786282383
Ni 1.0893323103897248 3.978819704373667 9.669804757854845 -0.981394190427884 0.6936643496412247 2.0098915049911583
Ni 5.004549888473927 7.882847161782414 2.6101558592918868 -0.6612651073749128 -0.7400444795676611 -2.612721093936997
Ni 3.3065787628026757 4.792234022678047 10.311782351539485 0.4338032102403755 0.27156762920450006 -0.7419823200203222
Ni 0.6954965690177873 4.62214048307316 13.232873499421151 -2.9867914070931145 -0.1188505291820211 -1.532469272509251
Ni 9.113686329323007 7.237025279951818 11.939496563923552 -1.2795210581781513 -2.5040001969898102 -2.989862332708954
P 3.3526175871048367 7.788499993670239 11.340971468636612 -1.1207628941679149 1.926869812582288 -2.460162116758937
P 4.5012538317365 1.2838440272301228 5.70722740248146 -0.21630639473835006 1.7114784734590396 1.6777049765530205
P 2.4544807160705653 9.192452551262901 1.3012248413223046 0.1433225461814564 0.1628331054105583 1.7036350661552209
P 0.6018209934130382 3.5047865542701486 3.6722631989323054 0.2712169307333006 -1.3735097911214862 1.6883606564946534
P 5.693983598235022 8.31580664046626 13.626037648285662 -0.1946613056647486 0.5733729742476189 0.0989098243940361
P 7.696088864648437 9.219872052255738 4.261744490564074 -0.1860591658180344 -0.03270880308693076 -0.4029592282763254
P 6.62791403407886 2.6049174377339646 8.180137543290286 -2.1070272682039066 -0.8208995033425152 0.14147777966323377
P 8.058174491272757 5.144157759914143 1.0761329701989502 2.7736135306814167 0.37812185751767136 -0.4577445515473213
Ni 1.4916949607697385 2.6152275406410688 8.011545591898555 0.9504694758245696 -2.1995844109070375 -0.3585747886236792
Ni 6.275388179422313 2.9122289057871225 11.060446815117572 -0.7413649981512974 1.3796169324604886 -0.6850115590622331
Ni 3.0720308691747644 1.886526511721652 4.217261908210155 -0.4413733092781495 1.6114196230622249 0.7781454002044405
Ni 5.5040572371349805 5.283960161597888 9.41202995314942 0.25646959722079704 0.23558144091787814 -0.48403536692305027
Ni 1.6197143877025082 7.8301016757509245 7.586940724007088 -2.6271012739180692 1.438256339370252 1.0825719849204902
Ni 8.646924904989548 0.0813673691962419 12.641873945555353 -2.290512245536862 2.4350277835851544 0.3032685598522067
Ni 8.718567614678262 7.689020932466838 5.4609761988689725 1.2612592837544858 -0.10023651362525964 -0.38464860289259567
Ni 8.224571956250568 3.1980772036374416 5.055977200521877 -0.3175906329018337 -0.13641476331802957 -0.18818675368399848
Ni 8.997153450103452 6.245097041501173 7.771815783116795 -0.01397497412285335 0.01591975655405 -0.5915010513068975
Ni 4.926580314198014 8.909049776474106 4.644008461449441 0.8775187944984565 -0.9097717409948912 0.07642578435890708
Ni 2.6002857652689584 0.4042060560210861 9.303648817468275 0.3432471571276734 0.6636480057847924 0.3642844374139468
Ni 8.142257873202478 3.8900583332542893 9.02366514329315 0.11648511427363811 -1.5235305752587247 1.8577163935150782
Ni 4.5465145350645395 2.3053686527321577 9.444310857561527 0.9832201878930293 -0.7952113545477917 -0.17704282125203702
Ni 5.337659772157169 7.182621655177856 11.623178345594944 0.8568754072164919 -0.7430357009855009 0.1856254207147255
Ni 1.539067706741821 6.279130570774038 0.8842261059528718 0.8425376504375812 0.026796551367553847 1.012902031228178
Ni 6.8601460914742685 0.9570332180992893 6.17369888411861 -1.636457282757143 -0.21435647010083084 -1.8777982518666176
Ni 1.592248569985022 3.007622831876389 5.574265981028529 -1.0828157255001802 0.5010876944196467 0.44726010707622965
Ni 2.285257930889101 6.291793563293365 12.193258487605295 -0.7738328888720156 -1.8547686237406638 -0.32152416362828495
Ni 7.36617483496605 4.4325198123558085 7.064733548595041 -1.2197465092226798 2.089196410670073 -1.8984249269780336
Ni 0.09155519595026942 6.526119136642955 2.8256712844265945 -1.086402414410174 -3.895718797809839 0.8407700170141972
Ni 6.22002116677563 4.4296018587028545 1.4609249079157165 -1.7882138186385654 0.10342853819999608 0.8279949767367158
Ni 3.563154890674156 4.319581110969099 5.504551899754243 -0.04854911255329703 0.8311368647998073 0.3816833496166846
Ni 4.247271440445423 0.7875695859496445 0.16921444817102743 1.2184678996205724 0.8714764449591186 1.4007215756495877
Ni 4.8135026626373545 3.5967715694251705 3.603186435789204 0.5126607439692268 0.08375497103046867 -1.4470191731645465
P 7.5386397908730185 1.3321245810053466 11.111546204754998 0.978764980335153 -1.7571723759517286 0.9188299945424175
P 9.307345818429845 7.997499581981177 9.69617472186711 -0.3819396886018648 -0.6575609190504482 0.5450990670035902
P 4.52350438625839 5.660450289588377 2.761108549267888 0.37684247658461556 0.31165215593021167 -1.2959902594777681
P -0.08472070006090637 2.0916818118866343 0.5383059425659159 -0.8145979866045198 0.1760588600722129 0.21685815347676202
P 2.2608212269637287 6.978327846091365 5.107428597266645 -1.4557629807954475 -1.0396972970441514 0.18299466796009775
P 0.3952011584146211 0.5636615703083456 7.908641872074527 -0.48009129467363776 -0.4656406664659465 -0.2914126889548852
P 6.657121360643189 6.532760954957775 7.965652202111794 0.7332647376416662 -0.24824669509037248 -0.16056667797388477
P 6.302224089684558 5.101324052957765 11.491802808794029 -0.14179402535207192 0.4316882207799017 0.7696908416791842
Ni 1.1244589143643313 1.5736107199858371 2.4675133160525995 0.32129559255724666 0.11108065542861513 0.04350049438579605
Ni 1.2566097931358866 6.1635796061170645 9.856876156047457 -0.08119209539929888 1.594444685770783 0.11412329890968088
Ni 2.624620572400101 7.207614159799029 2.6176128519605464 0.8804791626783611 0.2506992703959231 1.421946546466635
Ni 8.094653543607146 2.2004242180200486 2.7642265911713304 1.6333292786511224 -0.5409310516688297 -2.2446723043846117
Ni 1.0760301470702271 8.17341976554704 13.351138624142617 4.010337291188384 1.8616800061485164 0.2287117103812384
Ni 2.320227057999897 8.997449877141214 4.6773333448351595 0.3050493059017133 0.12107196231337213 -0.6331392956729741
Ni 4.029879261627895 8.90452926414826 7.472879305214861 3.270167598896768 0.2005478463525127 0.15060776698895997
Ni 8.424308199631493 4.4424130647410625 11.516640615554874 -0.29294635199059227 -0.3065755127382526 -0.07349884052009922
Ni 2.2264912706531033 0.5442493046730118 6.944746368051084 -0.7201274289287598 3.749214254355975 -3.1590825725927782
Ni 7.84162527684386 5.931486498895607 9.863587449449248 -0.4943593745568777 2.438879039010445 0.6036243169329928
Ni 2.288472311579815 5.930560164402605 7.055392391567617 -1.5250022747082446 -2.7238675696065413 -1.3485284385858
Ni 6.803639687401194 0.21744220088015037 1.6334213591954474 0.04922736956724426 -0.06529599299433271 0.13318520063713837
Ni 7.368648148062364 0.21133302489880731 8.262487753383601 0.6641791956979143 0.5044257576539442 0.1291717086023711
Ni 3.3837980061392576 7.174053061117595 8.91467447951561 0.6999380984650784 -0.4374181812851434 2.7592706316961837
Ni 7.068978939576466 2.108031615688106 13.31809812544625 0.2680269630410932 -0.3618436891829381 0.42503909089450026
Ni 7.781978598839512 4.452417477265475 3.205196084216156 0.4618565168331659 1.6786922801669542 -1.021303625028312
Ni 5.163749734441119 3.626210479612749 13.073460596520569 -0.5915079932854329 -0.8468373062541995 -0.09513235962947487
Ni 1.8702230246448304 1.5485348452602938 13.512816414878587 0.6146492072885866 -0.3465785354937515 0.13765352082113713
Ni 0.35293158916448214 5.352045746833478 4.930905369945837 0.6387101048925322 0.15624773888355672 1.0629806930521242
Ni 0.6390401870073346 8.523351883623185 3.01579310210466 -0.21427496613061806 3.3063702740695704 0.47990437547381226
Ni 4.552563499303838 6.70340103191353 6.96393075540114 1.1826334064204664 -0.6188717300103664 0.37070113957356804
Ni 4.329641103563093 6.570796249240405 4.730290035131054 0.23246372122450285 0.022900815857573465 -1.1695146096503215
Ni 1.5384285359416505 0.3105786498099729 11.456173205189724 0.8273077208617043 -1.528318226455355 -0.7562696831772717
Ni 6.391096620943097 1.848732064407202 3.990208060630624 -1.956577881169682 -1.6383095054745334 0.028754703535189184
P 3.8511800745830276 4.896372546381244 7.899042267723555 0.7568137286061998 -1.4806144926214886 1.3327027844074533
P 2.558193125906983 2.618377077917273 10.212281984642745 0.04262606220064272 -1.544043864720728 -0.23436196668848025
P 8.948215198838199 7.670383082467653 1.1587481119572647 -2.5854463173814444 0.7934267518435432 -0.36481254200327495
P 0.3017154813809372 4.153720919997229 7.275598774574883 0.6340983171521338 1.425833540225867 -0.6364634749502006
P 2.871803668512549 4.654163866496213 0.3599865526631794 1.0529467058548898 -0.5637521633284033 0.7619610771350942
P 5.823142416594183 2.362190010532853 1.7433346521280153 -0.6240489033359317 -1.3469209848893642 0.15635032589969203
P 7.053157146436004 5.282709610032337 4.981611993758231 -0.11581045680411668 0.02083416313653186 1.2126237821349697
P 5.351221309134707 -0.18907228069749477 9.258501126948383 -0.9401300415717745 0.7352162049410822 0.22181524037172118
