# total energy = -381179.5609380453 ev
CRYSTAL
PRIMVEC
9.11605908853713 0.00000000000000 0.00000000000000

0.00000000000000 9.11605908853713 0.00000000000000

0.00000000000000 0.00000000000000 13.34227394145961

PRIMCOORD
 96 1
Ni 5.189334839278277 0.3535809354682123 8.0121954487469 -0.7096810367844552 -0.9446263867802313 -1.9731069891729565
Ni 0.22949769787776686 8.713958789521252 5.541926682340908 -1.862262361014548 1.6284768356548276 0.08917228539129804
Ni 2.2037981562834807 8.074002329021903 6.384277885593301 1.7326394238073708 0.1823788887529698 0.7405844112315311
Ni 4.65924512230022 6.265622349553848 3.046935163824915 0.5078067583110352 -0.02736039429082385 -0.46500843219858623
Ni 0.6474489494223598 4.826233091751184 8.772492092995849 0.051006058734221836 1.001352635827682 -1.4433558653803464
Ni 7.027797813570449 5.2847617452839915 3.8274448457779595 0.2919017127761618 0.7083160381161285 -1.0738544025418344
Ni 5.13741888305908 5.9225212355552745 13.350012657629788 -0.9199139716352157 0.9473707822945877 0.5942660156465444
Ni 3.075411909046605 5.639440254260332 1.196222941003904 -0.8300004372025188 -0.32628147580761224 -0.1346918670896519
Ni 4.614549084838813 8.770533051908666 5.815243452800665 0.06238781820860223 0.7246001199881327 -0.5042321535858993
Ni 3.5338858662251877 3.5184250300973985 2.3305751893195406 -0.4465134587181923 -1.1420840242431944 0.07940235048872776
Ni 7.218505768637277 7.813109835424508 7.158677073173434 -0.4446427240580407 1.025102429949112 -0.8694979810765091
Ni 2.99754253274733 4.418544699471133 9.743662326508725 0.28213074943232697 -0.32531576946023333 -1.1846229260466694
Ni 7.859537924103062 6.12418669358531 0.4833717376221062 -1.9208588305015175 0.1537897642613674 -0.530962627602208
Ni 3.1977220731542353 7.167218820491676 12.465045701588371 -0.13976439651655284 0.15801717207915367 0.523826273667743
Ni 3.2891470292424385 2.211328021048548 11.338451219513743 -0.951825989852464 -0.43918118672283724 0.8351297880092843
Ni 1.5974252572786938 6.339936462828455 10.526560415929623 -0.14059743394080948 0.7915225928422949 0.2559921433637462
Ni 0.3946214332555382 4.367540349155698 4.175544294946857 -0.5371327609686619 0.1037776940092987 0.3032240797675165
Ni 2.5779759155412725 0.6083210008211248 2.515138920595018 -1.1495656773322203 1.0354328653408424 -0.2367101552056827
Ni 5.132906433835463 4.899526206413578 8.725967374091496 0.5422086328296727 0.7954226992276495 0.15085202178928214
Ni 6.9142117179618126 2.177553022314198 0.8884018870867889 -0.36063167115270794 0.5960092235898962 -0.6172421648267434
Ni 1.0481553520855034 3.810786159492629 10.650123126549023 -1.3918322435797577 -0.91803089567989 2.5298534106074886
Ni 7.701830102752387 2.695427220181856 11.295075187400979 0.661241710336145 -1.4990711566647796 0.5486001381783132
Ni 7.995686265829786 3.6842096797553965 2.3816223851124523 0.26483493846635675 -0.2320754846471487 0.013744603279602136
Ni 2.1262660741685973 8.836989122292852 11.252020040566341 0.40250517145804227 0.18120338038762984 -0.2741485025577989
P 6.18917507846444 2.4422013322350904 3.135007233399085 0.3358092127923894 -0.11813576250318364 -0.07738917671344091
Ni 2.738865241496073 6.081724090588116 7.973569794998637 -0.3604349817608696 0.7779654229831505 0.6846356637800532
P 6.5486030541993765 6.947211851677967 2.144757088320488 0.6803228953373122 -0.23066317768065434 0.03990660638695062
Ni 6.5169338651027156 3.1615222027158807 7.371766776389404 1.0896977973319941 0.1601280477745694 1.5968008447077855
P 8.210588241582434 5.932594480791834 5.5976039245190226 0.4764760665185536 0.8576459668339294 -0.0721793503777273
P 4.356892792199768 6.040309834380249 10.632604795896444 0.07065725730624606 0.1712367560932212 0.17799052987728703
P 1.8046606273807102 7.598025538491108 2.3776331976775937 -1.270610900172715 -0.9375833638905209 -0.5780451829123078
Ni 0.9840421088739835 6.597693032116914 -0.08742938741201818 0.7839226690078499 -0.4578412250261857 -0.5032636190250429
Ni 7.275453789445234 0.6736184201016304 8.836855116225 0.8694162199959801 -0.2654612591964461 -1.074313087345808
Ni 0.24835973563248828 3.826292575915606 13.411253430638556 -0.2718977588504092 2.6767377059982738 -1.3703013114865175
Ni 4.871011173743929 0.9437126636915913 10.135151481878939 0.030361128790360615 0.049065647178399376 0.07840373402088434
Ni 8.817426059598139 2.637759030709927 8.655052639232014 -1.850590323993258 -0.13698400555793827 0.7914883971702498
Ni 6.4709889275531545 6.578740745377719 11.612954900860196 1.6523937514817413 -1.210142924694645 -0.21959509279195086
Ni 3.7829912954869522 7.943925282614229 9.318684416657941 -0.4696179059461396 -0.7720261746805801 0.6286848594460464
Ni 4.640292835561027 3.322429760788757 13.459018845177928 -0.3639720483798506 0.4132171585589077 -0.7238159335239405
Ni -0.15938608781949876 8.24173781531395 11.992676135618758 1.6778188764230653 -0.6073004802329993 0.8040518356575571
Ni 5.155796858078905 2.087650448085276 5.929479523418682 0.693984966205437 -0.5423256180235112 0.524373918641097
Ni 4.834793071187501 3.800749378492219 4.27929416285391 0.3813426784478142 0.5213004219220957 0.10708233290249945
Ni 5.680307546925944 1.463692671196937 12.206192470397689 0.351996106964897 0.1778527187478421 1.2577232455767693
Ni 4.090539779238843 1.381967201924752 4.026738305246409 0.3272914051293654 0.07485484032736141 0.37839979376940636
Ni 3.7100354750089495 7.999815840573824 1.4080637441317219 0.4294359344106152 -0.2932050049686176 -1.1622167904373275
Ni 8.219640488206782 7.610833601438952 3.8410943209749755 -0.5124139180657433 -0.5250056386878248 -1.5874286594642661
Ni 8.527817980032268 7.162323496788479 9.773629547383065 0.09084838754214031 0.2320402605338391 0.3924220761904274
Ni 6.707176901158625 4.32288077593044 12.967649588962127 1.013867480465241 -1.3353643904000163 -1.3845691342594413
Ni 6.873791112189045 0.4339581396087344 4.591490013503175 -0.8820521635924359 0.6715320365185596 2.05749522291205
Ni 2.4398129247672364 3.1632633699920647 4.759882767651834 1.0657240601252163 -0.32549600379183946 0.17983118263045159
Ni 4.3832108546413515 2.5618951873989255 8.443564627588954 0.04749727425001497 -0.09702726265934258 1.3292163685207496
Ni 1.8682724873451613 5.056887617520823 6.06876014303073 -0.45681561197514875 0.7204663003254173 -0.23406063339797756
Ni 8.482365309670739 8.288594358767273 1.2819713271293867 1.483646080358961 -1.0562464596520842 -0.7454502239642645
Ni 1.1884241524972277 6.888176253350395 4.611877167934889 -0.264429475497822 -1.1316497162837478 -0.5951250212127299
Ni 0.21414169642891073 1.990263589386475 1.226985082226323 -0.0393659033921322 -2.332080041676319 -0.5306291555221894
Ni 0.7393524986100375 0.5650233668160863 7.692501639539199 -0.6905245184606624 -0.12451646921854684 0.07368807371276986
P 1.9950221722041084 0.8545329929443518 4.851583940328877 1.102929722641236 -1.2358976650612457 -0.11807457024794503
Ni 5.455633155884977 8.751890711176753 2.824319178914641 -0.0562002013406516 -0.6190398801571144 1.3852664174367821
P 4.0168364419197555 5.54178902984944 5.461619671854975 -0.4194204591561422 1.8146110776851716 -1.134327777336543
Ni 7.671920313049984 0.6673730080549628 2.5877073085639224 0.2335988632702106 1.7463125504190893 0.008252469816779337
P 7.527932160550915 1.0899342506548757 6.495432728256605 0.53641696584856 0.38922285252683936 1.076660761642378
P 6.300965310442667 2.446221514270677 9.564008504630905 0.4218380674586993 1.5803918072221428 0.25683649364191247
P 1.6497514361545822 8.024246878794623 8.813025737900684 -0.44106169157500175 -0.3585184814644471 0.42180310045570585
Ni 4.820799920564767 7.018225951580957 7.281185967368084 -0.1847759282302366 -0.4863413893484075 -0.8593331247283652
Ni 2.399456131407731 2.6684436854305265 0.3355311385737421 0.057008299064243755 -0.4285247354502556 0.11482135341796999
Ni 0.2548531044849788 5.87319424010276 2.0788333957840983 1.76945196465003 -0.03067788869983104 1.8829911089214668
Ni 8.82024292184076 4.12573688318306 6.684212636836978 -0.26895435995136907 0.7232878289346125 0.032630898661143805
Ni 2.778219268361441 4.954067587635606 12.12727292409728 0.5152009938925772 -1.5923600353276124 0.44858988163124675
Ni 4.760132547669464 1.4040736450909592 1.6730940169262896 -0.6968792570340966 0.696800067056729 -1.3787990645448835
Ni 4.970093619423726 8.252057194144527 11.482280752585556 -1.027875878929191 -0.04973799065507563 0.5832565519099181
Ni 1.0363044753366089 1.8134393922339298 11.897999481271839 -1.0229879547092704 -0.18867320640211377 1.318741951351987
Ni 2.686684919564786 0.9472132303620341 9.152306311556597 -0.7403980062523378 0.6262114582048893 0.03758541445294172
Ni 7.454010037814926 5.753901491536579 8.16716571756858 -0.3041134243510053 -1.3539400965196746 -0.9959396923422267
Ni 2.6811332396108813 5.319712715634193 3.5974904333424087 -1.0005941603951025 0.13672920923465487 0.7945878620311799
Ni 6.098433826804059 5.292601556056336 6.060554778290976 0.14235195473807097 -0.5300951373955903 0.8918341826798641
Ni 6.039945192018744 7.259373061302888 9.333974782481729 0.2953914710969751 0.4791063050525491 0.1078616342706852
Ni 1.6034600883615924 9.207037306806606 0.4777453059840926 0.1259999957426088 -0.7225897744263233 -1.1222873012322414
Ni 0.1720838464529875 0.6981041546766541 10.13110850969576 0.17578915135059406 -0.5680543902481829 -0.46601141954180386
Ni 3.0297404532681727 1.5683997253029396 6.679035626909518 -1.0444962610946913 -0.09592863027852512 0.21552966447332556
Ni 3.2540866661837855 8.029652701803926 3.948659259589269 0.31369541161248554 -0.33794091442341156 1.1136419668524178
Ni 3.817212981114145 4.097285662926676 6.932285216609781 -0.011744542130437838 -0.940383295233161 -0.35452632958591845
Ni 7.224814081491304 3.3095123051324618 5.081218379092207 0.27798098893001155 -1.449647611926329 -0.7977408058378649
Ni 0.2710532530007177 6.836962233677095 7.469298580426904 1.0736152899478348 0.10133566022670934 -1.062750322208873
Ni 0.42395144160314857 2.073192378451625 5.703328330813623 -1.1831507123765173 0.46031976847366535 1.4607246956760973
Ni 7.161521283593169 4.594949557907948 10.171922929218953 0.5865961578061123 0.7147741350366464 0.13000063226156966
Ni 5.666651690487602 4.503360512757069 1.838751953363665 0.7677756269343423 -0.6157349841535976 0.4000708509849368
Ni 6.066317950814554 8.46331274628213 0.5464302528029745 0.2557707713815595 -0.07420255145534317 -1.2464049923504728
Ni 0.8275230216218135 1.9563791979436742 3.423467601132121 -0.9829350525524426 0.7129964743109334 -0.7701829508242543
P 8.68984681336677 5.542053395561531 11.81104777535339 0.07032867032223372 -0.17647820699781863 -0.9643958560976745
Ni 4.889325336350491 3.7639934284525705 10.977369590669383 1.766746135683093 0.5678592435182414 0.2636092935893718
P 7.905136451409193 0.6563124936246291 13.057936860882435 -0.1225968835983308 0.41832054122374407 -0.31952178848627555
Ni 6.040300718321211 7.294460772538654 4.587300272769489 -0.602341336455511 -0.026450737992360897 1.7745270651800924
P 1.6668713950272163 2.7604338371790615 8.218400704177666 1.9843018294475119 0.2540193359080915 -0.4677019198703493
P 3.8102300798913347 0.41501952695809713 12.961352215378945 -0.47682573654848853 0.17164016217922698 -0.07478850586580023
P 1.3835442801382587 3.8709703812589384 2.077378472761696 -0.41472665322489866 -0.014631119649613512 0.18403699318168304
Ni 7.11182964577915 8.85958783264709 11.012819209448942 -0.583934037592917 1.118175593056713 -0.3721003339139398
