# total energy = -381161.7415727089 ev
CRYSTAL
PRIMVEC
9.33293932785225 0.00000000000000 0.00000000000000
0.00000000000000 9.33293932785225 0.00000000000000
0.00000000000000 0.00000000000000 13.65970009428434
PRIMCOORD
 96 1
Ni 5.275649174332766 9.278985420215308 10.547842361301475 0.5180914280664949 0.14603094625155497 -0.1489440061332919
Ni 4.905672800889716 7.173530347552191 2.3281725991576327 0.4237221718552896 0.12135118411668776 -0.04227150707470139
Ni 7.64094260563137 6.339585570573137 12.366262890671091 0.13619441977710736 0.7415596306606067 1.3212544333611955
Ni 0.6902287137285924 5.752665026788437 3.7614581953307513 0.30496883037276507 -1.440325563194455 0.22225335635040436
Ni 9.246422795550993 2.295548377094984 2.891868123888979 0.26139428821592403 -0.9797772236497513 -0.24004924688124465
Ni 8.6901236250892 5.835690853390258 6.016742406381943 0.08018627984260383 0.5381100372802669 -0.13981067637345598
Ni 3.1712673896709083 5.751041095377834 3.8211507407851784 0.5739221618828696 -0.9884606103563621 -0.1380921510204525
Ni 8.848662262284021 3.426523275187971 6.216666095611436 -0.26535352997398814 0.3795295364984754 0.6838573908531319
Ni 6.707798018518463 4.486250515875573 0.3244633624261388 -0.15908880787677762 0.4905657118424004 0.19114069410599985
Ni 9.33405909408866 1.3058835105418085 8.14512851051546 -0.7297418120900722 0.20544528365413006 1.3561808129247355
Ni 6.466868194583436 6.813288229633613 5.527930652145467 -0.7491824373131872 -0.8749908858702803 0.7516023596085895
Ni 1.8042904595095492 0.9946113242981128 1.1981757930866637 -0.4105460394846478 0.23892850301324012 -0.10316525723628038
Ni 8.067495256149536 4.0866047289020395 3.9697684636727 0.16217541722190135 1.0692241028586746 0.5184981765866102
Ni 6.13299162973929 3.6340505099359564 5.72297694737967 0.38405184984886115 0.37709161648094414 -0.29153507346536245
Ni 4.767489303962271 1.727611031523875 4.23217151398424 -0.8676244182028799 -0.27844301616809464 -2.3449903219800845
Ni 1.682663596618933 2.65953300360926 7.153298402081481 -0.24085580194294004 -0.32211937401012264 -1.2906086834508805
Ni 1.6763358638810693 5.646820163985914 0.39556169280526077 0.152257386777241 0.23899689435733035 0.28467331334852264
Ni 3.5375385862748248 0.9561129503398721 13.12242321967013 -0.775899027372425 0.48291976526136826 0.33666359037288474
Ni 2.646074905367373 2.926081745487407 9.177119189368762 -1.0775992142962474 1.1874724796803224 0.6078650944872177
Ni 6.083247064115673 0.008189654096571212 2.8999401829523688 -1.8521193590432747 1.058979028091899 -3.334744968557521
Ni 3.6164952514109987 4.985758751661998 12.36808001392192 -0.6149682811909022 0.7647052155391346 -1.2835402066398733
Ni 7.310173909521307 8.868690749681448 12.42920703212238 0.31962437550241085 -0.01280460796383601 -0.2834921485562279
Ni 9.353751595676998 0.9969072273268952 5.866471819972482 0.6340263262636178 1.286900638471674 -0.5561000460997843
Ni 8.442595413181209 7.188089732612762 3.569265912885986 -1.350005537351959 1.3748102551004646 0.17220580487470988
P 5.902496031764339 4.029505807235005 9.926121154046353 2.168736315177929 2.2957428978081817 1.005873663626487
Ni 3.849837395824074 5.656349094849275 0.9682859028619893 -0.1900261208855824 -0.028309902688286724 1.0178709451976793
P 5.141656167079805 3.204884636458201 13.568139194127317 -0.8823457835734546 0.3530572012395597 -1.4783434371991249
Ni 4.364828977646067 3.1240987152503146 11.213998625102676 -0.7482558117338597 0.41026038992342895 0.2710194700105139
P 1.647469083116745 9.368870957086052 7.0008420413251065 -0.40450600393815495 0.03694443843483315 -0.7142290611664538
P 4.174987662571019 6.886122486693034 11.69945052124825 -0.350076521344681 1.366473453099995 -0.975473711178391
P 3.495447030747149 1.3572706734543114 10.20583120670169 0.17757169717231353 -2.552608702026133 1.0187983421079552
Ni 7.332806286939182 1.4895370869661144 0.7969228739929822 -0.8961402662543857 0.6748194490205798 0.12353353647998724
Ni 2.8864447529539166 -0.4903031579112702 5.193977557200361 1.6294769947845678 1.5652312974316203 0.19695755789809305
Ni 1.110153110868542 9.453147397532819 3.9122607592712724 -2.3532299362810565 -2.3158589518317663 -2.299746876761252
Ni 0.45040297649399247 8.204670795649712 1.6536838872909976 1.1667961822778936 0.11299895549725056 0.9989550821297828
Ni 6.9471879074951595 5.70802557887516 2.397687129764461 -0.6536687830848935 0.5842716234379937 -0.30987603786639534
Ni 2.556469356670872 8.764591146498365 11.722016634798221 1.3931018543208007 -0.7522546484806076 -0.553822305809201
Ni 1.5308073438493486 2.728792744977528 12.560818273306456 -0.3988657749332421 -1.055940241265575 -0.04134205328189654
Ni 9.031606535333582 7.6844994326042455 10.340406589357075 -0.6147443381055542 -0.6442909414144194 -0.51417075285585
Ni 3.680957862060591 6.8018087144897015 5.858344696568158 3.877129464843426 -1.2982080930646933 0.19467159007739376
Ni 7.165112036446656 1.9904359306846064 7.072514347461424 -0.0699985406763246 -0.8942607898434857 0.49852173346468337
Ni 8.723806202450483 5.336406608143226 0.9858178290390935 1.043214051948158 0.5388649131684203 0.8977739452030667
Ni 3.992874021105043 3.806308567668623 4.922395561243262 -0.7254832939240344 1.0412088485926714 -1.6228003540953404
Ni 4.733853391296695 1.8617813646205221 1.403889637759477 -0.21479072942477204 -1.2865399126981456 0.8948747692784007
Ni 4.620756834781311 4.110067737903499 2.500066672263785 -0.6129808184472282 0.8140961072674366 0.6626553028542201
Ni -0.1709813116581241 4.542565470654731 12.538238160347774 0.7915799284427916 -0.8830273830215115 0.38171677395778136
Ni 5.587313344020401 1.4871291886676354 12.214886350973373 1.9076258767510113 -0.3973243985880512 1.803252715249559
Ni 6.569483860443038 3.1285318613424757 2.398383367024408 1.333358415713581 -0.37433667944362625 -0.0841897445750421
Ni 2.0249584725686147 1.8691823853596459 4.6651424267499415 1.6874466293208166 0.7223020679825753 1.7081136707518645
Ni 6.996223169744032 4.381012294117241 7.891440558774152 0.9401269562479809 -1.8863661960412867 0.710972501902369
Ni 1.5681670992323395 9.000947830254109 9.106703096840876 0.8043184590553825 -0.7850837791954867 0.6437538379640267
Ni 3.1693168053903573 7.9299930637794125 14.091073107158634 0.01564439140547628 0.5321648754404255 -0.8326412172594756
Ni 2.4856323485877083 7.279664531468098 7.67807650388714 -0.6542606510326217 -0.08611267262936782 0.4787517499266077
Ni 6.616493874898228 1.88007392533765 10.077033846668742 0.011220551306167772 0.42237774201225314 -0.23131315255982746
Ni 7.159558937657528 3.6544709807773215 11.847044420711962 -1.7047193003583352 -1.0398891013399834 -0.13515389432773497
Ni 2.9632641750267115 3.6264908292314293 0.3163409054913856 0.6438212008668525 -1.8968843219637912 2.1269404621880663
P 5.47445011098355 5.658859655478309 7.4029153257693165 -1.5836828192685886 1.1209043048417857 -0.6123971780296162
Ni 8.716190524111108 1.684166199820697 12.573029490879053 -0.898574072506859 -0.6618446340274666 -0.19060487620718786
P 0.9581848628292611 3.5946561738201424 4.665743468030647 -0.7180242665428279 1.801421832688407 -0.8664846481714819
Ni -0.06608467547236631 7.814731265383224 7.536220495407556 2.7743727774449445 -0.07921620261985067 0.3379033763172568
P 5.735119101202621 0.3913618701916345 7.018873279746276 -1.1884782952370176 0.09555119233444835 0.37310923479442837
P 9.03180252705555 7.823410898784719 13.472466301694995 -3.8479482152937794 1.121570991891507 0.8604199300346408
P 8.066608626931103 9.38408364788652 3.52399742487458 2.555220428617367 -0.2904698654256417 0.540221941416947
Ni 8.106628269969391 8.530091717631757 5.836079103658539 -1.4170383105317403 -0.6461994712910419 -1.8869359525018277
Ni 4.188184438516947 5.427010781327856 9.593821855917103 0.26879572288631776 -0.5446730352097652 -0.0844864498798545
Ni 7.727916265489999 6.454026070324882 8.482140942911114 -1.7499540038264185 1.2814997791710767 -0.33283496065541385
Ni 7.4208625677382125 -0.40724186614071245 8.192650903329513 -0.12307382323474933 1.1541736084178769 1.2710145633690368
Ni 7.059127179557012 1.7752650187798211 4.260637911659399 1.4330753093899449 0.7627329223041122 1.137180673404306
Ni 1.8684450831674757 6.201551400671953 9.896042957781477 0.41676013871515966 1.1897610186041832 0.9458633445111257
Ni 1.5842664192512403 7.0100359196732915 5.3157266815937305 -2.4302074793783763 2.3387571965861786 0.24512717562478428
Ni 3.7584305898732837 3.89340355573609 7.1484900718358375 1.2102285424299157 2.3228217563028446 1.8740069031449855
Ni 3.876977582847241 1.9275599196890507 6.244941168034198 0.6922903521118335 -1.2330414265593734 0.010006219283092444
Ni 2.3678693225016283 7.36819679216334 2.577080219470721 0.3103964291462396 1.05415872388512 0.29909668786270427
Ni 8.04873604847534 5.229927105479088 10.44635131460841 0.5654802017631035 -0.5127494470282912 -1.5576671119311174
Ni 0.4789627035605652 5.550765554342711 8.261154676627328 0.10583997585496611 -0.3643605420675209 -0.8822948757308612
Ni 5.400953215245091 7.7746276258926645 8.17237975951441 0.3589694529589367 -0.9426718341570216 -1.7928706006842865
Ni 1.318520310139253 4.288401539017211 2.2543145186744016 0.09778496676097352 -1.2406284948780117 -0.83276180199774
Ni 8.842866507077217 2.4095315628288008 10.444916841862378 0.9264088353309399 1.073985014582428 -0.7031491492032085
Ni 3.5893923961443974 0.630534301686337 8.003013046327746 0.1559435773795766 -1.323942264606004 1.2489074470573525
Ni 2.078482878544496 5.040776427900503 6.120801877926718 -1.122202454827919 -1.4990017368794248 -0.09499557694129446
Ni 2.8257899814740117 2.5617144684683333 2.7117778636288565 0.14540128308735603 -0.11957815137666503 -0.4027874785851515
Ni 4.856954858571652 2.6257570968565638 8.907066862136936 0.0757459846830631 -1.1111557100954539 -3.0096819385380424
Ni 1.0345563038232695 6.994300584280905 12.423783661187317 2.2495689703552806 -1.1936462125912024 -3.4449519631319316
Ni 7.551402387508857 8.66832187925491 1.4108417441258996 0.9912505143966734 -1.9617542831642987 -0.8821120702960936
Ni 1.3018143490761618 4.11296094903733 10.7527517066203 0.14552855269383969 0.5333581244175782 -0.323087908570979
Ni 5.453553660245975 6.7631330146877735 -0.20107910709519822 0.6513905285736782 -0.16863068592894181 -0.6744047300806643
Ni 3.812477640441083 7.868983640612135 9.64432145631726 -2.376622089952752 -0.7457746971832189 1.3277706372131584
Ni 6.057413488572299 6.880233402094817 10.51758683919291 0.3677065757216183 0.10644675620102957 0.1772953035824753
P 0.403993070025594 3.5196846736973426 8.804331734656325 0.20178917495878151 -0.7727432553522627 -0.33053716576017267
Ni 5.526331919670547 8.993864129445793 0.35014761094324875 -1.3406811746272393 0.8771884077422313 0.3753604927224503
P 3.974236141639684 8.936317226699972 3.16328586011719 -0.9674572686318176 0.5257741414227333 0.5824515395101194
Ni 0.6450824872199383 0.3900823242353497 11.000702700671395 -0.20875737874649855 1.144694208172532 1.0583287961024095
P 9.184517410226142 2.6864865318495994 0.674821897793983 1.2730951000471495 1.2013242979617504 0.8449827695439641
P 5.957383046854864 5.200117697861483 4.163312155705138 -0.9397981121536525 -0.7175959207561577 0.194286181713517
P 7.892306655526472 9.631313205741987 10.338138685145717 0.7112512094850525 -1.3845634778324865 0.19397019313499494
Ni 5.830529738045068 9.112607114141719 4.9781953377818144 -0.7465018051572304 -1.2911005354856346 2.916988013146731
