# total energy = -340868.96316636266 ev
CRYSTAL
PRIMVEC
9.31921675276372 0.00000000000000 0.00000000000000

0.00000000000000 9.31921675276372 0.00000000000000

0.00000000000000 0.00000000000000 13.63961571853532

PRIMCOORD
 96 1
Ni 7.1146440200877175 1.3518641865376946 1.1622330411423214 0.5852121329743922 0.34732569807242114 0.0373082495321551
Ni 8.089639090636496 2.5572675662781132 11.493912539726486 -1.9518822754662255 2.1085799574030073 0.9793676469161585
Ni 8.794293009213893 4.3095412097292565 8.144869427330567 -0.5571405715491566 -0.7026115315321835 -0.8700024315167533
Ni 8.688137813857075 8.887597004992356 8.76568953795512 -0.42976554983589205 -0.46147702200656004 0.5079412270063703
Ni 4.58886608642401 2.0072474073842974 0.9837159933663444 -0.918734606615134 -0.14521950609385315 -0.5269247100874086
Ni 2.5022003158731057 1.9592348038834344 4.209649459794202 0.5952458630613103 -1.2314923369046984 -1.0760601519439017
Ni 4.604168239946606 4.524871026594734 12.669525180023735 0.6346279644033587 -0.015124257235948147 -0.07054952808378817
Ni 3.9497448984013594 8.561415107644974 7.205468172350734 1.2747771157352625 0.44500216427998845 -1.4861223098135954
Ni 5.037092443291442 5.357254126768179 4.82064898005206 -1.308507160997856 -0.5347089820185178 0.6656596368981825
Ni 5.087444170138329 2.981096214301357 3.1288458687430762 -0.8910931907487816 0.8693714828009735 0.6773165044108206
Ni 2.5559069606664817 3.9504717972897656 6.341943978260658 1.1689353401080838 1.2726634118263696 -0.2486452160803718
Ni 6.123098021002928 4.682477616347567 8.824886133199266 1.1229323910154079 0.45828859697624946 -0.5848969157268186
Ni 6.023494234858282 7.261477595545714 10.101117422319975 1.6888049431209238 -4.619041593747445 0.26417005118884823
Ni 6.146181720318076 7.704569064111715 4.1899122911306765 -1.3823718694978064 0.13570128219077277 0.3655579048097317
Ni 0.07934194559115842 2.0222886228443895 2.7264094822369573 -1.0432032533148807 0.14280703999761857 -0.27128635051865535
Ni -0.2072808095588601 0.8268819666628554 10.7836568401001 2.525160118896877 -1.145760444653517 -0.6131109162671893
Ni 5.793262990780481 8.509861201867263 12.980194309555213 -0.5646085977914277 2.536929600727979 0.8524204567689319
Ni 7.848755982078592 4.470828890006708 3.1625767729300662 1.866667946281411 0.4739980372917063 0.5202215870356202
Ni 0.8267589530048176 2.4237604704408917 6.324089291333774 0.2989570769610464 -2.0838613716104044 1.4777292006538938
Ni 5.8001592110038205 9.12644852434933 2.2805297040887638 0.19386709189822743 -2.3541547620881715 -2.850240889528169
Ni 6.434294618189326 3.6427419486480725 1.0309178250301394 -0.24605894341043424 0.8217255987882365 0.4367810619217768
Ni 8.864764924523197 9.084055408408835 1.4628896044468331 -0.48544458856575107 0.025652924681413884 0.07638464670832651
Ni 2.314529933633125 4.859598645489144 0.03414281355708698 -0.47260989869492803 0.12081639465914032 -0.5582931970963612
Ni 5.485272204076284 0.7297897093698155 4.228089393518417 -1.1003779027536598 1.730061892888182 3.35245395580151
P 2.871809762194482 5.329930183937331 8.214976961274015 -0.8796522959016915 -0.2387261571944469 0.4368332553159509
P 0.720531067759158 5.59021590128576 11.684880992692197 -0.001075235342049761 -0.24487263641181695 0.07957358595926942
P 7.021582323938723 5.724039850484594 4.741785110268276 2.086131912812136 0.8860036920410161 0.3196529147475011
P 4.6562812987154 3.2188946621917927 5.452449923499802 -1.0448420744698845 0.19473843875958718 -1.3987179149559976
P 1.1368791806833836 8.346290313542893 10.177894719525373 -1.8477423130215016 0.4691530504945791 1.6446002235792516
P 1.550000048927417 8.11814657396513 0.9846674853728348 0.7248448890090872 -0.6804830750642603 0.4607301165382065
P 7.508884155666233 6.345146992977902 8.688107992364216 1.3711227789465483 0.20745434366435883 -0.5665986316382629
P 6.8769108067129086 7.347941286399947 0.9941740181428717 -0.13310266822566108 0.8335323616151773 0.7025241140246997
Ni 7.1769988978098205 1.2317674432699106 7.714961854372616 1.0497773069879728 1.4572421364441355 -0.6537454019590999
Ni 1.1131897322945647 6.03661569171566 2.1645110499692675 0.925374994749787 0.10525762098893486 -0.38305734714607576
Ni 3.8593484981765203 8.980490955244026 0.7520449303365102 -1.3420757409819208 0.14541542415474312 -0.4682135693994452
Ni 8.304018347417134 7.511754474353785 10.738414839670048 2.501328563694918 -1.269727212016181 -0.48757114799045065
Ni 6.304384739928063 3.649582253572303 6.527360973946579 1.5379045845922095 0.8312592493102845 0.8274612157204331
Ni 7.015720536748886 -0.09180732960566823 10.874496835031199 -1.7775185437082486 2.2686745808364797 0.6955569386782473
Ni 0.6654051062900866 3.4959270116231123 10.543068218784171 0.05359618805890125 0.6401003003718395 0.9675943084303142
Ni 0.6377270332315534 9.437943336464304 13.143924556482041 1.1679197543593758 1.1404223202700552 -1.5098399651455094
Ni 3.701322543680376 0.9684529805531237 9.046106626825786 -0.8288935772915854 -1.9234700428721196 0.3158723646591463
Ni 2.3304564746624292 6.5745861036516695 10.50465906790513 1.352388692872155 0.34988908792422324 1.895518809074832
Ni 5.8758871644292885 9.007581917661923 8.80993624606105 -0.45761599638925704 0.26037998801879675 -2.182848071988963
Ni 6.127375541384701 5.9140213984210455 2.5619430172052065 -1.2791929854147712 -0.3418592756412112 -0.6608827843348296
Ni 0.08029250567599694 7.178592483834403 13.031220747678004 0.2865936702996871 -1.0347047289255664 0.4428807470616114
Ni 4.639003471290982 5.944579109383648 7.156570243280659 0.03555732827931941 -0.5079042031208479 -0.003116691252110761
Ni 8.006427806347052 5.065916779981693 10.709839326060829 -0.44435038962860246 -0.44151034907664605 0.3356060956426478
Ni 2.325526609124394 2.946009364110995 9.121751639224245 -0.007469054683535525 0.48213943545191806 -0.7616759417945077
Ni 8.153382531619783 5.599208945225654 1.0974383925357996 0.3949862373731778 -1.3609491808476561 -2.1197650274855495
Ni 1.2032785983743093 8.457188990107387 3.174825019199706 0.47912070323025235 -0.6215464486290522 0.32802776907475767
Ni 4.62320739929293 8.688976543343697 10.861948509989679 -2.5496629891342475 2.205995199529388 1.241938471938687
Ni 2.301072984981097 8.881194703244473 5.474982857118733 -0.2517020006288246 0.20066971664235764 -0.3819386601606003
Ni 0.6011481764766547 5.956041745700818 9.377658256730854 -0.889372608513249 -0.06298045748727864 -0.8582784582116056
Ni 2.3534003857298056 6.423484327028418 6.334647031727044 -0.029668987819342456 0.6515013431199296 0.5074493749716165
Ni 0.26603287817509486 9.186650663055769 6.726635644594805 -0.5497041698757695 0.9491859811264556 -1.272704035256318
Ni 3.74527196877938 7.4534814134665766 2.604130178460652 -0.09968732599000896 -0.4354440882779081 -0.5563833816681579
P 4.648956394532233 6.650006522932044 11.773756496781294 -0.4494709986846194 -0.48277938302876205 0.3293287472743683
P 6.008182762119167 -0.13675577471540482 6.319602088580345 -0.28010086348649177 0.39614451934733713 0.08558662492256873
P 7.9012604479411435 0.6621704062366802 12.746520546895654 -0.3347630309160622 0.4679847412180908 0.5356844585579097
P 5.7245710458261225 1.7095450357159994 9.49940543324398 0.5533937029122146 -0.12726472138764533 0.02258945526474174
P 3.6806897983094693 7.416251143477068 4.6447804536105055 0.3601580739503991 0.13830195303841344 1.9921030706594853
P 2.8866366356746593 3.72475105400669 11.469225003248587 -0.5129438224272843 -0.30099519043699774 0.21344192870636142
P 9.151657005030586 2.2274232168391483 8.814028314034115 0.0965850329156014 -0.389963844457922 0.22905135310884422
P 0.4285749249958739 0.6778947202675433 4.543573762224757 -0.1778036106774615 0.22276834831360987 0.814182753443972
Ni 1.1482020287527834 3.7793989396683867 3.87155014836357 -0.8985427050482911 1.2026584433921417 0.36604538596911157
Ni 3.4355757654523846 1.7466261982412197 6.346786243163423 0.7397156354733325 -1.1148601555302349 0.508518439666079
Ni 2.242352601701024 0.46942105099437603 11.318889266223117 -0.47188021961775506 0.2119038947952802 -0.6884948896251433
Ni 4.132336307639017 4.998883655567541 9.997360993294896 -0.425844360404615 -0.37128349443959924 0.9275555473408735
Ni 2.575822126365501 3.4318667172782105 1.9403447520013983 0.3224744433566962 0.023709942022430135 0.39999834587578853
Ni 0.037754009957821535 6.857209982993804 7.193588035133557 -1.3274088829983655 -0.7586227567904806 -0.661091557911526
Ni 2.141984639801898 2.265426981799653 13.126151878660515 2.436286338582604 0.2546148034002454 -1.0431649438777777
Ni 6.60581479820357 7.131782059264364 6.572030774482427 0.8790221185168603 -0.6081481729452751 0.9636744045506179
Ni 8.345377030324128 2.7617311766835746 4.99971027007269 -0.7087019607006376 0.15076306161990163 -0.23368088146105562
Ni 5.794465169711307 3.383975263592082 10.834833317608835 0.362491350069266 0.13315743272299646 -0.22127505159753502
Ni 8.300505002789839 8.035186908521677 5.066052840542856 0.9889318935658259 -0.23244212395794805 0.2632992185481208
Ni 4.724115875750101 6.625226726210617 0.5536826109853997 0.45154819292862236 -0.8712327043794287 -0.3975956499715669
Ni 2.823955585374425 5.550702423249335 4.133335327649749 0.16281922145348734 -1.0613562700748238 -1.8403161957607594
Ni 1.9000950558600498 1.163513501491898 1.720964803637187 0.9996443948873237 -1.3329958901678398 -0.6653328496863832
Ni 1.8711961654376552 8.086135065225717 8.335468839322163 -0.06864896862696565 -0.6079602253041851 -1.7793697379843743
Ni 6.9876324181635585 6.728399772281667 12.544341076458762 0.2969657575626305 -2.72765249057027 -0.22794912118360097
Ni 0.05093790556587104 2.414748788067962 0.023640056541273175 -1.9393304069431436 0.35521178568871725 1.0144503495519044
Ni 4.508515801605601 2.9607057685599196 8.291372170602175 0.8249955277887598 1.7000416923770079 -1.2198637515268347
Ni 6.020884854233234 2.0143672888040682 12.7642251944366 -0.43583566728937195 -0.7079442565990066 -0.6048903281296099
Ni 3.934936663354218 7.272949551079403 9.063047098612252 0.9930826825094059 -0.33550916505346734 -0.4341927323693103
Ni 8.42254946230989 7.18685862888589 2.707013396897993 -1.1561261041585575 0.4230673118801101 1.2683892099310479
Ni 7.635532308146188 0.391204866758595 3.5187208833045487 1.9607970614573522 0.07046082502472381 0.22208854863776592
Ni 2.7550027023575607 7.209951647417556 12.87570166242521 -0.6415005231534758 0.6395937930490663 0.0013356880922880223
Ni 0.6688588079316666 6.22636425923916 4.609644211572597 -1.4778623837976483 0.6323995892934722 0.19184517637219217
P 3.9297365405371605 0.8459425602071713 12.452313813343267 1.783573748763393 0.4667644956577445 1.7568183350464197
P 4.023720839121439 4.995920144714809 1.9185890410400697 0.5310916969809046 0.5381198074722796 0.08073855280164804
P 0.44298895718430265 4.01569699369942 1.5548618841848707 0.19795051793898166 -0.22691553771276404 0.10720266053044764
P 7.1214284097128395 4.325272047211682 12.717345807664326 -0.6727543389614349 -0.22438814330522 -0.614644065082264
P 0.36524432530433365 4.455731759247509 5.818550684802141 -0.31024627672162053 0.9310105957690095 0.8463372266893295
P 3.9508445659504865 0.7538631094791768 2.7137241647126227 -1.6539654668442354 1.0778056738800987 -0.2621612482889356
P 2.006585743011518 0.7863182129248496 7.577283477221926 0.2344506697475446 0.469038893514218 0.6860783097638508
P 7.218264388551634 2.504530120002612 3.1866641518642047 -1.3889559504732274 -1.3335155101167357 -0.9259835748680634
