# total energy = -381168.7084008691 ev
CRYSTAL
PRIMVEC
9.32356754836728 0.00000000000000 0.00000000000000

0.00000000000000 9.32356754836728 0.00000000000000

0.00000000000000 0.00000000000000 13.64598354768116

PRIMCOORD
 96 1
Ni 4.048693884137147 4.396565507884774 4.2172369446192635 -0.15627319280485344 0.6500111317276484 0.5611931443519754
Ni 8.081332585189053 3.5740030964374614 11.415247294243757 0.32116703739918234 -0.7707185116127502 0.5658848934006899
Ni 2.381416265069157 0.09491205155118061 5.61219740082787 1.2884067907035552 -0.1492463678650591 -0.25045707247813
Ni 0.5342385480532368 4.815697157370204 1.6818811227070216 -0.527073319850131 -0.5918286098496452 -1.3396956707855185
Ni 8.435544234777542 8.216384459166818 11.675435428255527 0.13771419885574346 -0.09655649367051114 -0.5361842810124637
Ni 0.4153108515595689 2.639548552466354 2.7230420310067944 0.9699448109403618 -1.1889261814077134 -0.8678951553657633
Ni 6.839862289874223 8.915717280116091 7.969568185538817 -0.8222971550209902 0.10039875023473675 -1.064775837279334
Ni 4.717361491864958 1.6173032977341397 11.462912167929401 -0.2958897508896323 0.16415928042114952 0.7296297119922401
Ni 1.5716551116799362 4.851341155590224 4.040479821246266 -0.197303371273286 -0.015244327753580197 -0.06931976944174513
Ni 4.308112823837343 1.8662425476620876 0.5560165368165964 0.35578128503894213 0.1613974014052962 -0.05135624298478897
Ni 1.7735569640091389 7.953357298877779 11.635069975497547 -0.8141614132877334 -0.08141449582275011 0.8809874697733472
Ni 6.607677490587493 4.488262793391942 4.505835853252024 -0.1770914151017853 0.42346968952485137 -0.5408019822901331
Ni 3.6918250178359435 8.558829766680061 1.7765162643060353 0.2198015523758021 0.0598002599870841 -1.5328225420836117
Ni 6.178271269812903 2.689830551524834 10.05266852001735 -0.13560666559443743 1.3704396368365948 0.6767596034660861
Ni 5.236945256658392 2.8995175826439183 2.622280373260678 1.2978903047139585 -0.47685144758010134 -0.14670534661076023
Ni 1.849049889352457 2.9698172809381775 8.521561603016691 -0.805463114182787 -0.7443407929501696 1.440613783858835
Ni 1.16809381977427 2.4291995480609447 5.0833199040371255 -0.7913564995780759 -0.31179948014135334 -0.04888104197141904
Ni 5.947000180132651 8.87259578083082 10.281484714397754 -0.8785210105107258 -0.2953773300295881 0.32813781229006067
Ni 7.92758695854816 3.2366857510013856 0.424213926082273 0.39461805540048167 -0.3909904859502234 0.12280822827818849
Ni 8.933432058200852 1.606245546782284 7.862419884114774 1.9418567729094236 -1.7544248951135784 1.8836346560427366
Ni 3.2130411840419373 0.07236766554646985 10.417521157094335 0.632885270680639 1.1559278721048223 -0.48625294339965924
Ni 2.0614966964257984 2.601359220342576 11.380204666121877 1.2079428317195327 0.41382136780180984 0.26584821022221955
Ni 7.41976021226256 6.57245305290106 6.844442958544246 -0.23975151313516777 -1.726989167500129 1.1095045476452763
Ni 6.30481072674257 1.8548118540137106 7.905650469138779 1.7661401266679777 0.5634917105781649 1.197950496393511
P 2.6157268377260583 4.650036011575456 6.006756788396254 0.48451590610389456 0.83503311453042 -0.2650483400287435
Ni 3.7983840697994835 4.210448455185834 7.993434653402696 0.709732715957997 1.380583667249132 -0.063437085408723
P 6.430884005301586 1.6201749564973535 5.83792935910804 -0.39773191843911504 -1.8232103893184086 -1.6351588756606936
Ni 3.3338932648496544 6.8396478478237235 4.816977283176013 -1.7050113776774571 0.26236050878393524 -0.11369675289522353
P 0.16556791012061783 8.181104080075906 7.886150227894423 0.17885390631884682 0.37558726402127574 -0.2899862409210038
P 7.230836765772297 7.764648294438017 13.360481902099274 -0.09003283361938043 -0.128475710976611 -0.2048531585960859
P 6.147102583951138 2.670885062541554 12.825259717683963 -0.8753845217642731 1.6899254298786122 0.33640236629169806
Ni 7.702926278163746 1.1105860559706902 1.59944586906796 -1.908764618341145 -0.04473102435878748 -0.5329503474561982
Ni 0.29583772637223876 1.0504956639937004 11.87079120390404 0.6442125227680002 -0.03920109567949378 0.7470633340876554
Ni 6.196125901408859 6.647619653384922 11.596793001840087 0.9092099549541502 0.8976487324791123 0.17677568363357943
Ni 2.9575754369248672 7.326310096081742 9.631321590914586 -2.328394622404932 0.7694591852843522 -0.2105944319552373
Ni 7.248644779531187 1.0778696579183618 12.254938963742292 0.44337542730984286 -1.1008353020060526 0.2588761497797606
Ni 8.384851998752888 7.478983512470136 1.476673133373158 -0.4798457543217349 0.042847948403461684 -0.5674980035240806
Ni 1.5575765248862585 1.8697109147397353 0.4527943896301805 0.03125407291827521 0.7001918663470974 0.10691443986606748
Ni 1.2938687441760683 6.817784082240164 2.2805026331742075 0.3413455692295863 1.517624751297251 0.39575036923271195
Ni 4.994989358722805 8.183817238193098 5.800170775798744 0.6781860514999675 0.42203938483622805 -0.32657818111242465
Ni 4.793656244005797 6.314684384632971 9.741594219778737 2.170886785862029 -2.2677315001969203 -0.2728200135543624
Ni 2.940233601536628 6.133471528393286 0.282082667367793 -0.1974974895619631 1.4062412199162362 1.314015235300279
Ni 2.8528344806068686 5.7143025846382045 11.727794718133632 -0.9249134817323361 -1.1834237635322458 -1.9168093430224922
Ni 7.721153852456224 2.1372972994937465 3.577553510908344 -1.3399460962334278 1.3243582690974998 2.1780902455890034
Ni 3.9170171415628996 0.058028018865227016 3.8850251846985637 -0.16283259118992602 0.11181470538116228 -0.04676193874588721
Ni 8.513946113153727 7.029829975914746 3.6756551548715226 -0.5907598022654987 -2.309578003919061 1.6306764144093078
Ni 0.2137968596347485 0.19502572136209165 5.991528605740549 -0.4897982375487565 0.3621463080250215 0.7306998051279674
Ni 7.650854154161964 5.399902567903361 13.129919403542411 0.5623144024406121 0.7649713247163277 -0.4234720035176965
Ni 0.7372853344607596 4.1389366931278815 12.907066562879386 -0.06771565817941885 -0.0006396904665279305 -0.049063590295870346
Ni 4.13958001927938 7.507504305186601 12.338002625824993 -1.0696565624104029 1.3079718573196764 -1.61606483514372
Ni 8.12797839295645 3.6278466982477195 8.866969007897055 0.3638702326946636 -0.26636217374416066 -0.8304046146194732
Ni 3.5487828465852105 6.336072648278465 2.575911475445447 -0.05509231298845351 -2.015331959280439 -0.11344966988142396
Ni 4.515068049704408 0.7018408605833781 6.949489727873392 0.44870018195686595 -0.5541267244234973 -0.4236242128248446
Ni 2.7100720163785263 2.2810573854352834 3.155674206106294 0.5534595231531436 -0.06339183399308437 -0.46497475074717337
Ni 0.6128865686091247 6.552621825013541 13.44418609326325 0.04055889525896886 0.7692617245615655 0.7239496308883274
Ni 4.217282630099587 2.0606389282237996 8.811320363435634 -0.3464417528055711 0.15385429895071567 1.9423421971862742
P 1.0389624111037803 8.120948423127025 4.277183753658092 0.6355826150071441 -0.5540758165809038 0.6262217426175345
Ni 5.587352890742364 7.214604434906208 2.5565203199398234 1.3755623027751407 0.9852163923874517 0.05672393505460553
P 0.3081709413461972 2.275360685745921 10.127707387627655 -0.4374186955057757 0.6591694011881487 -1.306837486604917
Ni 7.459357403065705 5.423118250761809 10.106119599639522 -1.091916659360184 0.06556467327468707 -0.36863577240410705
P 6.221206297749914 6.8383891662229646 4.527245561102569 0.5497702472270145 -0.4759456479363804 0.9912736543251249
P 6.242352148642671 4.899077820744947 7.945060256236922 0.7528375175672711 1.0539252677180753 1.4896871443467183
P 8.636746819550767 4.334629049560005 3.379974064431823 -0.8890496779561916 0.2944651026279639 0.3178438865632203
Ni 5.4961590778755 9.116770687810707 13.444691430617036 0.06676126468594953 0.3292310453542394 0.6664319962878329
Ni 7.084083814691177 5.36367118493632 1.928709516972659 1.1837554358400517 0.058786988231221346 1.231345526914189
Ni 2.8796304133519217 7.620254205912394 7.202895898948923 0.9566851177169782 0.2847566170909483 0.6531131676917397
Ni 6.333322195891622 0.11951414888394751 3.955247497383295 -0.46664031137505435 0.06725414516196804 0.6559634926563414
Ni 4.88927875139385 5.993422222282136 6.297212019300949 0.530886522948634 -1.5513954199897926 0.5059023421994706
Ni 5.430950047388756 6.562784513493745 0.21759434864207633 0.4585799029644232 0.4059951868891718 1.1028651879518878
Ni 7.6372697164411765 8.40844062430786 5.681340976762913 -0.7478462350002669 0.6507168995454212 -0.9435961457435038
Ni 1.331657162901086 9.303372566015124 2.4924795324499325 1.2649231057593182 1.237715692106591 -0.8771850653081216
Ni 9.212439813035827 0.15632825481430337 0.3722434289652927 1.04837219911033 -1.2599094545948109 -0.8983848393141882
Ni 3.1368489911426414 2.5024361700903093 6.382935695166587 -0.9699265561079168 0.6187084649596248 0.15322463578651674
Ni 7.803853895409816 1.0337412133524824 9.949518164300017 0.4824109439457498 -0.5270599501136923 -0.5925161228349731
Ni 2.4860546621456123 0.8434322847446435 8.039121998440034 -1.718837227816956 -1.9864427870499144 -0.1692904310001278
Ni 2.98726167556796 0.4152651660792451 12.744774954347708 -0.09697404082390394 0.1842257121537214 0.29203206770643897
Ni 7.944770293290377 7.524920729114144 9.289298641005153 -0.11029749740568746 1.1009828833275104 1.6559812117226838
Ni 5.40094680745362 3.61846718943021 6.546701359706266 0.9504296237255696 -0.9147748506364375 -1.42216868977977
Ni 3.135497073867752 3.927095917936387 13.462063101420997 -0.18060817000579218 -1.1718962225086202 0.25029869252339476
Ni 2.169202547181141 5.205496863774235 9.121370935972298 0.37781023981452355 0.3261302949417286 1.5145967631042043
Ni 4.986346411730924 4.397479217491252 11.763396760300294 0.9325946524266777 0.07685798680031924 0.1605481660311235
Ni 0.8361384579574288 -0.029857792283492883 9.782846343797697 -0.37087288926474193 -0.4426609177413215 -0.9064143944868841
Ni 5.632376397779894 4.364492435983945 0.5277241715017514 -1.2341655128614872 -2.279561917172945 -0.017727756297066244
Ni 0.2751105036563279 6.026259826710834 11.239691978710301 -0.1998035119873204 -0.7034985621228271 -0.824917880473289
Ni 8.096408793695925 2.696683373573413 6.28248824164229 0.2563834652648939 2.1347694713141814 -2.040914435735233
Ni 8.782073264817694 5.037905739524989 5.435318138721762 -1.5653734794364396 0.4773435567251715 -1.457377376470419
Ni 4.7230115737172556 2.181369802655148 4.777049105729705 0.06830109836924367 -0.9776262387450196 -0.7319231360121072
Ni 0.20326495788498783 6.042016655638857 8.832676926951923 -0.473081696125024 -0.5517834210023014 -1.5889628367206055
P 3.5117869310903007 4.028349860041911 2.0634089601022114 -0.4241019237922115 0.6549245098688656 -1.0012904151311788
Ni 8.58533666883531 9.249277227884715 3.44978614015038 0.31307346175777057 1.0321961035710998 0.476124853826722
P 1.9866657443688056 8.413009172340244 0.4882286075834077 -1.2985323091733314 -0.7142640281694473 -0.2828054069018484
Ni 0.701339252656557 4.08797407364825 6.853285429878765 1.0262110896322585 -0.16249012024884274 1.8051594453539688
P 3.6646188481247166 3.7561110151487975 10.251408750636795 -0.6337054525890893 -0.1259056362565896 -0.4126779982259861
P 4.77582958311208 8.036337048853762 8.437557192982016 0.035355239570842335 1.0536090220292371 -0.4371309890620278
P 5.4662863678841465 0.5770365195492765 2.078228770505225 -0.3084133372779398 0.47791974094361567 -0.8461698478735298
Ni 0.8657678228393023 6.7488176540859675 6.318049260112335 -0.27273850958414964 0.40373441587945313 -0.48052581110789505
