# total energy = -381169.4822305843 ev
CRYSTAL
PRIMVEC
9.22247054333330 0.00000000000000 0.00000000000000
0.00000000000000 9.22247054333330 0.00000000000000
0.00000000000000 0.00000000000000 13.49801786177376
PRIMCOORD
 96 1
Ni 4.16588226395591 0.19514932563317142 11.786631186674255 0.8681383817248209 0.38852762623202763 -0.1058893410356628
Ni 5.896322118802692 3.9965023661015033 5.002514376538341 -0.1609600567575615 -0.6481313982064322 1.0455205885941476
Ni -0.1642918607398326 2.8820958901603544 3.7980449402091367 1.0328509635462793 0.6421129599264942 0.34997059189443597
Ni 8.720906681345705 7.19176569563037 3.3192170254410076 1.115900680979607 1.6283739915283761 1.413820574925391
Ni 8.700368238978191 8.881414562335474 11.706344967531736 0.35782685471406117 1.1374084731443959 0.1225997118118082
Ni 8.67093011233378 1.875693769210655 7.636206705947888 -1.0541821209238877 1.445576012960117 0.7262834212278266
Ni 8.239705824852761 5.235947100515376 13.031999514052949 1.1517853106913583 -1.5480375592611533 0.3011808240852426
Ni 1.7711847306346917 0.5093017248781324 11.267659701211327 -0.3083480312576431 -0.6193985490481139 -0.47855377498318874
Ni 6.959636106770769 5.703581702530272 4.076577390663775 0.832378193406076 1.0702579434398278 -1.2979376130121258
Ni 7.163388153122583 1.8181363292395478 11.601371116429808 0.022119971827490936 -0.04157628077988969 0.09734916477513557
Ni 0.5386218038969025 7.362067840560103 13.080618535369995 -0.3355356474160286 -0.39714313581518057 1.8739847916577983
Ni 1.4379860847900943 0.742881086140146 8.932205475514913 0.11182010469780096 1.6606205102669078 0.10107083660109692
Ni 5.905231025550343 4.850872056683682 0.6971551538983983 0.23330061530350144 -0.1467562544533537 -0.9813594805352066
Ni 3.3764941023012156 8.052581893269078 6.19575268798422 0.22219987740464955 -0.14099132694511848 0.6852835817766972
Ni 0.05694599016016595 2.1057021897970056 12.82612722167496 0.6014823308893253 -1.7037206838904915 1.1277442105817546
Ni 7.602718992395719 8.389211298233889 1.9420946363870648 -0.5118837565938862 0.320268436844313 -1.216433899909679
Ni 1.6604874141832897 1.881688375200275 1.3731262924765544 0.8122485125357366 -0.47890344501312365 -0.1943203773855621
Ni 0.21039406978831324 3.7862669228101464 1.3823727416537746 0.9814492120355356 0.6856461073224385 0.48853402612435215
Ni 5.204673702191066 4.279493881165344 2.8289283462677997 -0.04852108752883902 0.6232264074346364 -0.9212159782760909
Ni 3.601411719031766 4.552792579467505 4.385020158265391 -0.6444205250137482 -0.06612851619795708 -0.15460583240475956
Ni 6.850709504703994 4.134802537517419 10.795201746992477 0.03207322638546089 0.10163339397278624 0.5028481287541792
Ni 4.813936061316867 2.6423208730462995 10.961672877571306 -0.15733891506520645 -1.0834343329207856 0.7524055722361751
Ni 4.001030599241355 6.187318738480363 0.20337761403923163 1.1400433396640817 1.0031801759547239 1.0948693142306047
Ni 6.418894979094768 8.666245097191121 11.650611732275623 -0.4899401624432594 -1.3504562517361323 0.6464388409953576
P 1.3523646663168112 2.5215987308861023 7.243981480541189 2.281703131885664 -0.832325742901586 -1.6403111092855946
Ni 6.876477087988608 0.6836866576103348 0.2798743199492374 1.465173218365754 -0.11511600184025336 -0.4117104921063942
P 3.2856066530278203 5.8103686913822905 2.480139113614813 0.1948798494334579 -1.1203502321105285 -0.8906969837516273
Ni 5.330680320092882 -0.2251426450169296 3.0891966156426776 2.5308841658648475 1.3665899240732013 1.3382933911213533
P 6.539893795377563 5.853622079215088 6.163545975619679 -0.14730621341955275 -0.8211445294737858 0.7230859973364515
P 9.366802420550398 7.795809862556762 9.194067387835956 -0.5291677404853145 0.24536885932194513 0.30611040017637603
P 0.8701502602880842 3.921034887927562 12.105454767355745 1.1823238455998477 1.473143123945108 0.5690864310571232
Ni 7.258471826588714 8.617116995488496 4.750141464375329 0.057851620901145526 -0.8694105635690254 -0.0022872533722799317
Ni 1.4288097263905988 6.625349209377288 6.714346052146264 0.8004828873593762 0.8656127870894899 0.967310201530992
Ni 1.9254028865707362 5.360210671444826 0.5717138734537567 -2.0361206138910157 0.3414322154061217 0.30110086277692655
Ni 2.0474899544024168 2.117838961308298 5.265387993901014 -0.25424507876565244 2.5342700516179453 0.11794241554545495
Ni 4.594100025971365 1.5261529051912774 0.17825468146027101 0.5527457849155706 0.6211738957809818 0.3204201319308288
Ni 7.846634898877989 5.606533642793698 1.8542091013438562 0.1641425682506012 -0.08749618324045576 -0.6207020983508859
Ni 3.2786160201968477 4.365410418702731 12.373295607466126 -1.5151541782695712 -0.13107689604488393 -1.5186632198640941
Ni 7.8569179537678755 6.63194327596587 11.325052981203028 -1.6006865529154368 1.778669112372924 -0.28650728123346786
Ni 8.878481816635936 1.182920211167131 5.5315420441106244 0.048531886162116414 -0.8495243661680595 -1.714424443461241
Ni 1.6066742973380068 0.24906296740966488 6.688403241917339 -1.2595826673830115 -0.6909474649306939 -0.9224750474941725
Ni 4.105419745697525 2.181538566801078 3.7897437942841257 0.31485626468980615 1.1379813149287306 1.6343312375530754
Ni 2.0292571297232183 3.475054647241325 3.0696920122466045 0.18023458871645734 0.08561722105018804 -0.33424752473222435
Ni 6.8295531567960115 0.4977468912713707 7.52707536503039 -0.7229348164705679 2.5494848116851703 0.09456903092683712
Ni 2.4044456849074165 6.893953670066039 4.175072456061536 -0.9194714847811585 -0.5496409207380019 1.1639725967861696
Ni 6.48149711056791 1.5445425118732818 5.2036887423146165 -0.4484250739186083 0.8568646085832146 -0.2681951131878414
Ni 3.5337280061735767 7.994424992699009 2.486658478190294 -0.09831152868840488 -0.28786816613673644 -1.4617991596871986
Ni 2.496698059852295 2.937864170805329 10.233779228652285 -0.04787394086314336 -0.7375746778709297 0.6960243652329691
Ni 3.5423233489156174 7.216979930669789 11.730519830117261 -0.0456350242302956 -0.8196682020385755 -0.7040942867252971
Ni 2.727222938800828 2.041725910181628 12.703389969655175 -1.392626457346279 1.3744497864372522 -0.5273304301662596
Ni 8.660139821552463 6.175421751208655 5.6904673491191335 -0.27733667047779337 -0.07743237124655052 -0.8124619140981234
Ni 4.483126035397365 2.77687672133639 6.1597398619398085 -1.42560754025799 -1.4102611397089067 -0.2126891097007369
Ni 2.2895152543802677 5.350646969273694 9.903563129849292 -0.946793312524563 0.3874868436723391 -1.0279116172631328
Ni 0.09181430758409836 2.6185361209736375 10.562469008545614 -0.43709550783840206 0.28785993860662035 -0.8170557041163928
Ni 8.144677486211151 5.470603646361371 7.8937082340967875 0.12928355158988702 0.34545830584637927 0.28568812776628216
Ni 1.1906301967168582 7.034707018702321 11.011724148596333 -0.6765531438822349 0.705261824670837 -0.763260255562492
P 3.6877709351653096 6.3698314346874145 8.391852613857623 0.7175213587644804 -1.676920790088828 -0.6013933707199449
Ni 8.47227809230852 0.7672597653293183 9.550334199775687 -1.2396640740822136 -1.2360408755073293 0.9623885958596586
P 5.100810236567831 0.07522308269898029 5.94906266229937 0.5063653978788183 0.09472175445461752 -0.0002337132773608878
Ni 3.772811337981137 3.352589458108761 8.228783652739674 -0.488311625700901 0.7704529166561892 0.8075516212806996
P 5.658456153134561 6.121894530956723 11.572336934004388 0.07261258126040399 0.9298957654382759 0.05582944826479417
P 3.720077250213986 0.9848399843285733 2.193144123996982 -1.2194829711486481 -0.6380809559489656 -1.542812306306472
P 5.973338972063181 3.1553392536379965 12.947487558811284 -1.2562034664981334 -0.5097003757893221 -1.8085504733133886
Ni 5.016028062933095 7.041485534705969 4.82535255786233 0.6281729528066342 0.18039913931877963 -0.34134531211927016
Ni 0.8584229664782363 3.8795429920086364 8.620995044440242 -0.2615434121992786 1.0462656942902884 0.009747566305067084
Ni 5.9541839003086565 0.7204013136790701 9.83892098784553 -0.7817536863809891 1.5365267304080765 -1.5098427933589866
Ni 6.6030492750959 7.080330581518708 13.610996372660557 2.52570647831865 -2.029445001643053 -1.8817688064785916
Ni 6.170211055233062 7.715371472646812 7.145972439352124 -1.4109710212917377 -2.242839364940931 -0.35615306655606405
Ni 3.674260015511781 3.8605539247276703 0.9959798067514383 0.11128814345373093 -1.2514484683116511 1.532964724088431
Ni 6.052910449722324 5.728178032029221 9.242511182208688 0.26862063076103415 1.0509425309406675 -0.7653734452507528
Ni 3.5763358210536467 0.8184869013753866 7.776505386776034 1.4952181014672765 0.32926498391596837 -0.43015430063387855
Ni 6.1369363807552935 3.9306354799817074 7.549238806744628 -0.41482384092439517 0.539184244181052 -1.426025087411383
Ni 5.146728918448321 8.50301658732914 0.37421466227265415 -3.1676194064191967 0.6277914010974994 0.9451069259610757
Ni 7.179140133169155 8.029110705202028 9.313511295549752 0.9331541244745736 -1.2337119702638366 -0.08831250849416403
Ni 4.787043336600356 7.825838227329383 9.569676487686502 -0.4606218730951164 0.29704186221620454 0.48282669132692974
Ni 2.663265104126957 0.28969532905438594 4.262930323692485 1.844090060980895 -2.1119190490785695 0.09444484664414701
Ni 5.7150360112058225 6.7853590769463805 2.2344893826309304 -0.8439108766360239 -0.3574869548761392 0.7904856669373483
Ni 2.5580736027152526 8.90849173646705 -0.13693063450905532 -0.4993159472312046 -0.5715858004402091 1.4611131893637674
Ni 1.4147823483748874 4.689755492624197 5.4169168773654075 0.2913975194462336 -1.3500379332517911 0.8003116518888346
Ni 4.30792675849765 4.78818692297376 10.408537671449993 1.50936173995751 0.529438734758514 -0.4866193256001425
Ni 2.272269234071668 7.820313967348179 8.905709317040792 0.4542558216677725 0.2202766922400077 0.043443415895615504
Ni 1.4397014643502009 7.4413257542136355 1.8063048215101882 -1.274538003141263 0.006481493959285612 0.034889355678017334
Ni 7.839837937932834 1.2364566538898163 2.9546490675762658 -1.3155398994749214 -0.46396199321194287 0.04927056410035385
Ni 8.600415100954338 8.23800889023416 7.100146904426241 0.6624244177903366 -0.2769780015867939 0.3213470146204724
Ni 5.7935837946113535 1.9979376190451408 2.1310132607793326 0.23265526841001868 0.6701097022497362 0.2613384952773241
Ni 0.7822130794086571 0.5391825301187009 3.202741831062687 -1.144514745171874 -0.8305822778479179 -0.5929892058166496
Ni 3.675394379414432 5.60617396643432 6.311456883807568 0.20769371336867457 0.01056492000003987 1.742064830886329
Ni 9.040778856951839 5.045373964869973 10.392299667194726 1.0650362900295722 -0.6650816529075256 0.06571276881677715
P 3.63399470820304 0.6998739382764599 9.88484151422017 -0.6208872177784984 0.8029722294401331 -0.6857702916051286
Ni 8.133896417900589 3.585502956982389 5.843859171675685 0.30265098087286585 0.47429782792031216 0.3673250240124835
P 7.265407124595166 3.7228071015569513 2.9791476388852303 0.48310925556435513 -0.5369157598618495 -0.3859745207928707
Ni 7.541094442822423 2.8291127956828652 0.7217865287862101 0.08696962131302441 0.5417116385885961 0.955840767438812
P 0.4244061148531311 9.38902857506576 0.7534122254932958 -0.3431767089010541 -0.8684656831572527 0.18177596506164825
P 0.5605565283364605 8.021944845426743 5.0657519362463805 0.17017566181855853 1.0741148552920727 0.39927638010809946
P 6.8349851920696825 2.7581458832365153 9.058263739252947 0.8680113692286535 -1.6959096724865048 1.6594419165777745
Ni 0.33642558836116376 5.2159804513345644 3.5159369378434597 0.3797341963101138 -1.224383493774059 -0.6818776414189418
