# total energy = -381164.89012533595 ev
CRYSTAL
PRIMVEC
9.27264526147034 0.00000000000000 0.00000000000000

0.00000000000000 9.27264526147034 0.00000000000000

0.00000000000000 0.00000000000000 13.57145363351004

PRIMCOORD
 96 1
Ni 1.2184812177069286 4.175574141415344 4.333514180173698 0.5696363900233222 -1.0272873534155726 -2.2539272473239764
Ni 1.0478089097977485 0.7479426905750278 11.42248205017176 -0.9389743307007764 1.4485440944495054 -0.7957474295569198
Ni 8.838537060855373 2.414782268048935 7.451922385500349 0.47323621942501715 1.8762789870086136 -0.7273933664625537
Ni 5.572108692626134 2.8549454639709646 11.930135267059027 1.0675217754555872 0.7450722717995555 -1.2714177123447266
Ni 8.414610266712598 5.745924427264708 3.4514510218800374 0.26935082405883937 0.16752999666559534 -1.2120841075814157
Ni 4.365765367511465 7.820196617565032 12.016165014876034 1.7997279899257521 -1.1350482004423357 -1.2853104111664186
Ni 5.244441228506462 5.314802060431641 4.373522862502056 -0.6319848703535568 1.3880583783596223 -1.4912768574313415
Ni 9.03734257436036 2.367964682335937 9.802307987029254 1.2198817492489635 -1.5589794029846376 -1.0716712788475866
Ni 8.345955601507796 3.212749025053847 3.3136465322157163 1.567817570101558 -0.5896740254004877 -1.6119572407332496
Ni 9.143143456314275 7.377520534788533 10.48796539240072 -0.5742983142753657 0.3576543336919389 -0.488989368494216
Ni 1.0180437186433169 6.2661661873018994 12.423919388491568 -0.030257256222644666 -1.4705185418380673 -0.7234114989966703
Ni 7.747554714915869 3.596478902170309 10.94465800569094 -0.9704058097371802 0.8667561566653136 1.434930874541445
Ni 2.8092684136199577 1.7143359208169693 4.075331283005968 1.0190528813209223 -0.36100448111109446 0.5127201364522525
Ni 5.5069683599595045 5.0551494489966275 10.418669060146733 -1.2219337466819857 -1.9394623045353179 -1.5280037805387297
Ni 3.5746510953237256 0.36716986001904806 6.037071578187581 -0.4569796483568388 -1.578604890525049 0.4765884237267018
Ni 6.165734166930047 7.451812968286759 10.59329336944844 -0.2042093543644999 -0.16803161889236223 0.6898907415314054
Ni 0.7111404889635564 1.2153656089131937 4.975579953104013 0.7155778618848644 0.2333726061920174 -0.05853424879046694
Ni 0.16457739820643627 4.19449961030824 1.0176626129247974 -0.20885610910789193 0.1406460277905578 0.9729910539658534
Ni 2.268673197326075 4.015055380021461 13.501574161457155 0.8192812510128019 -0.7377834514476261 0.5411696500421971
Ni 4.220296109308747 6.308189815436443 8.770090102903486 1.311404022929677 -0.287635224190324 1.2112857800498364
Ni 3.566036807914857 3.904757265136114 4.5844236144312935 -0.6769763474625825 -0.2281632940769361 -0.4232303198205356
Ni 6.888277227719959 1.1675465775164946 2.6150426595888554 0.5122102866953695 -0.17532635278156256 1.002102626619829
Ni 5.854683283043626 1.4609979807764004 0.18378290098495925 -0.3801278322041066 -0.779901977884231 1.3827457078974572
Ni 5.365671792105538 0.516687555124577 11.062892577619612 0.8902506402428282 0.5285966984731929 -0.9027426020622517
P 3.1173520510361543 4.649879217035385 9.720743945149936 -0.5171074668866708 -0.7492356591486258 0.35628907791329606
Ni 7.337583251828366 7.924217151636813 8.814360492974703 0.3270720900297076 -1.0926270551636474 -0.4315617225043664
P 3.107986679364511 8.548739079811929 -0.2131873862403543 -2.045871522630193 1.0425921020934432 2.5776427621766254
Ni 6.146539791325787 4.258740496388583 6.005354495214456 -1.5817989719823145 1.0553910536303241 1.049236089772522
P 6.712718235780129 3.615673277774569 9.04675801831619 0.31580782996979806 -0.644494058564161 -1.0440072372734148
P 1.0839444082179417 8.838592696726689 9.26736166620306 0.11806300028371926 0.3922210159232148 0.07062100475167192
P 0.13298549594377318 3.945909264620029 12.419182921313473 0.4488251375705044 0.7395595695114425 -0.252862596595829
Ni 3.789108833959145 8.696647043707362 9.634808778314168 -0.8599028811889061 -0.39128359171061 0.8487021273770803
Ni 7.837610645287159 0.4546164680255847 10.841935641949881 0.48911638099038346 -0.10953645086994683 0.31325729563380245
Ni 0.9855801877300255 8.031770563537204 3.505506834451338 1.5570577604818927 -1.0160999693401855 -2.527373838718744
Ni 7.769456702924208 6.271321778043913 12.27138993821876 -0.25423607990458796 0.8056536329270383 -0.18064313700878568
Ni 4.009565974051547 2.5169111824959476 6.237222552513911 1.4013026449640382 -0.20114202829308586 1.0895741272699364
Ni 4.99924467096857 9.15886986260646 2.79624869246733 0.9372516915827148 -0.7899315942060912 1.5312670246710338
Ni 2.3251436067125204 5.183575585285998 7.2447130736329735 0.02559353219838818 0.2291040607236506 0.37463621296191607
Ni 5.063068288014037 7.665009627172332 5.594940726949984 0.39112392620429415 0.35852825165645996 -0.8196095808864982
Ni 0.008642105344526562 6.651286961201279 0.8820696491453153 0.2600938242369456 0.23303656300883735 0.6580671692629054
Ni 6.288272173505066 6.065719415593068 7.364060362987981 -0.2269708164307317 1.415926308414484 3.4950900174389035
Ni 3.5805855882641735 7.065718566639338 2.653843116245118 -0.18432547095637933 1.306569320545195 0.7799652270219987
Ni 1.5249699601453797 0.8520578056280462 7.210622193483668 -0.1297347801946927 -0.8279463828869676 0.5438513106394182
Ni 2.7814690232520496 7.538057841472855 7.641597125257746 0.09801893714865055 2.214606081126851 -1.686919810283069
Ni 4.6410052955603724 2.355817517098458 2.5017346440652752 -0.24631271129245322 0.4513147367615775 -0.6285714737966336
Ni 7.931440542262764 8.165853013410437 2.2679527127925243 0.8323938771353601 1.3890549379449368 0.33992426340202747
Ni -0.17883779928942706 8.35988311462741 12.691249750168284 1.0102514809792085 -2.0223947796644914 -0.010555406918343111
Ni 4.724672373375461 3.85667859967327 8.109513348321586 0.040527013579768914 0.653363850249965 -0.33736807263907703
Ni 8.717927764485998 8.37550752182218 4.930902493907663 -2.591179106100163 0.07508623961187715 0.6730788121803892
Ni 1.525721044408155 7.924986781190027 5.722566633956916 0.15719750439133573 1.4627432687680226 1.0788492846532645
Ni 7.3525307559221185 4.218543579362271 13.280997404241424 -0.9101751470808971 0.04498067847574834 -0.39397347983794734
Ni 5.5804355280332 0.8837758158656939 4.825032067114603 -0.5332300834801462 0.058420348920421965 0.3435536326244986
Ni 8.297756391657101 3.866720874445934 5.50873479887381 0.8587476845385404 -0.19444584721983285 0.3487488036721929
Ni 1.8669822064195403 3.255987369712138 11.290621326093106 0.016533221768332815 -0.3689620453952742 -0.45634304321410446
Ni 3.2737723032430415 5.588623273761973 11.914610077168104 0.6121593509871973 -0.2810868815488449 -1.8004491843624928
Ni 8.458219517179668 0.3335676482728084 7.952546010046752 1.8675035548088288 -0.6866370104807982 -0.6204077070389186
P 1.292653106817302 5.63885319291573 2.4179442400687674 0.8730808133317608 -0.13907791197248953 0.446828675965766
Ni 3.1393189475610295 0.44429879568990366 1.8083151073806079 -0.03811506170416661 0.8092056119443548 -0.7110789455732462
P 4.023298761621551 1.0574339155355366 8.29640629451315 -0.31628065584115855 1.8146812688014746 -0.5346809569940598
Ni 4.6486088646403205 4.76559255672889 0.32458616411325 1.2339503115268877 0.02048397888596472 -1.3174715692799956
P 4.205172424955825 2.757795960006796 13.443392949027722 -2.3072138745622586 -0.5784614445141198 1.2634640047152885
P 5.583254412179913 5.850649682373167 12.243948471956323 0.10165499123934105 1.1732200835263666 1.5853021000395664
P 3.017606206410541 8.818424693374388 4.078139967242939 0.4201416535928829 -0.8570597553131563 -0.3635812406993351
Ni 7.63746059822535 5.57672646994542 9.653320687230277 0.11288325585499268 1.498658237497077 1.1005290836195432
Ni 0.3783016706049967 7.208081488693539 7.821907420608021 -0.7740866567540347 0.1441589260398227 -0.48248370616521413
Ni 2.0819035773159316 2.237572745260043 9.002949405976903 -0.41035706340229333 0.17219269224858733 -0.4610327353802899
Ni 1.8794910048205773 6.525049169183699 9.457131914206217 2.5450722844397715 2.3392557334891517 0.7899845589312137
Ni 1.6132084520536574 2.7310814691295633 2.4541261017150573 -0.5233040826156858 -0.0340905139258058 -0.7816629264393957
Ni 2.8217679393757753 6.059265654520332 0.6168859048369001 -1.6103523581399752 3.188699624128263 0.1884343509184303
Ni 0.7090328167051756 4.900509544671875 9.732333824409725 -2.0364160336442474 -3.327315251752353 0.5129193969472521
Ni 1.8295670829590633 3.1336069981058485 6.298362666032871 -0.9603124300569204 -0.8013130965701554 0.29057142400051245
Ni 5.302877438679429 8.639601730317311 7.885462130942125 0.2759014806931635 -0.4433818550677461 -1.2470112584759039
Ni 6.456162687848411 2.3546862543816856 6.808322917050738 -0.02756788231593962 -1.6939435498990698 1.5646054909221634
Ni 6.322701505204881 3.0284644739625155 4.147680170066198 -1.4817357507101254 0.15192185781469322 -0.39029397410383104
Ni 4.062151145091043 2.680860822621027 10.088475727469282 0.8745016049386874 -0.644920090357986 0.210427824470386
Ni 7.2187450306959065 6.262902216184654 5.444745201478914 1.7620541295240622 1.0122489710252114 -1.8234944962177306
Ni 6.347672738780858 4.446752650858133 1.8279935150653226 0.6894834787906577 -0.10047614043989146 1.7093593702335077
Ni 5.052274928978598 8.062824652377138 0.7952127813747355 0.16107189974507743 -0.7346125099188122 0.12831887368377257
Ni 7.847365468058019 2.3717201036498134 0.9963132745715378 1.213830400848561 -0.10713864006173161 -0.3667416407051877
Ni 6.099842750000641 6.969681780101503 3.054811768089058 -0.5632443704540493 0.036430217802575965 0.07340833768882196
Ni 0.4345801362353991 5.7307172891048115 5.483858146279072 -0.7922568999051581 2.486269098258634 2.363512292043671
Ni 7.801465874221746 1.467368288042162 5.2182376603808205 -0.035142609339403996 -0.6324456120400592 -0.14690949220176636
Ni 3.6498429754082387 4.799715891136463 2.3528289435442296 -0.45659861086833625 -1.3361971707139566 1.5719015103629446
Ni 2.1748896635765673 8.072356931662732 11.295154722340897 -0.31614850113866844 -0.47178148925636165 0.5413347148651516
Ni 1.4025246800225544 1.8582566472680389 13.775297084748162 -0.4882895142137138 0.39297537759073614 -1.4907073580811165
Ni 8.364649254270207 5.050197856449442 7.692353730659966 1.294540414405119 -1.1195827578168847 -1.7634047300146858
Ni 6.604960825684912 1.173601614844795 8.902751056264579 -1.044942861713807 1.306897393308575 0.956118960800863
Ni 6.63073877939498 8.818990324732773 12.73233035028401 0.4742163239500995 -1.4604732417869235 -0.059528237272620056
P 8.325852506672032 0.8505769641865002 13.117773812237026 -0.1841714618770183 2.2787705316199016 0.02819985947298369
Ni 1.0415684195650592 9.28933598084411 1.391087799408886 -2.3365023391137307 -1.7112362755412467 -0.3962098253676337
P 7.337471980085732 8.291163540906073 6.551849895661473 -1.133691429304125 -0.4246122877697268 0.3887217445207047
Ni 2.744582440569081 6.290803605649976 4.860629752112069 1.319397839768431 -1.2442329243998183 -0.14492640033346654
P 4.349297149601723 5.92278158953526 6.6217971676098655 -1.6379181835733856 -0.877299993619431 -1.1265828432838016
P 7.154661779584294 6.427232034763731 1.2587291342819473 -0.2484428702615786 -0.5441904391463918 -0.44318182324179806
P 0.002230071175277509 1.145774406541228 2.8967317123878895 -0.6229582413749143 -0.0378828910887025 -0.010978096278058512
Ni 3.403329702249184 1.1522467129044036 12.070993238794113 -0.629471874123716 0.22823914162019404 0.6875831764441513
