# total energy = -340869.9804519755 ev
CRYSTAL
PRIMVEC
9.22926338380744 0.00000000000000 0.00000000000000

0.00000000000000 9.22926338380744 0.00000000000000

0.00000000000000 0.00000000000000 13.50795987044236

PRIMCOORD
 96 1
Ni 8.294034336775995 5.419801793058689 9.60753662514969 0.3924591000759499 -0.35694136678531435 0.5495668729669567
Ni 5.45187348292857 4.1433208484475985 12.040184915432947 -1.8260280612728617 -0.6267717015837335 -3.815917669220796
Ni 3.158069306381574 7.116703367495016 2.5325938281074056 -0.8411808792993707 0.9942378791597717 1.1503958865429995
Ni 1.6370405728547306 4.587820626149245 13.819588720109518 -0.2239456564511627 -0.13770134333993705 -0.9039631047329141
Ni 3.0970454176277165 3.4498616939862266 12.089921415205263 -0.20666372944226344 0.08688811734281164 -0.3176479685023304
Ni 2.647644901128687 4.949469307458971 8.00912605664586 -0.13167442041956678 0.9414065942913528 -0.022410506484716243
Ni 3.005851067237991 3.293453369317197 1.6655174646802036 -0.17802035467395794 -1.5362256542278898 0.13563880438395348
Ni 1.3051378070703652 1.8372878980653244 11.585344671161454 -1.3214966312789884 0.249361525421106 0.7488484510125362
Ni 6.57504713532999 7.398528150766007 9.052156478499338 1.0912520291929917 -0.2150367839973071 0.3074491735924576
Ni 7.252364308328795 6.636763218829241 3.102697418455433 -0.17683044813091484 0.059335147425207485 0.30977962149784716
Ni 1.028250679649845 -0.04897877725769003 3.5810953572284716 2.65554770218422 0.49260948174530644 -1.5359767714418773
Ni 8.593957705323199 8.029514422139831 1.5039361379472693 0.41476881931674375 -0.16444364443078777 0.6106873944273611
Ni 5.063746045291738 6.910383187051507 4.1134706422472656 -1.3952682658445004 0.32878753005891764 -0.6408814015122382
Ni 0.12853964129317533 2.155014515464039 3.9075150177029965 0.7197507623156314 1.845240115424938 -1.3953166025839325
Ni 6.0121359098497615 4.997304578997271 5.018044579421904 0.9216481807175031 -0.37322647709858303 1.1124384334626196
Ni 2.055606120762315 4.873807807155867 3.2555533996911055 -1.3232583511651017 0.07710121315937689 -0.5481501951250882
Ni 8.162268145042962 8.121917806018178 6.997690171751104 1.3501580037694232 -1.0884559545050931 -1.3425138569606039
Ni 0.42974772328782823 6.7942052209847255 3.6952779565758664 -1.1913509887991223 -1.5370010989413334 -3.4467170254521546
Ni 1.7031682441979534 8.543196757327703 1.1056131331739618 0.3759132799021268 -0.1187116896113117 0.7156940757477546
Ni 1.486972752053502 1.4231708550548001 7.831469199145915 -0.1758580569153165 -0.18927304476964174 0.7709095445776336
Ni 4.239471313214339 7.6675242580890455 8.928599716446668 -0.345237962305457 1.5169493224967812 -0.8623857955117599
Ni 6.9757725173329765 5.171654591466891 7.648977130617819 -0.6491179304894176 -0.20471329058411195 -0.5952962566832717
Ni 7.377014738079189 2.386576730956217 8.47186839613076 0.2819235185175274 -0.2285978105111934 -0.4348493921167027
Ni 9.156490531009279 4.78899087768703 1.927234452060688 -1.10999974211414 0.2481461649567662 0.15238928436941498
P 4.727653193981927 4.892617045704016 7.139321522995481 -1.1933248246960417 1.5673411446857715 -0.515324663954635
P 9.365025734638047 5.758220418713021 7.660714907647032 0.1478875398443195 1.0697889742232092 -0.22711531242839594
P 6.433368714842927 7.273222443323308 5.781555687969714 0.20471046237063456 0.009355987293603242 -0.5426007260617687
P 5.765197741746584 2.0046975045544686 10.978661818761546 -0.4981746345379098 -0.1955632486537277 0.7048561045919861
P 6.057433133988288 5.424333361325195 9.775764867291054 2.126843017378253 -1.19964408204585 0.4641414562126006
P 8.928093952819365 3.4317169623936543 13.149633730422716 -0.53398958735399 -0.919718824905274 0.530980111103705
P 8.409833903048629 0.6566159354799144 2.610805373852538 -0.31536431467447623 0.3232282908035853 -0.9681311547703908
P 7.504812346605303 6.184880030510069 1.0016316385210071 -1.1108551481358997 -0.6277492350056544 -1.0379057523613673
Ni 2.5365153420716395 0.3862169801395457 5.863440480497066 0.2158140284829638 -0.09900521232131981 0.11265777010774791
Ni 5.535472149645515 3.046598264583466 6.767852905564445 0.23452548884953806 0.013586480435183053 -0.5410266967064294
Ni 0.34415184399884213 4.822853044631661 11.64780555620675 0.48349929191392216 -0.8149278591401127 -0.9095020322732724
Ni 0.538015287804257 3.621535220106992 7.571117219803346 -0.35846448829806005 -0.5740939115740435 0.16279633863535187
Ni 3.5743921433140846 0.735133892765674 1.9100929413857728 -0.35019839163452593 -0.5638485796969516 -0.44850606366818885
Ni 7.935357478239824 3.399054599674371 5.66496794261366 -0.4096453820472493 -0.07488209402087104 1.1976167672031761
Ni 6.3311915411596305 8.499708468790471 11.316873708918587 -0.38148948843832364 0.861680027693987 -1.8094531876333162
Ni 3.2154753239328433 1.9256396353673024 4.044121035095819 -1.320543780447416 0.8907337505268337 -0.5401234681658698
Ni 6.5327401924915645 4.420955546193143 2.7714683888899168 1.606087926436666 -0.6044280437812107 0.3078690347386956
Ni 7.863609185564009 2.6190987898286746 1.3879289132510184 -0.3909699171249332 -0.3453068678701795 0.2919695898996197
Ni 5.215484362745183 2.579256060283847 1.7672460961684855 1.4743553990856544 -1.3199611684710686 -1.6883601422740215
Ni 6.250260131528267 4.312502473484949 0.4145157471838708 1.6146404439923676 1.006249558908667 2.4807034312453986
Ni 3.5419974292296863 8.364250571748673 -0.4209716168425707 0.47785649180584805 0.9041564516906427 0.5641493987668219
Ni 4.181677666605649 6.9271619876798365 6.380308757366399 1.1724958037658324 -1.0358401280815903 0.280475216106775
Ni 1.985463719895812 9.093842291919566 9.599566233388071 2.340544884614221 1.9903567773923398 -3.1723168118948655
Ni 5.797361724249184 8.758090923350816 7.37071299711713 -0.12080482469491453 0.5844870818829094 -1.4066132585436741
Ni 6.674824700562591 8.081475174360676 -0.09881864477864911 1.2090723173382854 -0.01712868926048663 1.7319989620098946
Ni 0.9894139398016548 2.1219183773709758 1.4230905604643345 -1.4287576558511976 0.7679252651383291 1.457450910020832
Ni 4.690431575206321 3.618932567864314 8.957073839493159 0.6742278381831678 0.2040183213996164 1.1614912251252125
Ni 2.11100938818358 6.847171962902206 4.903929353696394 3.8721011583908993 0.5867591657465379 1.3860886562277612
Ni 4.844237247632672 0.7679716114871237 5.348990270604973 0.253694348468505 1.3554912430568784 2.1478777265613656
Ni 7.31723679986704 5.6390890883992295 12.056786514206456 0.2149730206389072 1.255833227642908 -0.04994907822461721
Ni 5.208387059289086 7.192438701904296 1.6152687407962991 1.234760209022693 0.5141560975678306 -0.19677320980142887
Ni 4.063580013778311 5.751870685581949 10.088446769385344 0.21795421475441817 -1.1237775126245226 1.0596868527922008
P 0.8114082161500329 8.386197759809273 5.55909260313731 -0.818621763051932 -1.458269035046753 2.0191127664791093
P 1.6332565749132484 2.375510844293199 5.5656979868610135 0.6966314026893486 2.57120240586792 0.7224164820732526
P 2.2429970822351404 1.2459874587607052 13.620481208913006 1.9347358455939263 -0.6900689189804825 -2.2786424906824694
P 8.784708118626998 4.275068581654089 3.9919941561360814 0.05492596261391831 1.6597039119899093 -0.6793741582707977
P 3.4631702916243183 -0.3627478865654101 3.991251200442693 0.8683427844261433 -0.7184600685286658 -0.7754040900138774
P 3.6444237930213244 0.4900701880330207 7.79361999046782 -0.6743936743370709 -0.38693277094108197 0.3205132058652673
P 5.02099609781626 3.0167969734784745 3.6936166891869227 0.22343683513554424 1.7216387018214931 2.616269216299572
P 2.1631731841964057 4.688502659182492 10.328145503378035 0.01677464835517756 -2.281084781575375 -0.40945512041331417
Ni 2.474060917510636 6.145351095916485 11.848574334792206 1.0686031814452241 0.0722161171529337 1.9632848608762121
Ni 3.2329001729902065 2.8904668178125936 7.061677576941571 -0.54993325516744 -0.747828494388454 -0.5148508096420101
Ni 8.332114277035888 6.064345852178947 5.4960779622957014 -0.9290246756872323 -0.562538088415644 0.7921026337154811
Ni 9.410895173099432 0.41133903476567996 13.357210936523858 0.06985250201676357 -0.5856047404271204 -0.6683065876027265
Ni 2.2815292563953578 7.6785255399091605 7.312182855299342 -1.7975268685093753 0.30042954774151487 0.867958147393215
Ni 0.5812156233274053 6.749969362122468 13.022388954766589 -1.8022389292730638 0.6149952777740957 0.4192019153874329
Ni 4.995514101922521 6.548605296055974 12.795644414702345 -0.6024261828598335 -1.3503611209191648 -0.6443212804317227
Ni 4.934416379062489 1.6935052055522652 13.023023928079695 1.1904274485435886 0.2065346600635669 1.6484553356592837
Ni 2.6266667857116395 2.4701107928302592 9.799389935414485 -0.11652059549726383 1.1760930341987872 -1.598573363227176
Ni 1.1787245880350374 4.824089765910097 5.618797630169611 0.21326683658107787 -0.9137698064106907 -0.17331240767532732
Ni 8.682263296308816 0.5471079579797411 10.633384927569859 -0.3674551218324446 1.4118048300469428 -0.383567711123591
Ni 6.9272727388390996 1.7084935291058445 3.8982756022414886 0.4847964134587909 2.470400506657494 0.8413559714246542
Ni 3.6808516951555466 4.777777322811661 4.8763061687235725 0.14584582682394237 -0.6274486730461001 0.9595873789654379
Ni 5.873060141605376 9.109596644324714 3.6438663455197013 -0.3655216522551576 -3.0318422766851656 -3.136207724877134
Ni 7.522006464080868 3.2220004130660826 11.108513861291987 1.6135184145727826 0.11057774765026761 -0.18517162100675852
Ni 1.5450432765603488 8.48881793812962 11.510024653599412 -0.6357237685706987 -0.48641312312660756 3.220458147486783
Ni 5.356507505539941 1.1349501923363765 9.033205109296803 -0.4092291204454372 0.03012407307889006 0.6068487374075613
Ni 3.595637907366018 1.0611530032141978 11.448225506730713 -0.6151366884479664 -1.4762531303289996 -1.7022872938780746
Ni 4.271782963929289 5.051138871662312 2.3744024097742433 0.9486769027005209 0.029092032269949896 0.42694273567511637
Ni 1.9617814303400951 6.6843585295224734 9.640928099667455 0.0677907343917284 0.19218764731327545 -1.0064400776529183
Ni 9.32164819726008 7.804726485889234 9.343861188102908 -2.095591772673455 -0.4369186159409056 -0.8468815292285737
Ni 7.4643974027376165 1.1354208847632439 12.779921441792322 -2.0315144825775726 1.2369636444319148 -0.6810911409619045
Ni 8.243550266678657 8.429326107078898 4.465028970021814 -2.7530303072134266 0.920680160377279 0.0661817380333957
Ni 9.209844901984182 1.1707320460415649 5.924037054361434 -2.3415566137081862 -1.2555545200602247 1.7335611642906918
P 3.9076516107994204 4.685983070309262 0.2244039988984866 0.7841034175600884 0.7845510466204682 -0.5896598843331006
P 8.608419960870279 7.854195337026663 11.50945705390819 -1.0527194203354322 -0.9294334810898768 0.5739396453843664
P 5.611161337738435 0.23667245856583427 1.2507829839567886 -0.0013542000350492808 0.1507556054207339 -0.33746628877983814
P 1.4943930797241163 6.4344854556988285 1.3858624812044382 -0.31059106165554895 -0.6599700427125731 1.6183214923883804
P 0.06513460261516547 2.7052262746821225 9.464419362518537 0.7127948998230885 -0.38173888544496837 1.2851456034537803
P 6.781431920616404 1.5638802028983136 6.2747712089258005 1.9657688036403307 -2.2737707644124647 -1.0594189438427948
P 3.735867333519392 7.904457904805475 10.973353146527543 -0.10950328363916624 -0.07581206203430814 0.8396752412881217
P 7.805418680634627 0.07936243487513928 8.607703770040379 -1.1516313016119972 1.2178860589751734 1.4382211152569424
