# total energy = -381173.67113142443 ev
CRYSTAL
PRIMVEC
9.20406786663181 0.00000000000000 0.00000000000000
0.00000000000000 9.20406786663181 0.00000000000000
0.00000000000000 0.00000000000000 13.47108368425391
PRIMCOORD
 96 1
Ni 1.4021753445266762 7.588652892705636 9.967928423685343 1.2783252380978374 0.567484633787642 0.5032610479218816
Ni 5.34701131426667 0.2466340492638698 1.7598619976970011 0.318405158383329 -0.6780019605136195 0.7749235508330331
Ni 7.410977562360672 1.154493872314544 8.08688014311847 -0.4602215523329042 0.3019475270479381 -0.09401212998210261
Ni 1.3491138920070576 4.764255743359529 9.321855307189614 0.40014078499092376 0.2539892540011045 0.2569264822525575
Ni 8.731245904984123 5.9690498477676925 8.25076962028323 0.2723865255613696 -0.02819651703887402 0.13017803837969838
Ni 0.7384166112024219 6.957419495186036 5.4829333101432915 -0.4217663336804995 -0.19949446538733384 -0.5448933787506873
Ni 5.493457241593584 2.007094311386504 11.13612715338093 -1.8899536562822288 -0.8696764156359021 1.2352332920043694
Ni 8.34941514040886 3.488857232658565 8.725275226016304 0.2564189464885197 -0.10702319752978988 -0.5707746173928234
Ni 5.159680916498794 9.12286059393551 7.068830137341061 -0.3373567597851674 0.3793025080893338 0.9395548857945947
Ni 6.736761166876349 9.369004986777169 10.189528328160296 0.15842623459211427 -0.4076916007549882 0.7089122769392308
Ni 9.113776178733973 8.40413332518408 8.364061573955171 -1.4612489436106835 -0.10843524738596809 0.37798404638822647
Ni 7.834594796049389 2.3536919033260157 10.971268487846647 0.6197579892700616 0.5732061096524514 -1.8385346783803045
Ni 3.2423906974338723 8.656738973822577 2.8911505735514473 0.3851705368343366 0.5735832904862121 -0.14383419571055228
Ni 5.788235930205176 4.964214122542308 2.6598247303293174 0.6227690081822437 -0.7945202420180382 0.41750010220497774
Ni 9.43416978883075 7.3707833970262095 2.809461708061877 -0.21447345529466935 2.8433948131406126 -1.7599080297153367
Ni 1.311745375575201 5.383698729660113 12.554915840804036 0.9673366838935535 1.9642845057853207 0.9003422201508752
Ni 9.223948873731342 5.419870717240704 3.477533467691542 0.7366804481914345 -2.6092081956877324 0.5610987848659562
Ni 4.688230140963683 6.756798423101017 6.989889606582169 3.3523310570704012 -1.1130418713745733 -0.2547238181742839
Ni 3.751090336515713 5.565966889980323 1.5754704588691975 -0.5070397982380236 -0.9952223545602278 0.5715462054515253
Ni 4.795531166718014 1.1948168946022197 8.984378026317177 1.6423723626899973 -0.17583337432496815 -0.12916708061668078
Ni 6.600522551057546 1.037583799477736 5.505336011866232 -0.049801496903159395 0.27763466133418635 1.0877743550570362
Ni 1.1943106708574531 3.495364508795837 7.387165717813662 -0.029760519091884225 0.5071282441867718 -1.3716956207308826
Ni 8.116754707314165 8.944973570024551 1.233824655560311 1.6202493055387126 0.14285614806799912 0.8127349652538518
Ni 7.6368361891393235 7.28243354746232 6.427566146420615 -0.4631911764841894 1.1124734004656132 0.25684960626803505
P 5.119431526755812 0.6092540829286466 3.8823937310264465 -0.9135895720790846 -0.4265424149129042 0.4824155719314401
Ni 4.1638927902026 8.076993133179776 9.784816250321585 0.8287565374930889 0.07615658985792045 0.24418178099237947
P 2.0379923679534357 8.861676753840241 8.28098473499813 1.2589830861257996 0.4585953295833909 -0.5054081761718716
Ni 0.25050804152154676 1.947185032210407 1.3156589453256504 0.43239964502462946 -0.34572132969977876 0.13942886755400502
P 9.19451426399019 6.45383731796038 0.5245048648002605 -0.45966028051279545 0.16375818832798894 1.3551330883865114
P 6.562564974268144 0.6884661336960956 0.10100544318305235 -1.0366309994140017 0.45446510946510127 -1.2763719710262083
P 3.890044152420082 3.800856732660306 3.140419747508529 -0.47640793228477946 0.44838522181960844 -0.3802988105643322
Ni 8.385421454763891 1.3337430983023284 4.012780400355748 0.6984401737633132 0.6060259843959499 -0.7159406445409219
Ni 2.092057063894501 3.592881610174043 11.549851854690102 1.1404115216367778 -0.29264476158977343 -0.6496943718181779
Ni 7.970630922370285 4.271414713591011 1.4491924855337825 0.0641402821233347 0.2908167072420992 0.22121668755577387
Ni 6.041872434469379 3.1903785086761336 9.280297098964708 0.4989184546824698 0.5795623908877825 -1.5070446617885593
Ni 8.445063815965476 1.089982559095115 12.707367422557498 -1.5095404316272196 -1.7833899148873609 0.3740705702664332
Ni 1.3928976438953187 4.973721924875831 1.5872848006652394 -1.2392236441106852 1.3696153411630863 0.4250195505104745
Ni 2.9972219358094 1.8452499781506015 7.7317420964013435 -1.836216314659773 -0.4726253253138958 -0.3342647511234049
Ni 6.592496603685976 3.0260030567163985 12.980103288508337 0.08069458693759006 -0.00103898278747563 1.0090163230205267
Ni 0.3265124745607933 0.8550293926400306 6.862170276184383 1.0003285654385417 0.9426767192530281 0.48354325777798013
Ni 7.092028990953499 -0.5947052125040565 3.316325135560428 0.5836013368438465 1.3419320163152049 0.5159890370115113
Ni 3.2267253735503703 0.5062780487682395 5.449403810510383 1.6625323825776401 1.6170215426300347 -0.6338499485867536
Ni 8.218238762037725 5.395028937474797 12.3449149029319 -1.8265600225169318 1.5815110084282504 -0.02218296385494244
Ni 7.440771130757203 6.470800415444103 4.0929736047812355 -1.9444296758429223 0.9210113184644525 1.0960412230515189
Ni 0.4905786698328164 7.954321313720716 12.546374465619612 0.47490229427353053 0.7851966506242671 -0.7300462307043686
Ni 2.3220575213121513 3.132282430913109 0.9377840892140367 0.879635326620827 -1.4405574766996028 -0.604750717227952
Ni 5.595272642768262 8.035998213921774 5.1369827641902726 -0.5264943074182095 -0.5792749415543507 0.21287448623866564
Ni 1.7778025672115267 4.527692785396088 4.7627554802614025 0.6309821401206552 0.49576576798610095 0.941950639720281
Ni 3.6497627509496278 3.3301698947763883 9.822440639846253 -0.28597043489339136 -0.1235124534340647 -0.7971144851077756
Ni 4.902335172795665 2.5684504239921506 1.5263676760336529 -0.8543438990438899 0.8899094548533254 -0.28175254015730183
Ni 8.337081689172733 2.854512860125672 6.162320551078702 -0.6431318881093118 -0.73856686658087 -0.20596490360302594
Ni 2.9559693026449705 0.9264262691950931 10.301001557978312 -0.28486948851972876 0.2528829083108032 0.16315243642318997
Ni 5.142128758657526 8.703716537336911 12.135628200743286 1.0854567626674532 1.702955780700009 -0.18060534179231474
Ni 0.41921308710924854 3.2195185882385124 3.2564186176047576 -0.11278683948644447 -0.7493292473036967 -0.03165439368048742
Ni 2.390793501783359 6.563549809553417 3.456666924932266 -0.37442409695111 -0.16047668936323978 -0.07157514113482513
Ni 2.83782588468455 7.680573920687151 6.308198587404667 -0.8271868790131237 0.46897924392087614 0.4022334058538944
P 3.527367053533168 6.147461503559591 12.766263333837253 0.11570761267766526 0.06602490074055727 0.6573886551386421
Ni 2.7265947218572135 1.8246972941130806 3.1756869751962005 -0.15827762482939195 0.36908083036132566 -0.2431723658912586
P 6.640606267574968 5.61445392066087 7.5033394652035375 -0.25915048648706984 -0.43194918775077223 0.8129866762533419
Ni 7.1627254379271665 1.9957548995037337 1.8830418817144445 0.18027366948450887 0.21656067684100125 0.04189278357904398
P 4.89647218142446 2.4350558652121266 6.934469151411938 1.381427760416982 -0.912602525575467 0.7050059999062891
P 8.579341965281818 8.913587697849026 5.395667699800011 -0.4614621096082246 -0.34204079552439803 -0.5916987691400003
P 7.369816969877109 4.3592123190697 4.3049948355983965 0.07527804390770906 -1.472299287887574 -0.5644108799583247
Ni 6.17359185285763 5.519440325802236 0.07399978700997109 -1.3046024266268113 -0.7416295646665937 -0.6864079251891275
Ni 8.433080119316639 7.291978166068191 10.504253152722498 -1.3274608192822235 -0.06524842758584891 0.38558114200919397
Ni 5.810611019723856 2.7186516110984225 3.8414411504816433 0.3778413501627751 0.14936540994142664 0.21211318259260886
Ni 6.563420952600203 7.537331009054397 8.74472710351066 -0.21650925477777552 -0.45934043527953144 -0.4362372736031649
Ni 1.3625334232774138 -0.34314422559339536 4.4416052957679 -0.41613356087475434 1.2407171979370761 -1.0786551663645874
Ni 1.368258353627319 2.2087830553695755 5.2928426123562256 0.0828057197433219 -0.15639660575659514 -0.6436869892818334
Ni 4.645826999288422 7.459179266930532 0.599229011968652 0.5445514220302364 0.09888385625210713 -0.10883582525849644
Ni 2.151165589147058 7.474789366405514 0.9492937763564101 -0.6975176619490439 -0.20903582921886582 -0.15283768476074322
Ni 8.64903516883404 5.141153127440339 5.883415198289369 -0.39806513340881766 -0.8199168277142718 0.9722302645404288
Ni 5.227119123369783 4.405527189681794 11.23655458108814 1.0193837822977798 0.9483205478023667 -0.5712302168730033
Ni 4.8851603817459495 5.467759483495617 9.178940980787553 3.0369258618556603 -0.5558473066590298 0.5052587950782008
Ni 5.220252888577131 7.294141122068556 3.030913427040634 -0.9316939949892793 -1.102696266474191 -0.9904971811704169
Ni 2.855193961164085 5.985120150647008 10.756809099393326 1.470829388210267 -0.47986349493354785 0.8801513470252972
Ni 1.1290262159187443 2.20380365453469 9.46609041736211 -0.7695949395312681 -0.45117486874960366 0.549855350741653
Ni 1.246414900296059 1.6370355498940852 12.310037927731102 2.589340767339844 -1.5287252320857865 -0.5244474521915098
Ni 6.111777331587594 6.839570607404387 11.16413421216184 -0.8606790972332984 -0.4249832979559004 -0.7329901438240409
Ni 5.6967566974918205 4.336680760393546 5.855017887021585 1.3427573404299777 -0.002215262483763927 0.647501477931917
Ni 7.168588429298372 6.715150015008862 1.698838105875609 1.084364815154855 0.5098494997726767 0.29991044201325123
Ni 7.3037041488106 5.107199320268635 10.203093283706421 -0.026864942711644055 -0.4326896654612225 -1.0566290398024833
Ni 4.236522091474467 3.9982195646426453 13.114746839327722 -0.8579357301602063 -0.4648953036594896 1.1960813043952563
Ni 2.884057918683864 8.592411741964881 12.049184513680144 -1.1609122126932911 -1.3917715655451515 0.07330292245920925
Ni 4.147610793757291 5.902734537203278 4.794668745538294 0.023177466557727823 -0.5073681281117198 -0.06119199812828816
Ni 3.6938134208124023 3.0589444163985693 5.2567000777935124 -0.620500523863041 -0.28778923326968503 -0.6489896324416694
Ni 7.327156114295421 7.674545256090386 12.938396894787235 -0.5249038230026379 0.22940282291099204 -0.3736406818178662
Ni 3.7204223816509483 4.37154577030583 7.350254643565713 -0.6500862079399579 -0.16846793509883243 -0.06130461244675248
P 1.0655457583250216 0.1703939920816047 2.0994681795178827 1.3907937750129145 -0.6338178097972375 0.6192900484947077
Ni 3.4180871531402044 0.44482248615358294 0.5867317283205794 -1.2119601804090419 1.5289160079403539 -0.3199452491769393
P 9.242449050585536 4.099326252574651 10.890872793923252 -0.4860308000865242 -0.04845758128075526 -0.885897505480455
Ni 3.14113674441248 6.4224422417167695 8.525741154372321 -4.072590640701651 1.255886963698979 -0.9909373540316289
P 3.5302111105719467 1.98497693577425 12.345615332513292 -0.1704461418711258 -0.664480528988417 0.2658957756307034
P 1.8225067259084544 5.710618024030337 6.901680579260006 -0.6638611502368631 -1.3319054853171386 0.012873770638874602
P 8.969990227084105 0.22798844813390562 10.467772828861005 0.12121440142850738 0.7415436898210068 0.45300780819328434
Ni 9.125400916727429 3.4482028639197693 12.98019809040963 0.44589253730474177 -1.0114262180136002 0.46829198804586447
