# total energy = -340892.258028946 ev
CRYSTAL
PRIMVEC
9.08159562881699 0.00000000000000 0.00000000000000
0.00000000000000 9.08159562881699 0.00000000000000
0.00000000000000 0.00000000000000 13.29183318453093
PRIMCOORD
 96 1
Ni 6.238575019382724 2.172399459945996 11.644736412777403 0.44111311363822736 -0.05316475694843747 -1.1905688592174593
Ni 4.682207450237311 0.1750150661237799 5.936398540109314 -0.7250696034253835 -0.2614703928694981 0.7019031926112492
Ni 2.7923636817464854 1.6168873238414319 4.881970773192141 0.03042952013445082 -0.18822686289331456 -0.09333258741657474
Ni 3.243165017784257 4.351991543799442 4.742791684263815 0.5247143326996512 -0.40783635386296857 0.17514560422932418
Ni 5.183938375761169 4.571066880313859 2.7351405463413805 0.015781174093656695 0.09534601830217773 -0.23457511114055082
Ni 7.370605022776109 6.176574964564337 2.5930635201796344 -0.6051708354845062 0.4335617836535307 0.1659405406912884
Ni 5.132091545094966 4.764686503681077 11.255723530374883 0.31069416289231655 0.16664862250190654 0.4437868038156486
Ni 5.639997955791887 7.948875638062579 12.325676285385217 -0.43725157380029217 -0.29453555085458305 0.5076002987271839
Ni 1.7533655461661288 6.750767943317417 0.4901945743248249 -0.7375602796932265 -0.9604893219544168 -0.8907941714511238
Ni 2.574441707904096 1.4345288793192124 0.3859387622097538 1.296190291303716 0.7684772809870571 0.6427814467484285
Ni 0.879077589906795 9.182855636386565 4.65186220588838 -1.0850073338348603 -0.2816640942085536 0.5626702431181342
Ni 8.496341480250477 2.1862398120103315 1.5659241324507278 0.8511662726468566 1.217731278564864 -0.7957944807447713
Ni 6.591594812981714 0.9584534620510956 4.864226243075012 1.0562767986693873 0.02812555459162253 -0.8730419896740255
Ni 0.799590922293213 7.492325651856353 2.7336121137610476 0.5575864008373236 -0.6648723651101969 -0.3976966943258054
Ni 7.673367264981376 3.8343405807632607 3.754171885301889 -1.9703793058291488 0.47896669415089127 -0.2101583728590832
Ni 7.716078010229782 3.7503085744303877 12.546002157647182 1.033206547113485 0.35887972145860775 0.6220077045361867
Ni 8.02902072137476 -0.2920577651854289 6.91871843603513 -0.2035663214638623 1.101477563575742 -0.02136843837344707
Ni 6.82945997129476 0.7880936219563042 0.23270772003395437 -1.0775549913218732 -0.017649851871279282 1.9321498300343047
Ni 2.0893210211766102 6.310628400799023 9.306170993696794 -0.48001159047563774 1.0616218650313844 -1.5527213378900677
Ni -0.07921421973829976 4.778490529362041 1.4721502982573473 1.0875704665763464 -0.370629148685052 -1.1080143362529948
Ni 6.234733504341245 2.158949616502898 6.9668617919166635 0.7848531512419193 -0.04709026861958342 0.7108727430997113
Ni 3.3119308615054845 4.484673659061873 0.5833535844796519 0.9204171365238794 0.3440128316491043 -1.2305266305573195
Ni 5.720633445279575 5.958716561892848 5.018744147381728 0.4492200590160779 -0.9990239876945053 -0.4991398266646565
Ni 5.409280013407077 2.8018267046146206 9.407560654163895 0.5642044203744735 0.3872292191355783 -0.20832131965034448
P 0.17917625333892337 5.551107295683147 12.441116082780624 1.0679148971289478 0.29816517718737034 0.49288947487957047
P 4.13558619646279 6.308503307371822 12.584043146313249 -0.43788149407480725 -0.8276581622225876 0.4008524663459678
P 2.3146081692474616 8.566796500798452 1.5930790121801046 1.5125157122054596 -0.264887388970847 -0.6607963952686104
P 6.524954062687687 7.935807221644876 5.661536776652113 -0.18829628267866927 -0.3432610410847443 0.6883599067091758
P 4.5922814882025 1.1563051090810292 12.577835875554737 -0.04791096474866587 -0.6510100053058078 0.5045645972246536
P 4.152078374513206 5.923389154064588 8.350182276757417 -0.23954839598542615 1.1212776290208042 0.5826569706527062
P 4.651702369801548 1.1946476067290777 3.6126933363061795 -0.13154175149644443 -1.175380324402479 0.8548588910070956
P 0.20428504952493096 5.477065044777288 3.529088164977915 0.22803576736013634 0.5644646160143956 0.6512599165330848
Ni 1.4804000199208922 1.150665438062688 2.6253095425384516 -0.45777309079241163 0.8848243270209342 0.2513980962351606
Ni 1.8389323421964252 6.345828666285483 4.812813512690092 -0.19117591821930946 0.8666278586175655 -1.10180975010418
Ni 6.3692773467514385 5.587460923841635 9.242277426145197 -0.7700453968051254 1.0880466348818165 -0.21107317136386874
Ni 8.573398820976125 2.3783518904676537 10.372521079636314 0.3737504679228531 0.498920768675315 0.6377048035564694
Ni 2.514712052046395 4.848446062138668 7.044339610529832 -0.6058043553034469 1.2972171899063336 1.308632887942443
Ni 0.5138811926018594 0.5010979382936185 9.505362176113533 -0.28666514696757084 -1.0481374573917046 -0.9503059536635118
Ni 1.5328825622960867 1.1798446055054115 11.55621264914071 -0.19572214282909517 -0.04210258559700491 0.18737017131997408
Ni 3.852621833194697 6.809235257352978 1.5658442144073117 1.2107453341653343 0.4856785589534281 0.32102665516657614
Ni 5.7033330051991555 7.528207037031019 7.929549093949644 -0.38183838713731016 1.1135301238649018 0.15723941337286468
Ni 5.092586603179047 2.95259935879579 4.942196284182857 0.07529527029888969 -0.11469665491464763 -0.38327640513541733
Ni 0.7196547156854154 7.34813715466117 6.730931013518121 0.6360418140317499 -0.5532435504875955 0.35755868865433904
Ni 5.0430464978569 4.348322579078975 7.215857354094572 0.3355937543474736 0.18658367086293673 -0.450673760743469
Ni 8.57046546551892 7.348545826474094 9.030325693409825 0.025988710754277822 -0.23861379998629872 0.096780179645543
Ni 4.973109128271959 0.5194391292576163 10.358565391304777 -0.6123192736038293 -1.2010486757028607 1.015427111642877
Ni 8.4092489761186 7.250746120843626 4.539493804206989 -0.8232587476033112 0.3700365094063756 1.3169090119083062
Ni 7.403898153135594 6.273076001989293 6.929245821936035 0.7300680850812394 -1.4001932139499436 -0.5167747661376003
Ni 2.3323172811408046 5.144388025866037 2.5723683795731986 -1.4646543697478067 0.12819546073203084 0.38411355632473204
Ni 2.594893461741947 5.139402229748372 11.19867566976954 -0.7428032732597207 0.1822246225632926 1.8497796551665049
Ni 0.7917453316446699 3.3273332480547713 3.8711137786496836 2.2561949603122304 -0.6541359525292992 -0.3663508330246723
Ni 3.404054569734239 2.7846624884718416 2.798595472813774 0.6710687237288959 0.4067017260378931 -0.5652192347922331
Ni 1.095394845763772 3.052642218599414 8.231114381822838 -0.15076306161990163 0.1417765418505752 0.21651568253567874
Ni 3.439027795324631 2.3904939841093973 7.172100409005082 0.5665662357384308 0.3620666038270216 -0.09022978012153492
Ni 3.720675327195527 6.684009132277436 6.13870016910219 1.4671609382197441 -0.20300839207786328 0.6594095422234129
Ni 0.7148187658991563 7.560255988760049 11.57524676586751 -0.02111492760174428 -0.47146858600163316 -0.4468091355817402
P 0.3249186115827994 5.503456162296291 7.905796180022958 0.27061966346893396 0.26359052453629445 0.6703272175771811
P 8.414879565541098 1.6529049329537389 8.063929467634669 0.08927744351059463 0.4344403296037421 -0.7673938181148913
P 1.8360080683350628 3.0913752248687003 10.535359542054149 -0.3532515766385529 0.7069376697113631 -0.7601649044666198
P 3.878458973367292 6.15159149440096 3.7513411518777073 0.7388756560705404 1.125513264368707 -0.01158179130032844
P 7.144019206499745 3.9539542796079896 10.401962705198892 -1.3541912932985323 0.5703442147236242 0.30268929030996905
P 6.764735437723552 7.722208087423631 10.227135628109059 -2.1177438832904625 -0.30964129614777 -2.2229526533193327
P 2.4987556881507005 8.3836025494587 5.9593141308993 -0.6077427099767405 0.866062987253031 -0.9302606049768624
P 7.00191039475255 3.9401320907353394 1.42387435107651 -0.5700817050908569 0.2953655029550462 1.105717055578386
Ni 5.374252298241629 2.982713930610316 0.48097130558693807 -1.5423703336730468 0.4093633320304563 -0.9026824382482778
Ni 1.4097633674560606 0.763635976192221 7.079974884457159 -0.4272021599840901 0.7776291226896543 0.2461473893591825
Ni 6.919640218013168 0.5536958169360159 9.073524120354985 0.020394247385635847 -0.2697084645085742 0.014517476889884676
Ni 2.896920094683951 1.4795281867199892 9.447037443132702 -0.1792673397071816 -0.6955307134260023 -0.3240333032033839
Ni 6.198915690337477 2.03406859206938 2.407390293174815 0.8433601463388767 -0.26359001031566215 1.370370474161556
Ni 4.054696422291505 7.117964108026925 10.48498392991447 0.585659504924456 -0.05033654347102299 -0.9452172262866947
Ni 8.143376176226543 7.244879409929216 0.24858779852456955 1.0658742125498353 0.649278624436998 0.6895732102909866
Ni 7.754111733619177 3.907774364747657 8.244937478855073 0.30252885347270475 -0.5749578022362357 -1.2302448376508426
Ni 3.19495082545515 8.477124823447237 12.413110257520781 -0.35847528693133746 -0.48651236770863304 0.0196069755976501
Ni 9.191846416270877 5.012523254229451 10.080779353986212 0.09634694876286631 -0.5763932491311816 0.6350061736783837
Ni -0.465595255665595 2.30687973118529 5.97576907440676 0.4377727364110848 0.3295678598683679 -0.4121550358429805
Ni 3.667411767577857 2.9861013658596582 11.803679778738285 0.1280316814606569 -0.7813659640242673 -0.1053956892286959
Ni 1.2359416230260165 3.5142052457108326 12.730957938580424 -0.6691103144509444 0.2289027433461219 -0.5026113301530246
Ni 3.3401201350013494 8.371814638054824 7.936407515130081 -0.10153234961854773 0.09785310099474762 1.7698803104367002
Ni 5.666452644481788 7.938241089330731 3.6812394054080126 -0.42712271289640635 0.45202847499915055 -1.512606215036737
Ni 3.174381010871344 8.502744005319608 3.819847261957832 0.4044872348850776 -0.7302339212351423 -0.8225072141492673
Ni 3.390323196820016 3.9655878038825394 9.210602636164888 -0.01874411337672256 0.5111646190396745 -0.10877411878262558
Ni 7.381266816295486 6.181333720785934 11.520085152718707 -0.11381862318506848 -1.1090846864990382 -0.277797926384928
Ni 0.6051303431509581 9.134541546503188 0.36957009386279915 -0.5488703611205644 -0.694312781858501 -0.04599703555540465
Ni 4.658658872217087 0.1387104785828424 1.4695720331975934 -0.9004746319636815 0.6957587702764083 0.11993476338513538
Ni 6.368323779187951 5.774569042989609 0.423216896825033 -2.0217031529141054 -0.3790425695597278 -0.3609918827056041
Ni 7.6765094971429635 -0.20840446139919783 11.650012819962035 1.6677923454249988 0.33288689693927187 -0.8953938750066643
Ni 0.2763266248666346 4.831835823342296 5.781283066796147 -1.2092512661183108 -0.30819170818543695 0.43971057686374593
Ni 8.210816106954729 9.014718970954075 2.3497439554034383 -1.382809214145541 -0.16597165103953998 0.6560871627183991
P 8.33928436174613 1.6824746090177003 3.762798493192908 0.5151781110744418 -1.0147144018465686 -0.18750978222163192
P 1.7350388857554795 3.212905140436247 1.5228455825706906 -0.49492707413488957 -0.5431103187083357 0.5451312057931063
P 4.772741879193586 1.0595770317600055 8.19663519504629 0.5376780919491707 -1.2661420657680837 0.09575019571913188
P 8.59833688316029 1.493477517934438 12.527739068407431 0.30229822551913743 2.1003105183053634 -0.3440693959186526
P 6.363628594137254 7.943154232681652 1.3783228826484943 0.7437054733590159 -1.0704070674231823 0.5544344854719032
P 1.8503842345541204 3.214058503108275 5.984089632517879 -1.7703891317523188 -1.467222387585299 -0.5815079446499276
P 6.758487299783747 4.17502756720781 5.776139250910817 0.7922679556487517 -0.3883185955450151 1.0421640134170889
P 2.169520594063847 8.454175630752633 10.265615257854334 1.617254484576447 -0.4051276966825539 -0.3759924698794944
