# total energy = -340894.21919732756 ev
CRYSTAL
PRIMVEC
9.06883122759211 0.00000000000000 0.00000000000000
0.00000000000000 9.06883122759211 0.00000000000000
0.00000000000000 0.00000000000000 13.27315119309310
PRIMCOORD
 96 1
Ni 6.347601315898149 2.1064627275211483 11.422860148400094 0.8294952154313263 -0.7901455099891102 0.6605955921117139
Ni 4.670493324667007 0.21363263881033337 5.731041421302682 -1.2056954304462524 -0.35955000805275494 1.0018221192649328
Ni 2.8046810973611254 1.7016935921537975 4.825480553854862 -0.035540101888138796 -0.8543724382889801 -0.2975324286993779
Ni 3.4959255361389405 4.5761230689675765 5.246478362350612 0.6174655936914591 -0.00739295002996146 -0.7278710774299206
Ni 4.970707907088102 4.544500055165548 2.8466262546416368 0.6360325580603691 0.6411446824759539 -0.45362898671705104
Ni 7.346877669445022 6.148694644914524 2.467823903162829 -0.4671046526059826 -0.18275375559388526 -0.0666375946238917
Ni 5.341151517006448 4.29771902517392 11.733346088845904 -1.5000654022572488 0.5669143631064688 0.06116705842762369
Ni 5.635208363158093 7.768242765597493 12.383557694744836 -0.4578185993183663 0.3338410333224251 -0.14007987087444262
Ni 2.0013912512061767 6.387259313992863 0.36248026939079775 -0.574864471191481 -0.5163993850760525 -0.778804373944678
Ni 2.679513091483408 1.5839348212276878 0.3534703857623734 0.28624631426259733 0.012593520394294441 -0.17946377198870384
Ni 0.617484008477436 -0.18118436138456365 4.615526232910345 0.7707755901029305 0.8613668673289423 -0.0769142939595514
Ni 8.620785433077025 2.747112157981923 1.7366720734369707 0.3778143535795816 -1.2364864476851802 -0.7894050322786599
Ni 6.677153566701683 0.7977188632531461 4.6243130232954295 2.0968295017352987 -0.7240460472568756 0.31102660653107084
Ni 0.8794317514838373 7.282189697707176 2.361386660894721 -1.2241101855080145 -0.3360370125324793 0.8784577613729581
Ni 7.743113034813031 3.8909638158109723 3.9040183980788306 -0.2896761658797527 0.38416986348396415 0.010821258985220072
Ni 7.613864054971758 3.8113122728734274 12.903029404981147 0.18062231107317925 0.10866484689827093 -0.3673993288938447
Ni 8.236511855837746 9.021246873705069 6.6068565229717064 -0.8685055352562527 0.4582281760519592 0.2204759527350074
Ni 6.779722045652342 0.6390850571080792 0.6188352643009238 -0.1853870794516743 0.317365404264905 -0.9618005845666726
Ni 2.0748759890432398 6.689550658719857 9.33227240959717 -0.9345795440671903 0.19695215858145435 -0.38583156745710323
Ni 0.1494606835581005 5.076468614561364 1.246499942492773 0.021723764830336778 -0.24948159593873806 0.004751655752372461
Ni 6.292444685572957 1.8309697784881596 6.780695131221873 0.24594195821659579 -0.6029509450150519 1.6909222465742426
Ni 3.4505632433262794 4.136729136727228 0.7093158983715352 -0.34707424418324745 1.5148878119820621 -1.384151072885416
Ni 6.093882630168478 5.591940970313391 4.793797685768034 -0.13815308616537497 0.2916854830002977 0.6460770867805646
Ni 5.340643662468762 2.9807705894729675 9.255951848296988 0.4621344530849009 -0.9250129834246779 -0.24708121402736152
P 0.09379619869522325 5.69160742333441 12.376775116017411 0.5598217179257455 -1.0937711960704195 0.72711800131398
P 3.9324265112806813 5.972033816447784 12.508909797892468 0.42336427429523865 -0.4004395471782652 2.0616660664602877
P 2.256316091462853 8.452667443440658 1.3234190466409423 1.265034177415886 0.20989817721916107 -0.46034342262274913
P 6.687328795117478 7.695619566708292 5.9075081767853765 -1.7882485285312428 -0.2088424822611371 -0.13873929768614815
P 4.7641108673909365 0.8813434610649866 12.773482967482089 0.06486199078070765 0.8600643464674349 -0.9679786883529266
P 4.08481914791082 6.3396751575778225 8.40785109425601 -0.30725299842125153 -0.5375443945847839 -1.2510759154635809
P 4.7674119218859 1.015854176669934 3.664597631351247 -0.6697785441625627 0.43877752352651533 -0.29289492992736654
P 0.201977377170423 5.482507386272931 3.708199664060962 0.2968991659907532 0.036821539703723684 -0.2069439796868436
Ni 1.406067838233942 1.0873437716803709 2.435557002357662 -0.04632433698783635 0.8881464494156317 0.9908165121830486
Ni 1.8271336629624186 6.4786640619454445 4.745748298321149 0.6837825717511384 0.3837263481886424 0.5885759072403024
Ni 6.170804454965956 5.685767096151013 9.240329879964504 -0.3890927547068783 0.27694843390043916 -0.4525385818663497
Ni 8.726310350943502 2.4277895485803636 10.20009787112866 -0.6921029186913759 -0.4493527279392003 0.10682676524826765
Ni 2.307228508865947 5.296596350155469 7.293357056237666 -0.08016673945857807 0.39548657404836407 -0.9107955542737153
Ni 0.5328826975636516 0.14141028225266283 9.132843373946212 0.6242062548494024 -0.37531292731396654 0.2907580860900218
Ni 1.1119384414340565 1.0396326516309091 11.469794069630275 1.048826255928613 0.05029540582044241 -0.18475047430893987
Ni 3.985025731255378 6.774226334048088 1.636353571464885 0.7833886508812509 0.21783542978836676 0.38664635004891473
Ni 5.552609450135759 8.162755053069779 7.889043222451106 1.0029973705199566 -1.3035215348578066 0.23911979308843978
Ni 5.174974257210527 2.868906558716436 4.862207505760643 -0.5165657354505878 0.28572360898990795 -0.4409529339112793
Ni 0.796125469641154 7.483535884237902 7.053392159648276 0.7658634975132939 -0.9723629334635512 -0.05965524976878758
Ni 5.183689403830473 4.590370202515896 7.284875885458297 0.006567883025504818 0.05273384005860596 -0.7882320950164812
Ni 7.98395398047993 7.452792547045795 8.83456952136556 1.3479602247871558 -0.9548321236686393 -0.8093225971381932
Ni 4.780697759345026 0.426455431009677 10.458659312628415 0.08937051744503319 -0.9941915993028683 0.1397152884461723
Ni 8.12961754448572 7.24699356447928 4.382117194272629 -0.1625263728034169 -0.5247349015249414 1.0772796261732995
Ni 7.4078111451363995 5.806309998203369 6.923368701637032 -1.0397410057978933 1.4960601377525977 0.2765334578502076
Ni 2.301859760896116 5.135452291581264 2.612023757840357 0.16390654098039512 0.5912421412185559 0.7243460949957977
Ni 2.249251472090389 5.243761340573989 11.314298985904731 -0.1786639017952278 0.2261408643302686 0.5428796907547683
Ni 1.086745228832383 3.3619244888378854 3.8202115167632846 0.20050953691540951 -0.41626854379072176 0.6933756147562122
Ni 3.5933338502334604 2.767789092730597 2.7198149765812616 -0.5008688935406214 -1.3271165485689274 -0.06232045530577654
Ni 1.1388910072555736 3.400430745391776 8.369703963410913 0.3291328292134783 -0.6248824549808206 -0.891110160029646
Ni 3.7415366869276836 2.613274349639411 7.131956349745309 0.2654329770616719 0.14810222695828684 -0.03613068428428616
Ni 4.231607246964344 6.856299254870675 6.238128735884259 -0.204689379324712 -0.21326529391918111 -0.7608020238299865
Ni 0.7138621033669345 7.427064273413344 11.357596305891834 -0.22986664992128797 0.8445544237572938 -0.23565317469607802
P 0.18945604216713618 5.562059172069144 8.186614240626922 0.7493888968970384 0.8765931973603935 -0.5129214538297812
P 8.646631601512867 1.6774616756413163 7.898414045554529 -0.031103149162707722 0.11480541257837001 0.4371327888342407
P 2.0305294053059524 3.319337258320442 10.389625557060933 -1.7052075528486632 -0.6522413066097476 0.9182167864384508
P 4.082406838856808 6.260177784767791 3.930286267157573 -0.8177177631804239 -0.2241947963474913 -0.43884720042218617
P 6.929176381028721 3.9857603065688174 10.391881882221229 1.3117575496143536 -0.40474871607658036 -0.5123905210269756
P 6.422391965403549 7.767136368211819 10.124560856829481 -1.1383196721047557 0.19751780127693724 1.512090708852899
P 2.460999607812664 8.434167028139212 5.690624362050745 0.294127516782887 0.296636913468302 1.0461458808829724
P 6.905942035929553 4.096508871108644 1.8205587604655817 -0.6114476696321534 0.5008719788644147 -1.2588607016153224
Ni 5.27406030504562 2.856663636825774 0.575498948340392 0.9830759490056811 -0.8520198788964036 -0.3155445490060824
Ni 1.4947972810326373 1.025666651844524 6.934225906146292 0.011795964193663555 0.7882099835292942 -0.18976001170838933
Ni 7.039525917003222 0.6736010280087162 9.021323051885721 -0.4310187055167029 0.6849927900091558 0.5819653439023202
Ni 2.9054720854298806 1.6007030898023797 9.394749400329873 -0.676785571608015 -0.6272743522517649 -0.46914122342003717
Ni 6.463156360883939 2.185198318524651 2.6990555154702136 -0.8825918381459897 -0.8974209327390221 -0.38318050298750134
Ni 4.195304716350773 6.665472912334888 10.55632246087488 0.7802449630459466 1.2708379285818567 -0.40664901842308676
Ni 8.128311632817383 7.41841260861061 0.15395519621662798 -0.34013457964062066 -0.763342530863653 0.6917637901844023
Ni 7.801017520940348 3.7121083302349436 8.121615207984743 -1.061362697832727 -0.17532686700219483 0.35812458846013806
Ni 3.0440528924011456 8.236339548048173 12.513554853146095 0.7937216573761428 0.6120143407689008 -0.30493951979672645
Ni 9.098848860829806 4.786882702107567 10.19973965230297 0.02406963935469403 0.8134556454699604 0.8023824183749342
Ni 8.499063582990752 2.3194260866014584 5.6380496279198296 1.111791286796924 -0.9434099978746269 0.2941552846970289
Ni 3.747467702421382 2.558217476455551 11.521240641181043 -0.08384470253079754 -0.01882741711914822 0.5260675042934359
Ni 1.1757013924068311 3.3639559069886324 12.59008762509238 -0.5920903481514641 0.26500848792974363 -0.02928666477925924
Ni 3.1112347926722754 8.564268478097315 7.9581830833416385 -0.11259992028661898 -0.3481399664436004 0.04014546187063409
Ni 5.560771398062867 7.9014910999230485 3.697142945269039 0.019480477322114838 -0.4496046960490063 -0.46093709034269004
Ni 2.993113268504961 8.58881780369585 3.480790564032773 0.5665739490479145 -0.8494346346677306 0.5114708374261836
Ni 3.4404152214035753 4.273369213858047 9.122264582549576 0.44203228301838715 0.6565052240924242 0.3766997803591642
Ni 7.181489397948722 5.961033324408248 11.503136533795614 0.3420701061004367 0.5806283702584516 -0.5198374642233241
Ni 0.48398083999993485 0.2582213603361249 0.38063969664551023 -0.7674717225406782 -0.6785904860272378 0.2814797461118894
Ni 4.381805226485193 0.26754139798577936 1.587880669608893 0.47879854400414323 -0.1601344755324726 0.004015034696664053
Ni 5.990733746031892 5.56936864987942 0.3543745482160764 -0.5717395524092541 0.5730857820245033 1.021994994668382
Ni 7.720758366323784 8.91192211563697 11.530930687136726 0.4844629413787721 0.5768061682988841 -0.4636778863126208
Ni 0.11907012389306497 4.622274350079858 6.117276586693776 1.4038796616625953 -0.34461678378169036 -1.2537418923315182
Ni 7.989440623253153 -0.31751972579277127 2.5138282692124223 -0.3270594916242174 -0.017317665342841144 -0.36245329774247903
P 8.606411335894284 1.4462790350214947 3.564066918733057 -0.7524017155814333 0.8675076901193577 0.528466857763548
P 1.671004667947871 3.2494075022471853 1.6127011532552287 0.5883041416361545 -0.34130417446868966 -0.5401247537174505
P 4.746789400123407 1.0447293346698365 8.199555462506902 0.37779969829156224 0.3366111398683945 0.362283347823518
P 8.419439246546299 1.7929260323168057 12.638070810072746 -0.5068940166887786 -0.01580148580863085 -0.6543007602419376
P 6.106497374131375 7.67139671902684 1.3235895406643088 0.9720153203161453 -0.04891138098872221 0.8775663599069402
P 2.022920656071682 3.247729768506613 6.078187204304649 -2.1228562648163636 0.37791925458856207 0.1326771506524683
P 6.852680791289658 3.6930184409165405 5.970435888420277 -0.020027608074836476 2.4253954027017133 0.07549633056610223
P 2.383923612887673 8.624920820026759 10.412959659301432 0.40473894588456744 0.08795589648569367 -0.8286796615085663
