# total energy = -340897.32001343207 ev
CRYSTAL
PRIMVEC
9.00127515157517 0.00000000000000 0.00000000000000
0.00000000000000 9.00127515157517 0.00000000000000
0.00000000000000 0.00000000000000 13.17427604717253
PRIMCOORD
 96 1
Ni 6.282611056592909 2.158703823256083 11.413652970553184 0.8763476570084906 -1.158602847833824 0.5042123560915575
Ni 4.452435775927584 0.15745750698207003 5.957052034693716 0.32739759168992644 0.7657367421274426 -0.41145672422437524
Ni 2.8465542709287734 1.7467424607498858 4.643207902586969 -0.07983763825393347 -1.0121813510120696 0.7566576626443097
Ni 3.607477070750946 4.144790191822513 5.018082210975613 0.198580952434129 0.9337002267860306 -0.8223105247574288
Ni 4.893714291790625 4.370902225081316 2.630955727114488 1.1945599826547233 0.7213307052082416 0.4330336790642026
Ni 7.441498235970744 6.183092957878366 2.7231890938021066 -0.3438498237086788 -0.6279268982340992 -0.5878973931160392
Ni 4.986625454501508 4.4536509480808455 11.566211083438807 -0.013865445128182571 -0.17618047325174174 -0.5032517919505011
Ni 5.38816334031528 7.787030187431957 12.457951216133464 0.34974124949244934 0.23521711559992395 0.33152369804315807
Ni 1.8033604818166802 6.309713896248255 0.38038578919932753 0.3117945950453469 0.5095746488447354 -0.5783508870781846
Ni 2.745965020464318 1.55141478870705 0.29466394499815063 0.23530247622487863 0.6580466004376151 0.9528449180352816
Ni 0.6334179362267259 -9.721377226095059e-05 4.514073808178631 -0.9866394979872234 -0.24592370338415065 0.30727125325369664
Ni 8.473782479529108 2.4680686509261394 1.4021907481589697 0.9065154388411226 -0.6892019429944969 -0.001384024831720197
Ni 6.997240298013408 0.4382927928761004 4.708196209470936 -1.3353134825574229 0.477936453114164 -0.043047723119093606
Ni 0.7549090478548071 7.338208602943483 2.523558812209202 0.6085400090670552 -0.2954655188680202 -0.07053590123703336
Ni 7.4894930353869835 3.902349845333953 3.7854565850828066 0.79637169340448 -0.4075041673345305 0.07775401625202738
Ni 7.459122732830646 3.9391920647658116 12.601168705734349 0.69437860209943 -0.41749727399150033 -0.4155087828065618
Ni 8.10927583992659 8.76886228344193 6.777401253448 -0.7905885110637997 0.8171595766841088 0.7734127706154615
Ni 6.8917543538350685 0.6470458668936778 0.48993580913468854 -0.41644389302632157 -0.4169231466555852 -0.7496861164224831
Ni 1.8948134379436485 6.579995186959325 9.223732724871084 -0.594051328532577 -0.5947375559663242 -1.4282349505785081
Ni 0.06605675825131592 4.810983571341514 1.2821407406919052 -0.07560585956077301 0.24039608869770213 1.2071051663095858
Ni 6.421455726697091 1.7829815947427181 6.903136466337288 -0.2639767042311195 0.06367671222335486 0.5302946550009061
Ni 3.3872608727542644 4.3096395460064985 0.5604968055007619 0.42714893814865146 -0.6615625840106735 -0.5983257875382147
Ni 6.1509314015553676 5.665978698376574 4.74844361131449 -1.0405660728023498 -0.06744723500938062 0.13906788467016049
Ni 5.130618854025436 2.5965798570899903 9.35139061014509 -0.06813191978123105 0.6514681758891491 -0.7511141071182613
P 0.13684638700770665 5.443863231310721 12.352873029722108 0.16018949714012412 1.4333987541676345 -0.6333778940463414
P 3.9132143845116354 6.0558059251429865 12.549934347370263 -0.5413064327303775 0.5583374200707353 -0.2503909951268849
P 2.3707918697387234 8.322975114671705 1.3377290158747503 -0.28268070839852605 0.1515534187316809 0.2838181644370789
P 6.2887319237352655 7.721131851624326 5.7316529024314935 0.07642115637321678 -0.9233703056149325 0.5105028170859595
P 4.867727610261239 0.9728578246262537 12.580788018405343 -0.9585221709257169 0.09248669447651169 0.5744780343863397
P 4.128335860739826 6.191671173152874 7.990171866484028 -1.3066847630771368 -0.1307483090608716 1.3403880688668528
P 4.722546042409677 0.8871233786397836 3.6030331411800907 0.3040064664594958 0.5021066226024642 0.9969671051654767
P 0.2956702875665556 5.456681047208831 3.592967915240999 0.32786296136211923 0.35885632441984006 0.023412208276353225
Ni 1.4633193082331681 0.9756752237667794 2.5329129374067563 0.002816900623504826 1.2195953283567962 -0.7019229901055911
Ni 1.8499960886763083 6.494942137506203 4.801680753412653 0.2272148141207377 0.10984781146277857 -0.13146616106350262
Ni 5.9730031944922 5.68147889428707 9.22367961734735 0.10745051487519561 0.3774842239336725 0.49041221698367155
Ni 8.53775454244194 2.4220361295055373 10.102667643452927 -0.0069736031043557325 0.14091805050502182 0.5290417564304114
Ni 2.3376761782435347 5.258472967099005 6.883071723768131 -0.03967597843338328 -0.3348319364807847 1.0712976975582518
Ni 0.5770951569867983 0.0860503907463181 9.144554807747104 0.1264046873801952 0.26965215734934206 -0.07261386681198463
Ni 1.4388628434893715 1.3606957695713997 11.458919483453471 -0.674775740266838 -0.8791964393111955 -1.083092890420967
Ni 3.9410553287341465 6.685076073753246 1.5748928148355903 0.7232502908284577 0.7714497333518198 0.016396696190468536
Ni 5.757260630274565 7.814484076820466 7.990132260873107 -0.8922902963806761 0.9053707837137182 -0.24381462746094787
Ni 5.463792054624216 2.5870025002672445 4.762066141216316 -0.4540840719765986 0.5396544989492512 0.6110352646850832
Ni 0.8762228343612641 7.396788902005915 7.036235622475343 0.32773543464531946 -0.6455224998286754 -0.09174390277321619
Ni 5.265466957936667 4.560739119246451 7.161233630924985 -0.5919381388443161 -1.1233998175701296 -0.6615636124519381
Ni 8.135991624747932 7.27509166117554 9.17579103297858 -0.7231487322535869 -0.2302371458868293 -0.3490784190974698
Ni 4.579326752553753 0.3872204574657849 10.460546644118802 -0.43401815446465897 -0.8955787373239608 -0.29146513945937547
Ni 8.270092622816788 7.053183223439502 4.976951784034022 0.2654764287050977 -0.022926526889186324 -0.6598592281663216
Ni 7.1955113870497005 6.075581726777923 7.021928995657606 1.0775657899551507 -0.30764252055018626 0.00673526184130453
Ni 2.3936911138713026 5.15249195278415 2.6500186277528432 -0.8848834623936438 -0.4407811842201054 0.43729939631909204
Ni 2.2520380459018043 5.344435145348271 11.128298144376542 -0.4814449804880546 -1.4446930961345312 1.4666521169041256
Ni 1.023823044861578 3.294457725345894 3.7839812760759943 -0.2317427838980783 -0.16942284281293402 -0.9745350014142055
Ni 3.6400796895592014 2.45661002758464 2.497579331699984 -0.1951917242469219 0.08176853672805919 -0.34325332777526046
Ni 1.006873643642377 3.337717854002017 8.131822234070963 -0.0650414537813654 0.5765467439899102 -0.414311420064351
Ni 3.550237961694706 2.808244843637792 7.082122323237553 0.5942091942666798 -0.5185565406283715 0.12881175415979104
Ni 4.115347020612737 6.762451035452794 5.838931000504014 0.15667942710433663 0.2471508909230324 0.4186632692751435
Ni 0.7485721501074266 7.389371851233413 11.220794348300272 -0.3455688632823145 -0.1701329815060812 0.8756436889629307
P 0.19863564068227105 5.523011444226512 8.014715643597356 0.33192916101169284 0.3544576811315121 -0.5562720529012743
P 8.523028456199446 1.6235150031339216 7.9416513925955625 -0.6813063422965041 -0.17578966557122627 0.13359349181915056
P 1.6508878810455467 3.294745766152593 10.271653983723128 0.8436049153598311 0.4440272019612288 0.5776289213104955
P 4.066542106427657 6.093098208335312 3.7956145241565546 -0.21519850638615196 -0.6180914002009162 -0.5449355448425325
P 6.656695053018173 3.9229087579121025 10.28905704921288 0.9591634040541417 0.7502805554733722 0.14184081942960736
P 6.181760769147382 7.77141297494374 10.301137660671346 0.44451853977535055 0.17672631845288272 -0.6025007448515107
P 2.251191926032126 8.575289860064917 5.670406425652052 1.6898233570831092 -0.7256056784345117 1.1435690934291531
P 6.895957949357833 4.052320091596888 1.6422790614353269 -0.4371091346851569 0.3895748365496194 0.045315178997031635
Ni 5.430793379706748 2.784121426076741 0.5500823300835471 -0.9231314501312489 0.4106838506140927 -0.5262189422696357
Ni 1.6095720278346428 1.1750714722042401 7.02287682993715 -0.7647116432970379 0.28557757033034686 -0.7425821583878501
Ni 6.756654214217974 0.8353525442732229 9.287324933970083 0.437121475980331 -0.9427137431385506 -0.8495500771996725
Ni 2.7525359513671415 1.6901604447839287 9.192443392115873 -0.175393201463756 -0.9015256989360152 -0.1852623809483519
Ni 6.429430856532573 2.0081394928293306 2.627503738071703 -0.21587959161357662 -0.6940641561828046 0.06796196986227004
Ni 4.015090817331028 6.791768188809638 10.35849828694291 0.733920111837478 0.7761427679521149 0.07297562102677756
Ni 8.27364812652448 7.251418307374957 0.3018262596822282 0.27843838818240435 -0.5877115023574782 -0.07203074061500497
Ni 7.46361436916011 3.8132012156605772 8.229535577106033 0.5455891192661313 -0.2642839510588932 -0.2911707481474082
Ni 2.9715459784857696 8.400953161810278 12.367970868630746 0.21491748481062342 -0.5835398874782918 -0.1546397709664885
Ni -0.23714759666546337 5.0710934210660215 10.105025077430254 0.4933869833412794 -1.2135468081698713 0.19855395585093547
Ni 8.429451199123072 2.2259883554459536 5.615245711041652 1.2279755820006915 0.3383780019608302 0.6875955177393255
Ni 3.599925000850303 2.465908344875896 11.37036223756135 0.16376898696126632 0.8820781317343647 0.325519143720291
Ni 1.1248803616369198 3.5046014963833154 12.6063993467585 -0.15212831739854446 -0.39608949773968555 -0.36168736611073193
Ni 2.9656231393980192 8.330545187122764 8.000000358885114 1.371639827792283 0.27437064587093396 -0.23988932426461268
Ni 5.533704959175216 7.853171557670241 3.335305512245912 0.2806017143823103 -0.4702452551174934 0.952615832743611
Ni 3.0768698997103425 8.296349342602454 3.5482936862494876 0.08806593970099673 -0.23741695146472014 0.2995399460477099
Ni 3.5402195423867027 4.244083258656822 9.2427164142876 -0.8066231959291593 1.1264692005240728 -0.31352083370783423
Ni 7.204593673735933 6.243599529835598 11.46035518684936 -0.34854234408834167 -0.2949775234880081 -0.007190089990536004
Ni 0.5867940310248699 9.174909808135586 0.3003356485075603 -0.02854927239260244 -0.16445367173311679 0.09744943779842573
Ni 4.4869826701810585 0.23784519549418776 1.5450130817781622 0.19402650029422713 -0.4207769731840366 -1.0698074861659705
Ni 5.910336316484725 5.588774760906002 0.3686229227557525 0.10307321174310635 0.522498555995255 0.850882679968167
Ni 7.922751415038496 8.885725839484886 11.249475111499816 -0.1574654133407417 0.2500888905054338 0.38140515625463345
Ni 9.189041810214261 4.755913769610728 5.695068119470622 -0.9193622128968036 -0.04024187823918231 0.9338226112965078
Ni 7.915730420375205 8.771427646876594 2.5596692279665407 0.044651834381419876 -0.20682570894142444 -0.3957092315821314
P 8.47693292585238 1.5769604077511774 3.5501911550636174 0.1034827884766992 1.0499786243655014 -0.9279101024668147
P 1.7560947856923976 3.1988551813474166 1.5605321803665977 -0.04725121967747991 -0.6491582968090498 0.2812097802799544
P 4.690780542195891 0.9291566334848727 8.057730037440264 -0.09629038449331803 0.19146876686937994 -0.06348079416246488
P 8.383472685353727 1.7074338919106662 12.400010907738418 0.17610848236322574 0.6849187422381107 -0.26892093561027236
P 6.473132047673953 7.571224614287856 1.3708627099203576 -1.4181881078654672 0.3720309141285851 -0.7109545041802401
P 1.7556987295831863 3.23411317634243 5.864067961653638 0.5568659777315312 -0.2624538398286899 0.7953481372359722
P 7.011507319220224 3.8647425175093 6.028140505787057 -0.908687506791777 0.6312168818392807 -0.7662861868730093
P 2.3501339431332715 8.52589986299123 10.250100430234346 0.7280225154061204 0.5363177212665344 -0.26744640794727487
