# total energy = -340893.94534794684 ev
CRYSTAL
PRIMVEC
9.05500129947076 0.00000000000000 0.00000000000000

0.00000000000000 9.05500129947076 0.00000000000000

0.00000000000000 0.00000000000000 13.25290969533877

PRIMCOORD
 96 1
Ni 6.368002253999112 2.1586037006707923 11.336102179595224 -0.36117520236100376 -0.6998319119045174 0.663261311869335
Ni 4.575320219468424 0.4370396480228695 6.206867596575891 -0.12891254140371347 -1.4604434169902525 -1.6481064369602971
Ni 2.8949564237044556 1.6607687724899296 4.768065887173377 -0.500236659273261 -0.5802139084288523 -0.004900779735727044
Ni 3.379380894644629 4.27055603354683 4.943348984460595 0.5804856740330003 -0.025719773363607316 -0.8684019197988528
Ni 5.014333857821119 4.220581480196821 2.797967396999022 0.4041558196875878 0.6630021446706775 0.14409259157826151
Ni 7.2876191526535115 6.189138809113673 2.7970926838528705 -0.25003695422157585 -0.4215832711354158 -1.1601509090472342
Ni 5.110923558959831 4.428882735000884 11.651627329314813 -0.4457318433571614 0.5595059864575396 -0.013551513432189567
Ni 5.766315513466145 7.746834499381613 12.511714837022733 -1.4038629494920467 0.678539063964012 0.20333955016503688
Ni 1.7511648525937795 6.564278466793967 0.44334011807558493 1.0837608630222693 0.3697644866919116 -0.37606446076801037
Ni 2.5277217823449716 1.4654161698493957 -0.02354300393368819 0.5581404735685807 -0.36672492853463934 1.9890887093131937
Ni 0.4163589300674269 0.11398526454525397 4.895386452446765 0.5882308651960579 0.07046288190725285 -0.6291060061438649
Ni 8.357087271345836 2.4234987149308362 1.2698245151689191 1.1527021660786727 0.3233905274130624 0.47469223514525344
Ni 6.931440668141348 0.7441255363323852 5.005637434368074 -0.7456356005021932 -0.33340317445405804 -1.4665371885928162
Ni 1.0680736484593296 7.222097161705754 2.6791150691405536 -0.3982271129079787 1.3153465525171928 -1.146031953147349
Ni 7.649647168143045 4.066320474422086 3.919787006938508 0.4758402327067677 -0.9460800885076223 -0.9351436441007767
Ni 7.346322727462011 4.094381924110739 12.801741102481836 1.2252594686211091 -0.42947938605404107 -0.8396973527753087
Ni 7.979656698282763 8.947120224931627 6.941066134749621 0.4657327119591205 -0.26963441673752914 0.9922727850136008
Ni 6.886681795662801 0.6105579255152104 0.4548481194984019 0.32304394270692105 -0.14934509822645248 -0.47031544623379645
Ni 2.014864606654113 6.5458515387151 9.079383010030785 -0.6999818072188203 -0.6093666187334087 0.2650658235302402
Ni 0.1670647779140566 5.0667170415735745 1.3774151376457229 -0.562347826781709 -1.412725027868367 0.6337594457554763
Ni 6.394252703385174 2.0568526486696945 6.9871062899422505 0.7479357093902796 -0.20477165462587316 0.31020359640914313
Ni 3.2169432225036934 3.7324987886454126 0.017271509885814176 1.1594371708096614 1.2199915353539506 0.6416013103973982
Ni 5.98482175497531 5.733110822918132 4.861459172778017 -0.4466337863461405 0.06091611875908219 0.25984622700251375
Ni 5.513282551188075 2.8938698235229006 9.099885344456421 -0.5715685740490285 -0.46681823171381537 0.13263832699473285
P 0.0695695766240486 5.722634186167641 12.502344721457126 0.4301170196380399 -1.79483286661698 0.480017761123225
P 3.8491815381413765 6.0948581333607645 12.779992799848017 0.36009379637136696 -0.51866555540241 -0.3933715845878903
P 2.5323398331165796 8.47009369022754 1.3314003364573295 -1.6420352910655527 1.708594209932709 -0.06283339038645308
P 6.2870233754687375 7.78997252658934 5.931286775030406 0.22201552930798538 0.4138270242287648 -0.6760584636340035
P 4.716587298072066 1.0371508182925815 12.64360727256001 -0.06968255209780257 0.0021265594246995634 -0.7772259737139647
P 4.033831128993596 6.123399498129604 8.161234832621787 0.3543306686353446 0.15755617328233512 0.9443715904569477
P 4.825039051192752 0.9198794936982754 3.9080843229831617 -0.14371463941355248 0.37291434517480293 -0.7489893474657746
P 0.2466754457158232 5.583848177978548 3.646551430784879 0.07166564396610238 -0.7946454547419927 0.44241357761720584
Ni 1.379846405551952 1.0737149144019018 2.6949921087933726 -0.029824539560600247 0.04332154560577055 -1.0072504893693557
Ni 2.086091248555033 6.400319554398855 4.6484321126843415 0.5605840500130668 -0.5390320348739038 0.40068174509605836
Ni 6.075082010056465 5.743098489586923 9.229989417194892 -0.7548290940760033 0.0017352375235518502 -0.1429793039094247
Ni 8.610572983699553 2.462190736395702 9.97981236047923 0.14093373423430566 0.45069201557591415 1.1090615465705866
Ni 2.4535250999478015 5.256274443245816 6.884449737789858 -0.7718186866554643 -0.7289033753491769 1.024202800952978
Ni 0.5408434688669546 0.0895313274593623 9.029340544169429 -0.4339361362738139 0.4180865708360671 -0.3697768279870858
Ni 1.289522765460206 1.0406460488765827 11.296952880553953 -0.5123416700669112 0.6791877532916045 -0.03655285942336931
Ni 4.050881696842493 6.923879741878029 1.6890040782076323 0.7281965790901395 0.7869432010017287 -1.178331693721319
Ni 5.791234877629803 7.959210504866506 8.06870267766103 -1.1812858912536364 -0.15191594427742225 0.16760430154695652
Ni 5.2569173483532365 2.7545405152430313 4.8935709246434165 0.04334699952706728 0.8057716465621413 0.2944931276524218
Ni 0.9271778249177187 7.303519735310264 6.696363773863471 -1.2570100215598288 -0.2795403629973315 1.282028140870721
Ni 5.075065752968522 4.38413291752385 7.107270687519947 0.8154477361993246 1.789642580665292 -0.028411975483789778
Ni 8.192521673849356 7.212752400144383 9.075751954424089 0.036857792258297814 -0.012406858304785084 0.2328126199234894
Ni 4.446123457881554 0.07880748916756733 10.44497593770119 0.21135316449813277 1.3085794089966882 -0.4455032722861231
Ni 8.25087210359885 7.204829273820545 4.800243740549822 -0.27740686159409644 -0.5911727214332012 0.6358168425051371
Ni 7.356165514106595 6.297825992273695 6.967584612180467 0.5774126915346314 -1.3456554879133793 0.25407461462605924
Ni 2.5794530059884946 5.03666349155207 2.344916695300942 -0.3185493972706772 -0.38347309452725564 0.42997380919195627
Ni 2.164407956640598 5.099849292109485 11.672606862320185 0.5746173881776814 0.5934576608126361 -0.9622746959896138
Ni 1.140223900514571 3.3705703781725216 3.7379698205595413 -0.3393704477810865 0.30152355213664206 -0.1616192876081152
Ni 3.556216019191166 2.381112252848685 2.466485523613297 -0.18350554615824524 0.14061388900104171 -0.07935889884530203
Ni 1.2392493970602687 3.4043183688113126 8.193094855445125 -1.1940555322144792 0.5185246589491715 -0.753085114801703
Ni 3.8107792767249262 2.58871627253625 7.05746636819838 -1.5344307671109962 -0.47885999336969787 -0.40198709417104317
Ni 4.066664564479578 6.911791314858231 6.151987948906312 0.8356743476588446 0.3816427261867363 -0.6984550861616488
Ni 0.9166196931536108 7.3389791212350035 11.404248309981433 -0.25239799825458464 0.49020267207602675 -0.26471821038283444
P 0.2908303495934554 5.411205519132511 8.06908751522533 0.25353339741060854 2.161451608591058 -0.8057099400862704
P 8.493636694161227 1.8399853624343747 7.928368264213224 -0.3602226086397474 -1.099418367053868 -0.16666327778992587
P 1.7330729595708916 3.318350184447299 10.340291065209897 0.04860619104347758 0.0682105955379664 0.8975746847080671
P 4.197934921412916 6.0742670599203 3.619276860727701 -1.177717714286404 -0.5251056546007989 1.3863624787144382
P 6.870600112975789 4.059674103311575 10.368108935357851 0.7536193900386183 0.5579697523186713 0.20440887196981572
P 6.183298333137815 7.7138199638653715 10.360992609668818 0.6622179582064853 0.5364455050936503 -0.8847194260119537
P 2.427075440528455 8.36371553245332 5.697876906531064 0.3204278452403127 1.2919788243255297 -0.101202991303587
P 6.967570124178047 4.125513019312286 1.7413791124587268 -0.3395995330727571 0.05073994955702875 -0.18028626788999919
Ni 5.3971340467813755 2.7742623085382516 0.6405553345273344 0.08606767832404533 0.2758917105011507 -0.4927336660279965
Ni 1.3814763058242843 1.0144046544920335 6.804004198848596 0.42884869444857754 0.8020396903235348 0.8876378852103293
Ni 6.909355519451246 0.6248512454034132 9.418935606265007 -0.5737758661129925 0.30104121318358473 -1.1426877192654643
Ni 2.6627137449001346 1.8001705207819028 9.016352049999242 0.8089104493014392 -1.4574349691812318 0.9215011136166775
Ni 6.411801296317285 2.0994926507942093 2.7859468824905713 0.7642827832897353 -0.34924374103074046 -0.007097273166413584
Ni 3.990439561743506 6.766503815582836 10.536129921431677 0.3782092750251551 -0.4734966721752555 0.28917094410856004
Ni 8.053572675633031 7.244825215503276 0.3682171090236398 0.12745549724221275 0.4076424926846076 0.5139406391229149
Ni 7.622418778593583 4.044027060697185 8.012351592245595 0.29063750135175753 -0.6729014060622605 0.4043512235278456
Ni 3.039265982816451 8.328917161639028 12.389018661022014 0.7085721199909926 -0.3883795306899376 0.11317893271854056
Ni 0.18722936078326055 5.195922858161959 10.270183621495976 -0.39875058951161646 -1.5966509493934824 -0.5145870144576622
Ni 8.618242569981028 2.487182540571463 5.720247287768825 0.06321802741938146 -0.29175593122691684 0.08572675004485882
Ni 3.575448842404687 2.5214466662964923 11.217090483710127 0.7802465057078434 -0.3524527348863414 0.011501058661064064
Ni 0.8139785345037894 3.264762685493619 12.570928208416412 -0.651546080314936 -0.06832089586358556 -0.14495622513013745
Ni 2.947294332449347 8.518021813235622 8.119700446182005 1.0416963297520514 -0.029815797809851875 -0.7473461554353968
Ni 5.570908580816534 7.89271057375535 3.8338414600782764 -0.15237565752266016 0.39778642582613427 -0.6378850378880756
Ni 3.0404702980176745 8.423831687497842 3.516249053513276 0.7485671723266915 0.28627099685294566 0.2041713020377129
Ni 3.68092150002761 4.36505402933605 9.460483575207059 -0.8087469271403813 0.13871564353706434 -0.17966971735192283
Ni 7.378911677907144 6.273866458270411 11.380976050592984 -0.6388018932753902 -1.2214231255941546 0.091461595646107
Ni 0.4219114569951722 0.17757854017075095 0.4741099187167641 0.24669606277380093 -0.37800332966193606 -0.15348380298517436
Ni 4.922552362485786 0.5274665151318633 1.6337395929737533 -1.681025556285821 -1.2711004382146238 0.5232138368947248
Ni 5.84190666609631 5.617858763661215 0.5300010100553398 -0.4889970818036998 0.5644221928122345 0.5591558022069725
Ni 8.114241185769842 8.778371216736161 11.257737480001639 -0.406019612369204 0.19044726758340103 0.7235277128595603
Ni 0.21340012615600884 4.826668951465085 5.772517284002369 -0.15945621851852537 0.5214480032435536 0.4433265763497784
Ni 8.135022414242078 8.582384763989719 2.8699836350318715 -0.6600471758074117 0.9043469704348942 -1.1938282466950214
P 8.489163523413827 1.632924642837587 3.52771268542868 -0.22284805251160975 0.21156270940577757 0.3889904248010591
P 1.7449078465483263 3.167430474230845 1.4172526168019772 -1.0031444376207819 -0.5891744600562498 0.6565941842618047
P 4.777119983186184 0.923121184239914 8.198449077839738 0.1271114836392327 1.0450503338259485 2.373987994764015
P 8.249504798370394 1.6475846902870646 12.337107242848383 1.1355359387120314 0.04256641260730089 0.06636145814436958
P 6.298468897381114 7.7965374026862335 1.614336535731789 0.40626823804490036 -0.3376586072963023 -0.36795468717668245
P 1.7734944863247315 3.10963239957364 6.016781382815291 0.5898676294685324 0.3019768376239767 -0.44181939567663264
P 6.868091877556701 4.0716719803162436 5.893807218268126 0.2133812506717551 -0.33801136265003073 1.1184782118987964
P 2.2310527677759615 8.519198963432306 10.204939619094668 1.4222707625752729 -0.2482752343354627 -0.36261527724164
