# total energy = -340893.36683188495 ev
CRYSTAL
PRIMVEC
9.04682387911158 0.00000000000000 0.00000000000000

0.00000000000000 9.04682387911158 0.00000000000000

0.00000000000000 0.00000000000000 13.24094121405489

PRIMCOORD
 96 1
Ni 6.607709495324011 2.076408860947954 11.482993885032021 -1.3259176431648199 -0.1055342716890892 -0.07249431051498482
Ni 4.692098877191387 0.3248271063412124 5.963799110950546 -0.09472329711651428 -0.018991453500838258 -0.2095945299358132
Ni 2.7628546958809355 1.6687499423307837 4.724036878576047 -0.0778558319372143 -1.0976093388695871 1.3547713341717182
Ni 3.2344384701149127 4.163330130928845 4.969881596086667 0.7612499100006825 0.3708086116857098 -0.5467057493690778
Ni 4.990978788741407 4.549946137832926 2.3737824763671798 0.498490880226748 0.8359941928921086 0.5465393989945427
Ni 7.187981808389054 5.978331023712685 2.5740257747974034 0.6523675477749669 0.01663863699794554 0.5161713282256465
Ni 4.985867333402672 4.631177567012562 11.496248386300659 0.3110011526097741 -0.3470552180198539 -0.582494734043229
Ni 5.9616667746260505 8.136595544669253 12.409793920227697 -1.6980557722952303 -0.6177489292598329 0.6979097551811401
Ni 1.8672643927694461 6.561534507626844 0.38824986324775407 -0.12547626202865486 -0.018485460398697195 -0.8126758298811423
Ni 3.0810857631292787 2.0706008001913747 0.2351224221699686 -0.4419731476456775 -0.8436319119430244 1.334081924143167
Ni 0.6867498082062224 9.038355781481657 4.75218697491588 0.10696483348802867 -0.6952648613591251 -0.3681624323121143
Ni 8.702329612195632 2.3958431557362116 1.2915163961909528 0.8139230720246822 0.290192443394539 1.3977786909711798
Ni 7.091877401197244 0.5184399877488551 4.763017832139831 -1.497482214911105 0.2083735130445185 0.486344217561885
Ni 0.7550678013672582 7.332821454359204 2.4323742294668467 0.29360044063482343 -0.24113296686372662 0.31231370077361054
Ni 7.406372130295327 3.7504511950896395 3.9893099554098685 0.44476279457567275 0.34777152736058814 -0.5498409525639498
Ni 7.660587873690779 3.9459078191486703 12.614803085334815 0.6569461682845847 -0.061072956051920625 0.12139052199505546
Ni 7.9172462594604935 8.884758810258596 7.01307775820354 -0.11267962448461885 0.38302906501130163 -0.2153319466402227
Ni 7.041929888055383 0.7554233415350674 0.5385302689359827 -0.39574445569544103 0.23957179302419387 -0.22796840445731062
Ni 1.6441968630576427 6.664451172995765 9.226724219243522 0.3208253377890475 -0.5428282686915425 -0.3657553655325185
Ni 0.14027371409500045 4.939809954412415 1.3307940855690914 -0.4496915993358578 -0.9713134091531144 0.28399325656236246
Ni 6.537994672597842 1.896612288555028 7.078448296232965 -1.5050577132655178 -0.3600488020660444 -1.243999982453406
Ni 3.360668799922626 4.502414126594502 0.3295350733470129 0.5949386162335366 -0.006825764672581794 -0.02917147935763363
Ni 5.999048249775873 5.655431795482419 4.934567320131359 -0.8197936718728461 -0.9696766448806396 -0.5599410171124293
Ni 5.2580138811899335 2.904374157586809 9.374732062841327 -0.632159191147892 -0.44963220685283206 0.047892709916220744
P 0.31161874387297894 5.4801314944228565 12.355174627374469 -0.3019310719877058 0.579649294174634 -0.0027554512579500935
P 4.202620485860035 6.373595793986377 12.463022716292318 -0.557007388405402 -0.4040354920596396 1.0472334575201965
P 2.2991597518334643 8.585209433761557 1.0915318369159286 0.15198819227625437 0.5233107674839053 1.862030961730032
P 6.399198304798089 7.805463706955362 5.881863838894177 -1.6418465720935145 -0.6765927388709186 -0.0988630303165007
P 4.892486020116984 1.1622273353212462 12.595299038317512 0.08410849771514546 -0.44734212526707473 -0.5499057443636142
P 4.112360326719237 6.1591770276441835 8.114233606074063 -0.3246261995923764 0.4034055717851246 -0.3163511040677777
P 4.592221944554882 0.8760283564230908 3.6628281850306843 0.8068954757539394 -1.0853500618862597 0.06093334515026281
P 0.2934852906323439 5.515785026263479 3.64315224836482 -0.8583759030214185 0.3040247212919409 -0.655073119631588
Ni 1.8272774324204104 1.259851608879265 2.6173365381401577 -1.2752872226024616 -0.049333813238121485 -1.1576726227100707
Ni 1.9649339004455069 6.452285065732058 4.796319189842275 -0.17630028665905767 0.3446036711555678 -0.14975853161478725
Ni 6.124862425697602 5.82900415323278 9.112931462532607 -0.6900244388957922 -0.5245649516059804 1.8946868000918404
Ni 8.64853719902021 2.227147035910767 10.261728788207217 1.2413836278764814 0.7527904663794196 -0.17042480171488714
Ni 2.2273279723829345 5.170078755716488 6.958114686053193 0.025293227349149988 0.32806222185711886 0.8876743948752196
Ni 0.5674113486233721 8.943825521597704 9.144789851869517 0.7152112225740651 0.4663821726176613 0.6981126152205654
Ni 1.5878803860954829 1.2409799348321862 11.690731572139427 -0.4008804913704257 -0.7771938349244486 -1.2563680171004556
Ni 4.002043359638662 6.801926704548693 1.505203274503228 1.3155782089120245 0.07077449961040069 -0.6757830984854297
Ni 5.374464594676989 7.94779738278599 8.077172388479976 2.143073877414819 0.5684765653872661 -0.17265497659698653
Ni 5.201127454340445 2.6576220436682694 4.804369053489011 0.9911970354509186 0.4067127817814867 1.2059476556663746
Ni 0.46516414820147156 7.270805478523766 6.744881958286058 1.5943991772448283 -0.1463243091222577 0.1523805426186666
Ni 5.039315967280976 4.321170062424235 7.257651396997182 1.10911579684729 0.7200574949227728 -0.6854537888059743
Ni 8.09771229680044 7.300994728904927 8.76617847449413 -0.9548035844235491 -0.017547007744827845 1.6545817602719957
Ni 4.652944224614322 0.30935613328852335 10.444281927753616 0.18118255445202347 0.5830616622902927 -0.03546708255835827
Ni 8.129168102486775 7.071892967846334 4.83606821873041 0.11697130988143725 0.21494139607002336 -1.1225780929997828
Ni 7.023990036839966 6.011433351295744 7.048708672985141 1.034522437711431 -0.6404947075967807 -0.7281824380227524
Ni 2.258485232890192 5.292871292553018 2.4334200422759755 0.05955677651771034 0.07959389767424357 1.3480813237460525
Ni 2.297097076050754 5.423986907109256 11.383925738426107 0.40992871761562305 -0.7808879959465842 -0.294745352872544
Ni 0.7630452904251268 3.229155125127619 3.9346246207443 1.5296487723413204 0.8579652978465612 -1.0711015223870455
Ni 3.82791914564819 2.7189323672622545 2.910782927430985 -0.9625685730809488 0.14321404562805012 -1.7049540420769604
Ni 1.0133889933161933 3.4221600599887787 8.335318072050908 -0.06272360428146617 -0.39642091293717535 -0.5266151492667899
Ni 3.490843544823593 2.695745358353979 7.233075700665021 -0.8763990790717164 0.4853510004106802 -0.7458970816936961
Ni 4.06585060654856 6.891155525798136 6.075023474439041 0.45657084295419437 -0.10903559997412834 -0.6272054466870424
Ni 0.8729153444194475 7.476964494911509 11.548390658849913 -0.21313930986427806 0.16540163746868286 -0.9703975822070643
P 0.1082470538389776 5.563697004093454 8.017522157018128 0.18830630998099826 -0.882188432059984 -0.13095296887250993
P 8.63938181352853 1.5276647281581117 8.125885914881653 -0.18839218482658524 0.9847427951851427 -0.20795699433239023
P 1.894631034184793 3.2274452754656355 10.360360877915209 -1.9098478241029946 0.676385765066435 -0.3160063191338493
P 3.8673271092862893 5.912569662903378 3.7308204925418176 1.442798707325296 1.2329756063184443 0.6874857316343386
P 6.854045455356566 4.1204481870251275 10.45243854391893 -0.11082174534027366 -0.1615742933027927 0.43301079624606714
P 6.407132369102638 7.910443048106992 10.324928088570632 0.25019996216200135 -0.4445555636608731 -1.9299559077067794
P 2.3720409628225663 8.316799224124557 6.025488496453722 0.006679468902704625 -0.27809437457942426 -1.0297576693329362
P 7.021149334226935 3.888424301941029 1.711378575173466 0.06877238157870737 0.5270815473802472 -0.6766385045071895
Ni 5.42948737586315 2.8983670667108457 0.46866345957319255 0.08886246746036308 0.782566926310904 0.2180920258838631
Ni 1.5818823420431276 1.0277553492062992 6.912525932525849 -0.7144820577175244 0.46965724382450724 0.8658120475844895
Ni 6.786691853592183 0.8701406836187577 9.213059896865428 -0.012255934549217602 -0.9353457328092536 0.48597834958203395
Ni 2.641744868235564 1.3696167197197286 9.207750316089669 -0.6065049809148974 1.4414429646283498 0.762942467211757
Ni 6.547394322326947 1.9169133607322306 2.644534003954027 -0.5229356435326735 -0.4093288792480951 0.2524368219123201
Ni 4.055817679166868 6.956428358132591 10.313620463742517 0.42893688328700974 -0.406029639671533 -0.21373786268022546
Ni 8.195752724244445 6.942631952129813 0.4414343298766932 0.008362513032082373 -0.05007017718351377 -0.505926767679503
Ni 7.419064823817882 3.503708127994708 8.452367685260839 1.1605170341374014 1.3224525674343546 -0.4627576884911966
Ni 3.2207506259954353 8.505506917771736 12.416825111536129 0.8119435797008082 -0.4318136906141725 -0.25304488780996426
Ni -0.09910885731215388 4.90981068732703 10.14208364130404 0.6090825118340865 -0.44231356170423186 0.09310530189711708
Ni 8.674049241595839 2.18164151316062 5.812468369041385 -0.09320994579578142 0.4500980907456571 0.6809294185730596
Ni 3.603747903456164 2.6246644652629443 11.211753828970322 2.001767847442759 -0.00891118644670078 0.6684425989599585
Ni 1.1966776396219538 3.43231059607738 12.589195146428937 -0.3657718205927507 0.45774609420921814 0.12587452590833806
Ni 3.1257861185782794 8.412930771787194 8.137802390938612 -0.6453558923438241 -1.226360929215404 -1.0055221938243393
Ni 5.54747604936363 7.579908300751254 3.56851323954861 -0.43492498254964446 1.1803271268847928 -0.1138337926937201
Ni 2.976658278217758 8.204853828794473 3.172052479193891 0.3204512422790804 0.41306572058270796 1.3060394161836537
Ni 3.4319306294858283 4.590059753712479 9.236867517873238 -0.5252272677803277 -1.0927229573115633 0.8668998813320296
Ni 7.311145264993527 6.183042548323087 11.446992050482477 -0.06722303481371648 0.19100468274876783 -0.21580451540126705
Ni 0.4083021477757264 8.860332386515973 0.16336392199066643 0.1048758121694839 1.2943285555046289 0.9507253005891175
Ni 4.531146838374714 0.30885584394298 1.4305380298985535 0.3010738661937331 -0.18991196390522133 0.09807164476345691
Ni 6.058513021353749 5.49735664657321 0.37881040749477135 -0.5003400176203447 1.0643323219840122 -0.2563770375069907
Ni 8.012988793707969 9.02410703429846 11.408169416331841 0.45156696198169977 -0.5721828105942598 -0.6625920537164524
Ni -0.0007092709708969214 4.935458432256784 5.739126674730616 -0.16961978931508853 -0.9982927659554355 0.6786743039902957
Ni 7.994831818725952 -0.39181159770237295 2.755082569718977 -0.599394080901729 -0.017003990757164265 -0.8558474801726098
P 8.62319704609314 1.4911698417219104 3.576298935945981 -0.08023075992729409 0.3836366166883135 -0.557969238098039
P 1.8880087593034593 3.355114050227081 1.7549544104479455 -0.15796395024371507 -1.4527717593776075 -1.3013258127580685
P 4.515342037530876 1.1441970158697468 8.140093046676252 2.267893479696081 -0.8817202341743137 0.4217246818092866
P 8.60757318172147 1.7816633477869632 12.47773285147954 0.2032315638322629 -0.28548372506495995 -0.09609626620464096
P 6.475490168287551 7.842383794101157 1.3460479348551795 -1.121781051019784 -0.7930421148106148 1.2375673394541848
P 1.6822297095072685 3.115717003902154 6.058750048132289 -0.571085720875339 0.4320083231234818 0.07835282617829087
P 6.931902419330276 3.8015567016533733 6.075963439411951 -0.7757604449120317 0.7881824727254684 0.29936896768748444
P 2.5010939015960942 8.481279524148496 10.249666658290165 -1.4913663318213541 0.5795001701912794 1.1720661724275816
