# total energy = -340893.56900226284 ev
CRYSTAL
PRIMVEC
9.05010253820007 0.00000000000000 0.00000000000000
0.00000000000000 9.05010253820007 0.00000000000000
0.00000000000000 0.00000000000000 13.24573986304239
PRIMCOORD
 96 1
Ni 6.404712211147277 1.8872178514622002 11.560073172479138 0.10178971704499243 0.3963995727809367 -0.5914486008024071
Ni 4.6508114179975015 0.10735774461590897 5.897625924112901 -0.23129129818295652 0.48782877252721146 -0.2554064460636053
Ni 2.848347775421041 1.5866730011806667 4.569064558136078 0.14306183632090202 -1.1195686167494976 0.8841908072019933
Ni 3.3690001659385707 4.1133710875458505 4.86221999981588 1.1872973875550392 1.102056061787031 -0.5324813782395796
Ni 5.1559790833251204 4.477827760908121 2.7107807890261038 1.3577101050850682 -1.1534729828064263 -1.1829820480091369
Ni 7.478307757511149 6.219275613168759 2.783816925336804 -0.9291403753294901 -0.8791468170201827 -1.148891019862699
Ni 5.347832203898407 4.457175427253315 11.631057650577942 0.09665111026684645 0.4234763743930707 -0.327322772587933
Ni 5.641182222779602 7.708189408328735 12.421920758184989 -0.22243050535821693 0.5252331813175987 1.064910305974669
Ni 1.50401841604949 6.7589241686036585 0.3947428410116171 2.0752952272079486 -0.39228503639193085 -0.5812176671030184
Ni 2.66158986249353 1.5275939327763832 0.42666074212194605 -0.09879335342082984 0.2331527768717275 0.2190387060678486
Ni 0.6376620693327594 9.163228670241585 4.891518801294439 -1.0592510508063628 -0.28357622362960194 -1.7305077221763485
Ni 8.66016062866853 2.0396034755111168 1.3391843761626308 0.02618668569769684 1.9093143201970282 0.06409271671485091
Ni 6.8951282095786075 0.5212650824493569 4.722477368806301 -0.2865445622293065 1.319706372147785 -0.6305247408682624
Ni 0.7168097397876708 7.302672420421391 2.668870669866576 -0.02631909751050306 0.09860463444879147 0.16410580147539477
Ni 7.374068678178959 4.023295418454577 3.8641267426640837 1.247641435860735 -1.4861187102691695 0.7376939770576134
Ni 7.767277526835409 3.9666960781052527 12.539106008986591 -0.48334708260677406 -1.05773769948563 -0.1268803414650331
Ni 7.855461724527097 9.176984825874936 6.791607708376213 0.7030594177028795 -0.7932277484588597 1.3384296595889014
Ni 6.789323462532884 0.6410884380977505 0.43425377802745985 0.3207502615767379 -0.48156890766042876 -0.5106108034187335
Ni 1.8992001870270399 6.619760744147062 9.13659331389651 0.4770098275348365 0.3881545591633251 0.10429937084072359
Ni 0.23423384505711178 4.819858280547074 1.1809822513074284 -0.5002690551730934 -0.6235647646106616 1.12657101620926
Ni 6.142440243874585 1.9977467519556922 7.010679011888511 1.1233126571729621 0.15878567481406203 0.5311917128938787
Ni 3.8103465092093574 4.202369794452671 0.5641462775953703 -1.6739935891397042 0.9021985566333236 -0.3760145813666815
Ni 5.8586471331176115 5.563387542632049 4.814548585474649 0.4829549893746779 0.6961488066259753 1.099132717492649
Ni 5.094429336968269 2.796463538417096 9.248427239154694 0.8442975705514814 0.1080557525593623 0.3772579668554793
P 0.19112096728990502 5.517023868086224 12.33404878902577 0.23585963427992926 1.1401526115484364 0.20463307216547982
P 3.8909557712003124 6.119154330424184 12.574088274766298 0.26553582118812336 -0.6455361266754301 0.4250943696124679
P 2.17740938460916 8.577623694868429 1.3362032724352453 1.2674574421453977 -0.2979805719803901 0.26515169837582725
P 6.326863230385383 7.676839853648521 5.782586452588053 -0.3405104749228007 -0.36604307197626634 1.0736613126944219
P 4.644385845300344 1.2119806620148967 12.744997648387809 0.28554337465830176 0.21847280626204954 -1.4062417341368685
P 4.149996851919646 6.05532395826496 8.156236447409347 -0.5054799099500714 1.7872540258284573 0.24907021943293234
P 4.818600316314814 0.894237902160958 3.5333147299482235 -0.5816850936577401 -0.501428365588517 1.7100769651258227
P 0.21579969149818334 5.4446501992705 3.764969295824082 0.5197011957557759 0.8437177867886114 -0.693620897997799
Ni 1.3633979251080444 1.051712398783975 2.670619149648394 0.22777557172021418 0.6044761234103267 -0.1674790888230019
Ni 1.9435637889445945 6.419735381115278 4.880207078316725 -0.3671221639730581 -0.7165227422966369 -0.8628431947641527
Ni 6.081116750077491 5.465166781389451 9.139772614866244 0.00934004645400327 0.27892792622431317 0.6148428113566314
Ni 8.576139478076408 2.3341300077030596 10.241990015049874 0.9066190542985225 0.9028243631427806 1.0458275783116053
Ni 2.4144949169294745 5.070084561538195 7.155414584386855 -0.7034823641729111 0.5466584410709102 -1.4998280894354623
Ni 0.5935563953333298 0.35971260968924273 9.418370061840912 0.3045859931120496 -1.0705615907231756 -1.1687093401402067
Ni 1.515195292501587 1.0883019627482087 11.496732410859233 0.49992658423201003 0.3841132992144159 -0.2762984590212661
Ni 4.187120371924911 6.830057973391904 1.5880449967030457 -0.3802443031773129 0.28951598615280466 -0.4909122965485416
Ni 5.833288746219817 7.871417055041305 8.111161507443908 -1.4634606065500215 0.38019905176167423 -0.5042529795215057
Ni 5.280997197745582 2.626520715730877 4.873624033837976 0.266588945042986 0.3394727776869057 -0.48270687791961375
Ni 0.8134087226819173 7.497177220995054 6.805025390180163 -0.6734027711787113 0.019944047222094686 0.6476688567477168
Ni 4.8587737208256305 4.414839048271201 7.075423444389162 0.09084967309372095 -0.6863243643363857 -0.46150658969291486
Ni 8.000181911851376 7.474361912868951 9.134539845664138 1.3117246394938893 -0.790549173185432 0.14569001797236844
Ni 4.434124816465062 0.5909635409984911 10.386699342251285 0.699307406859615 -0.5622812352098316 0.4635313334324275
Ni 8.141834114465324 7.335895346296411 4.731828839606262 0.7563961814528071 -0.3218650919074715 0.5187786839415065
Ni 7.3737338243905155 6.157716816709517 7.093888368296217 -0.5086261688885368 -0.20260241488869624 -0.7829063119281936
Ni 2.371353078834619 5.342492643488092 2.374550480009134 -0.4864493756811816 -0.5744060434978236 0.7343831675168255
Ni 2.185065771231406 5.395535293598004 11.30538428599933 0.38772209961159676 -0.15416360266101836 0.7155788903261289
Ni 1.2156731037901645 3.4229840266970806 3.7399747230423803 -1.4640427043057365 0.154540783494779 0.06845922121366274
Ni 3.822980452146303 2.571387491968791 2.600006630757833 -0.6148353551574637 0.27063971807359194 -0.9387606720280736
Ni 1.0045794655349694 3.5570612936102943 8.271209853186745 0.5539220646118589 -0.8447518844800807 -0.3039553015065862
Ni 3.6191359459057875 2.3176859716597717 6.973736493931054 -0.48753438121524423 1.104759833871439 -1.0713907714926902
Ni 3.9973668751061893 6.757421851606859 5.971682911973234 0.899090092911329 0.06972857484438959 0.43436165384700676
Ni 0.753005624297924 7.41485748965232 11.248255514660167 0.45084885286875254 0.18487003060593968 -0.10003133959298902
P 0.21350458553198748 5.768381411876141 8.05576764073298 0.4443043668820155 -0.3537483137693133 0.05282305733830257
P 8.469565472327504 1.8294781982116903 8.092484811140919 0.5333113303400427 -1.5458770612747248 -1.095939921586964
P 1.6726761241962773 3.4227577741373216 10.480585104448902 0.43150747222766334 -0.8783502892608163 -0.6087477542024871
P 4.094917928771902 5.910187466230724 3.6373990525295383 -1.934999640778274 2.2028376277370123 1.2899851909342686
P 6.912241953198782 3.728479282986142 10.299224672587002 -0.9064797005071809 0.7373782455894075 0.47599089935201905
P 6.245376108462563 7.86102753749717 10.40713809348968 0.5529661284564927 0.04546404587007009 -1.1713879154136344
P 2.4840992544137492 8.437754362425382 5.727696676580269 0.36590706061903433 0.18189192181422223 -0.09405043941920577
P 7.15263982299397 4.136086844545659 1.6818511179996263 -0.08342998359088212 -0.2687928946728403 -0.6775563883357687
Ni 5.65488407779861 2.9064946832791176 0.5056346506109625 0.45529943244093846 0.17121387327508578 -0.446770826144637
Ni 1.3854711248381375 1.080609375716401 6.775513911295431 0.0784546418634778 1.2862578626813526 1.9040453584886046
Ni 7.051224375607573 0.6616448406672188 9.385467509590512 -1.426561676641143 0.3122594504969074 -0.5974603542141259
Ni 2.728008563936397 1.9558628780930967 9.178502528045799 -0.5449836244716485 -1.1115640012774661 0.4628224802908609
Ni 6.356339413870793 1.9500346121537033 2.5394071451519693 1.1240292236240126 0.510879740809404 0.523616214539466
Ni 4.287920412348763 6.679862474121456 10.325822018502038 -0.3290271568735495 0.7867462544995741 0.49693202038006035
Ni 8.214841290448375 7.089325306670997 0.582360513666213 -0.9038574323929852 -0.3224214786315737 -0.6861893814204183
Ni 7.739267459937238 3.8621673954965705 8.246956483790813 -0.930169587924953 0.2417312625693579 -0.7307553409562512
Ni 3.400322570311614 8.335976910943371 12.520217540287668 -1.64745209120575 0.38393460754470654 -0.06882920295857178
Ni -0.0671445196545742 4.927717400835409 10.16329665973496 -0.2364075363635993 0.1672528317448087 0.22299743360528046
Ni 8.436324446247705 2.4190380683294364 5.80921094881026 0.11321955614848889 0.2356403191802716 -0.21833345247070785
Ni 3.6053164395557045 2.9523787023982533 11.540946686087345 -0.5400278231282699 -0.9672124996108632 0.004970199521081763
Ni 1.197464297780756 3.302961568796099 12.644449200810408 -0.31128423106783165 0.10142307773419305 0.29448515723262186
Ni 3.106248543239189 8.456062719561084 7.924621701984004 -0.19702389235965423 -0.47348973019672 0.33983710300485986
Ni 5.589406587004341 7.849923061864195 3.6888986601818936 -1.0214522347910344 -0.5479411644380757 -0.8678948982554472
Ni 2.865361967914922 8.225348459323584 3.431070293182869 1.2549811640552582 0.1041240216051239 0.21408958959268937
Ni 3.3116949176027983 4.380910214409734 9.243287686007207 0.2176366835139994 -0.32575285699765194 0.8900421237764479
Ni 7.252788256045716 6.258580207850102 11.559358214390299 0.7694530146367652 -0.7269192550396126 -0.8179956994321589
Ni 0.4292997519789757 -0.04280517428593447 0.16719973665170001 0.3504120503072288 -0.08055754713909354 0.7457441010555995
Ni 4.6261317887789835 0.2560880323093581 1.4126847827259563 -0.6303385929993853 -0.8882030136851801 0.9301726732487465
Ni 6.007467016824726 5.627154564074542 0.42549146889311124 0.28783011380994944 -0.22577191102662406 0.5999954619311538
Ni 7.984534284818441 8.820609893947259 11.531435933485314 -0.8152752151772024 0.016507253626403828 -0.48949818980983434
Ni 0.09441700320793026 4.887706898167618 5.8202439286343495 0.21062554230348884 -0.7277600057733531 0.8381541766579048
Ni 7.925174663240056 8.896748405357375 2.491642514756116 0.12014405118246405 -0.9380420486944941 -0.14326983856665002
P 8.438215917647291 1.6397880521097015 3.519313316540094 0.004551366816108291 0.6944552209736362 1.6242476280648284
P 1.8541216270206462 3.2034647431164585 1.7004744186985135 0.5020888819906514 0.054517414321589984 -1.3980437717071084
P 4.628756318472189 0.8908549738874407 8.113585124864048 1.311583743040651 0.011291256643103136 1.04968783259796
P 8.554346831520416 1.6324122186615566 12.484414430221157 -0.623781508607158 0.7921913367745453 -0.9056366357805951
P 6.312310665741681 7.664748916854998 1.4647273965217331 -0.1906961503694135 0.35582807911647746 -0.11130202741080186
P 1.800300668105163 3.127733486313909 5.815660956783871 -1.2194719154050546 -0.30302841881694265 2.123141657267266
P 6.768372475499197 4.078292890680807 6.245577925745868 0.7756182629072126 -0.46214268061501695 -1.5379140976739063
P 2.573432815109013 8.542590748515337 10.286244110728505 -1.4487608384460018 -0.5103503506684953 -0.238196509943222
