# total energy = -381161.885787329 ev
CRYSTAL
PRIMVEC
9.24439588427704 0.00000000000000 0.00000000000000

0.00000000000000 9.24439588427704 0.00000000000000

0.00000000000000 0.00000000000000 13.53010781450310

PRIMCOORD
 96 1
Ni 4.1778659360424575 2.270506764657422 5.745046139520904 0.2856012244794307 1.5894896557583527 -0.9975366045157014
Ni 2.808696989058099 1.2742844703062088 7.267034190554999 -2.4691555785067987 0.6829186810889464 -1.5593900081594951
Ni 3.7306498089712505 5.2966042055900395 2.5864691137890623 -0.28324095177737024 -0.29743035590387484 0.007679370922128711
Ni 2.843076896381368 6.541889006825772 4.560065304255024 1.5371862183689462 1.4912891987265156 -0.969679215983801
Ni 7.103365863801689 2.8101391147753425 12.800698904191753 -1.087611604226927 0.43141825494796665 3.1521159114669586
Ni 0.38484511423997064 1.336637918785761 10.249137552716054 -0.9094542097544726 -2.248538215097921 -0.6681132406449978
Ni 4.626598143995896 8.252499706158874 10.283463842544707 -3.195904369406819 0.7454162854025356 -0.9063915116687488
Ni 5.044176738698615 0.18061885056830018 6.78448321009263 1.8460757239523564 1.2597508175297594 0.4980874741407422
Ni 2.3256680733420017 6.254046260301264 6.8436769241481175 -1.036139918710196 -3.2100222968654397 -0.4047186341695933
Ni 8.653271989618327 4.213493836774881 6.706874659955411 -0.09208765926588011 -0.3274179034049006 -1.9151023876337148
Ni 6.953551188329544 7.642166218313507 2.466024807651889 0.7417681471269871 0.4407359328044668 0.5160371166406273
Ni 4.536354353920672 6.472056842286924 12.343774312836894 -0.8256555299702619 0.3414643541956377 -1.4214300118415326
Ni 0.8869960623029847 6.0006111542868945 9.6562621060054 2.898662475364666 0.5057282785154515 -0.9281448441854402
Ni 2.763408694899266 1.134878984305965 11.923000855006741 0.7397943112300679 0.909418985641163 -0.7270313551374447
Ni 8.819846754355622 5.98793708788727 1.4002439828722784 -1.6759692248088363 -1.956875872026075 0.3504241344920868
Ni 0.4463147984979297 0.3584200093506008 7.885509217625857 -0.1360532662135528 0.8147522527941968 0.31910809798762463
Ni 1.7246621806806046 4.732659094982686 1.521704248088459 0.23218269964897434 -0.32020364504464854 0.671464673615734
Ni 5.594754453234593 3.158495675050356 2.017122502818981 0.9050375687440155 2.0191184229060646 -2.5431393290831164
Ni 7.752655234803886 2.5914074699310605 10.817929499948734 0.10375866784590516 0.6057768444996212 -2.7641058483012975
Ni 1.719744162208978 1.5644568045278042 4.705988089169735 1.7745406920268472 -2.757938028927689 -0.24055806819686312
Ni 5.741925231558458 0.41376250818939786 4.107308086447175 -0.4489758042157558 -1.7010246251155674 0.2602871711946743
Ni -0.08472765920676632 7.177274806810439 3.8085763663179124 -0.3287674754542596 1.268587441984783 -1.3181179446147429
Ni 7.835586707941035 1.3354084141678544 3.5351058816690384 -1.7827399400081876 1.3921855131541183 -1.5159748743986536
Ni 2.613973039647678 6.343384099605399 0.17080684905366766 -0.26599296333019995 0.7276227088645404 0.19934148474923732
P 3.9668718503349267 0.588055418832634 8.776980491850109 1.5266053575293062 -2.164602238404898 0.8792524893601116
Ni 5.895604064401167 3.1194103703547964 4.156015882547088 -0.45163612465673836 0.9174899355747554 -0.33727551292527075
P 8.951718057922829 1.1278994656103294 1.541850559470444 -1.989215464699045 -1.3967363657495946 -2.149812995910865
Ni 7.598227605915685 6.069842433110225 4.9633714765548405 0.2568598906806802 -2.318751699998529 0.2480806018261534
P 0.7094075246200213 2.4707403738593636 7.164516616410642 -0.21420657478652785 -0.7367856063107311 1.7968699516516666
P 1.684892790708917 6.634277496685616 2.5935456986387435 0.714173268227854 0.0353243863329069 0.18565010330507384
P 4.440249617020238 9.046001648885461 1.6102452204898607 0.7784019962999369 0.5234025558667631 -1.167018582701345
Ni 9.04811861548321 8.621092248453417 12.082047908387937 -1.1013685488017033 2.964723371549481 -0.1847756711199205
Ni 8.945163781425867 6.5076754986237235 6.708985155476225 0.4773934361265004 1.0350641691475142 2.2966201582068124
Ni 9.181413555976414 4.399916318915525 3.2383903642252303 0.4628690172580803 0.11031960889287452 0.19379355834781462
Ni 6.394616540150051 0.9790554516786366 1.1687208678039553 0.7555148072891181 -0.8832862931098531 0.8686240631119878
Ni 5.0988388500195345 2.5235073840774938 8.695448620210337 1.0164259852210367 1.5281894141869745 -2.977133572288376
Ni 1.9615313297379158 0.5050444438931253 0.4066378524824756 -0.5595841479936426 -0.2831517344976736 0.7954067583880495
Ni 3.1551676926259464 3.5578165883969426 12.75366896589748 -1.4191278460709171 -0.10531495658943153 -1.855451251629985
Ni 6.374694867581714 7.657437959883295 11.270524940833175 4.780657281811135 -0.9345396919681905 0.39700892423016143
Ni 0.4829336984411768 0.23499715894358103 3.2123045286552374 0.2767437740888008 -0.818209872325494 1.219672461451635
Ni 5.872825873585212 7.375567092931476 5.40802413271969 0.0972352649050906 1.842664384277962 -0.5297441818140748
Ni 7.888113363872956 3.1405985251235333 1.619175306662025 1.214753683993779 -0.5801141496261945 -0.13484279084521936
Ni 6.6048895629989595 1.7568788994280085 5.713128014752134 -0.4370718536893182 -1.5353352812031364 0.46992309589138426
Ni 4.801834907432276 4.61226933077969 0.3239578269062831 -0.35255789300563795 -0.01298921317081634 0.5023552482781606
Ni 3.71082982475477 3.9695619694613242 9.802467769426187 -0.5386391703108595 1.0346743899082633 0.6947663244561518
Ni 8.954010668037421 4.905242716875163 11.400685106770496 -0.41882730565683346 -1.7729579209207593 0.7894695669680082
Ni 0.4176701142193915 7.951113920046144 1.3627930873229288 0.507798530780919 2.242646017983202 -0.9336562609219726
Ni 8.028748354491107 5.941798309331089 9.847225435276238 -4.459380715417281 2.3848547622751894 -1.134629367737362
Ni 6.499503452892675 7.778280699471836 8.873774860664046 0.08182972898329778 -0.3162552019198618 -1.4595640997090928
Ni 8.891869840657206 4.020387656598548 9.013689712863135 0.5421458979125372 -1.4333481034353572 0.31645523374580986
Ni 4.417831957633594 1.6789948663012144 2.8500222108131976 -2.7784441193008407 -1.606603432620504 1.1834929262072844
Ni 7.513317832115138 0.5810722023787491 9.392925327838853 -0.9840159443214473 0.5303129098333512 -0.6970263241349222
Ni 1.2657149155633558 2.4396144937955166 1.7700355232791722 -5.854992737754445 -0.029357113005878472 2.54224252830046
Ni 0.9820968578387215 5.643389218609081 5.015231611562319 -1.3334167797553422 -0.6204413884903315 0.30909725071884186
Ni 4.917574740636723 2.072362388866359 13.308443636046462 -0.7401622360924478 0.13857089042908394 -0.5314894466399557
Ni 7.613129571660539 2.201534328911545 7.700633322873 0.5919358248514709 0.8586625810239018 1.1629158733868812
P 3.0270681024730695 8.260912106176129 12.633223735320744 -0.11215949031509072 -0.2317857213208718 -0.6998527378401238
Ni 5.831891689764981 5.799896836512538 3.5346187020196873 0.37263923713654534 -1.1710950667635638 -1.0415893718605416
P 7.668817810895649 8.567234399551731 4.742411007925766 0.5020510867741805 0.3112934870392123 -0.03475257298983692
Ni 6.0247667600507295 3.700143303414168 6.4958583876983855 -0.6255247165505098 1.9043004119222042 1.0233736201834633
P 6.768635542675506 4.963316010181101 1.3197946299600023 -0.16057901926905893 1.2559263015773465 0.5137920293601925
P 7.113137189975578 0.6047230641415491 11.4580253195035 -0.09999997213442133 -0.6960269363361303 1.7013611825193795
P 3.8323474052238162 4.103124997427606 7.31880003272712 1.9259164475300834 0.376109712183649 -0.9449230920850435
Ni 9.203461439538124 1.9411012154102938 12.456236083353298 0.8924443054600372 -1.5510634905716707 2.38173138615486
Ni 5.450301527223995 6.009208442216618 10.016487545821244 0.12618434383927302 -2.3526023299993866 -0.048807508421006264
Ni 1.9925924990323998 4.03454082629791 8.227672032833219 -1.4851267786695455 -0.2906876378634026 0.08372437490284934
Ni 5.011285179070708 6.861384563964661 1.1307513616601355 0.5548510041840314 0.37685070411473165 -0.4664829598615837
Ni 3.362251398984797 8.13859026328785 7.128039155720433 -0.973262562459685 1.0605281177465735 -0.33493658037944896
Ni 2.4389488973106346 1.7904545443320459 9.541688915528622 0.46659634551099644 0.8067594643967074 0.4719249568127614
Ni 4.551857205381044 7.724598494086994 3.2619330665592368 0.4202902633556052 -0.30502565175262947 1.2481260888066374
Ni 8.924105048195857 8.12176546325334 9.731786969369114 0.19138109225158006 -0.6173329247683368 -0.5252054134034567
Ni 1.726705192113367 8.599922582475926 10.755542771644938 1.6690521859740288 -0.9159662998413773 -0.18676030565011706
Ni 7.354730225196426 -0.018944539950948275 6.9880032019386755 0.8114458141287831 -1.9262069821873082 -0.38448173829742815
Ni 3.0777643680715667 2.697893663116526 1.269731605461705 6.141298701610385 1.1475257640840562 -0.9588823824786132
Ni 8.794387688808893 1.4974164474672096 5.543717993877156 1.5272249933911761 -0.2294853553224693 1.244670269047553
Ni 2.5591815067880335 8.815954863798188 2.7582475488227454 0.37739577798492424 -0.08017136744426838 0.09465182044863053
Ni 5.145606247478104 1.3034875160803978 10.42916938416227 0.46568257544747543 -0.1276141343072641 3.3627473673077186
Ni 4.274016894921008 4.645216356781339 4.920575471456066 -1.2504413672033754 -0.16204171985751448 0.4724772297718057
Ni 0.15274145112650073 6.638742539771699 12.627121509769765 1.258355994064762 -1.594216628920377 1.123471808458646
Ni 6.670265928847351 5.594024145980348 12.738055181689628 0.8516959198980816 -1.5779163490984567 -0.787717874384224
Ni 1.1471555416937849 3.195427035565672 11.043612005862219 2.0421117984774444 1.4259860066433312 -0.11854071125108619
Ni 5.29192654140462 8.903360624417042 12.667062845500046 -1.3165804249242938 1.3992041105637967 1.7520988180835633
Ni 2.1834522910722565 5.289301133047585 11.518288610132613 0.08637389671055447 0.5952785160714587 -0.03938107290078379
Ni 0.2757316638183473 4.1874431299082575 13.457924588836605 -0.21688463583932327 -0.9435709489325234 -0.3314689335458227
Ni 3.3685653211955504 6.727581181712172 8.956863488526789 -0.4393938169542755 -1.0591677470639371 1.07603701201545
Ni 4.757082788219599 6.216264415388599 6.81152953836789 -0.8213779856408305 -1.6577277621001452 1.5057668235174002
Ni 6.9571749914139005 5.607474741612334 7.590714685592582 -0.27450691433848207 0.42722632835380614 1.022834974071174
Ni 7.355682397945633 7.4804540056741 13.563796954152677 0.29558533227533607 1.8790683768282928 0.6984908244955905
P 2.523951115067415 3.229011924865333 3.6516675416444015 1.0681429539793539 1.0849127172385251 -1.548326808366798
Ni 5.305922556378385 3.8082287770424736 11.604610927584408 0.08971941614401968 0.2949163312327695 -1.1093453963595927
P 7.86709160822544 3.5619303444493373 4.656818997728216 0.359644110428458 0.0656942568740159 0.6203467718939962
Ni 1.5828623962139108 3.5656743246767975 5.586351297612961 1.2095700829103104 1.6089693617495193 0.9036219193434115
P 3.6476443806691163 0.32017224689851786 5.126436144273946 -0.8881695893440833 -1.5619603399898325 -0.9432775860618205
P 1.358981623007418 7.61241775319754 8.11377553211607 -0.7614612546805402 0.427851877752947 0.9151921406795142
P 6.78804877348456 4.0613680623968955 9.646669196667043 -1.7720153545018322 0.9232129541014615 -0.7872697311032119
Ni 0.9711330046294185 8.261346592770426 5.8827284701769536 0.5162744294624141 0.6757082793834364 -0.7788280280937618
