# total energy = -340869.94788321434 ev
CRYSTAL
PRIMVEC
9.26662321733859 0.00000000000000 0.00000000000000

0.00000000000000 9.26662321733859 0.00000000000000

0.00000000000000 0.00000000000000 13.56263976320132

PRIMCOORD
 96 1
Ni 3.2507221459093842 1.3024980213305373 0.6381154256282607 0.06273748823853711 1.953593087509745 -0.7699104138891578
Ni 1.177444941478408 5.920019286836034 13.584611047224438 -2.3106956624632717 -2.1202265405030003 -1.0689680209838108
Ni 7.628404670197183 2.905660898450789 9.303428356775552 -0.7010565283402379 0.14088951125993157 2.7423592006528255
Ni 6.165492134948884 3.6936296675553546 3.805663141835625 0.529340775728069 -0.2461093370323955 0.6191491520414693
Ni 8.054187472201306 1.8141360871234695 2.524495960409616 -0.08617566465681933 -0.6263459269002245 1.8939262677767317
Ni 7.919432237876767 7.874702247773304 10.90769859536615 1.0974201056769164 -0.39724957948605777 -2.091247893882463
Ni 6.14667162326458 6.412419842901436 7.342270806220446 -1.0712388192958584 0.5428023005496135 0.001913157862312834
Ni 7.454701818635259 4.828068210842304 13.15298007932964 -0.10424434923307209 -0.6452563906514823 -1.2249396233878453
Ni 8.542214182124418 6.671987224875352 7.590209502762244 0.8152965553334411 1.0720906257731924 0.05569986466546536
Ni 0.12414680410484978 3.7719141002038015 1.5732390975382955 0.4967281318993704 0.6264605981012178 -0.6545337021883502
Ni 2.4329797165184233 3.0455591086417924 2.146748552998267 -0.5128888008196328 0.4449697683801562 0.7637755046360136
Ni 3.342795313853864 2.7086524895840776 6.918804660012028 -0.005322183543861801 -1.5597440490648042 0.31209155746047545
Ni 0.8147215102333617 1.4129098365538142 1.2152027242991184 0.9262856794895145 -0.8540371664367485 0.26570679954834886
Ni 3.949323601038853 4.286443352429773 0.5118780713333672 -2.5328294625166765 0.6637462219255537 0.35053803436213177
Ni 2.9733535808012745 1.2152434974411228 10.446569185893487 1.0540142278874556 -0.24366370370538035 -0.5825998921625257
Ni 1.7797847149847632 7.959918114562498 0.6149831541769921 0.4090686836081729 2.2076425053248236 0.426980016670955
Ni 8.976753943036304 8.28589938488767 1.8444648181385148 -0.19038016179089148 0.3261855736596963 -0.05241476615629038
Ni 8.382216666249882 0.8897552114692758 11.297339713632645 0.5957580268110385 1.3200529568539265 -0.0017727756297066242
Ni 6.052003800828911 8.244014248101335 4.80075391234863 -0.5388127197742463 -1.457109210410697 -0.2528955067162935
Ni 2.10857377213433 4.942789005845592 11.277890924896548 0.4766359891351856 1.179621616177336 -0.16085181331447138
Ni 0.6828611689911341 9.237868851081751 3.846405703983521 0.24063880083612754 0.06665584945633682 -1.2589625173005092
Ni 6.784243098112008 -0.3211932061266108 12.689408914648304 -2.2084230922445904 1.8561212811138164 -0.291012368192673
Ni 3.3934188763015993 6.413263105611072 13.091745306675259 1.37422944289633 0.02082002206914479 -0.8748870133025641
Ni 3.6883662255875143 8.383412060640465 4.619706335252005 0.12251460829716963 -0.7373823593544656 0.03914607407184226
P 8.874033425054767 -0.16367543861579667 13.349407470922788 1.1478245262713973 0.5907446327568472 -0.19135306722712206
P 5.675408234679185 6.451636192211121 12.458776563562736 0.3211251284176534 -0.031690132014429294 -0.862092175530741
P 1.5066231968016532 1.8780109207226345 4.259048434314408 0.36674086937423933 1.0355863601995714 0.45467593992432664
P 1.5192906706925653 3.341460920115538 9.962341791475328 -0.13130726688813515 -1.3176883132764918 0.8830428096404792
P 5.303112381686288 0.5856978449323322 1.501601613698884 0.19112398193545146 1.6110882078647348 0.9065558051607548
P 7.2336650558555 3.0222350180906394 11.769604824184103 0.8795965029630917 -0.5085811745832144 -0.2930103724593083
P 2.3285819397407956 7.926817736553472 2.8313499938231343 -0.6892932171567226 -0.12127610790437823 -0.00024219791779313127
P 4.39001639974413 1.4685837086361853 8.697191968220821 -0.8738284901310628 -1.0678796730156384 0.18528346399427445
Ni 6.98858140591633 8.849245208040728 6.973298890963226 0.39868759748416494 -1.1062860407079784 0.6531694748509719
Ni 9.191202136733079 7.587251596642289 5.297132629746415 -0.8451329219685833 -0.6946912482438422 0.0881574709735385
Ni 2.445739856641164 0.5477065432074149 5.786405700487617 -1.3368299192019493 0.5630474239518948 0.8068959899745717
Ni 1.5648917233752129 1.201084097217777 12.401759031118855 -0.8574114822256201 -0.5198770592120078 0.0880289158154742
Ni 2.478895834389287 8.558347373085704 8.634139084097972 -0.650578317085028 0.6864318364485276 0.08052823656305486
Ni 9.335288860602716 5.009091694718655 5.685431014313722 -1.3360189932648798 0.8258491340383067 0.6208987877427242
Ni 3.79597952060958 5.799256653517548 8.714267574759802 -0.7265988955857164 0.5203180034041683 0.0789737475917414
Ni 4.705183520814955 0.38161714925249407 6.481355179420738 0.020029922067681633 0.36993083706644675 0.08991404865332903
Ni 4.606076985874715 6.182774387184839 4.836356278617017 0.9892915908980899 -0.7651515590479339 -1.027021758459012
Ni 4.509027641281063 7.373674465524698 2.6038367881009044 -0.43983141871232634 0.42666917029875556 0.21315345093166516
Ni 5.526678932594956 0.9610229570436928 3.5927708141712453 -1.3730246239549515 -0.07923934254830226 -1.3444041320047815
Ni 2.533550377921548 5.803204234993429 1.9368261780639804 -1.1588884973950428 1.2827724752359133 0.03184851196916451
Ni 5.508451484794353 8.031613978127961 10.759065666163021 -1.1222813876949704 -0.5828639444571897 1.5470484558750066
Ni 4.178144327292179 8.60157617023355 13.958533192585922 0.09260753632509212 -3.0624553735853324 -1.7544904582441916
Ni 0.16059150642055484 6.2351215415445775 3.044392440783076 -0.5115803664208545 0.21941640112224148 0.10729033514824748
Ni 5.6008119180575004 3.216342973901129 13.329891035837456 1.2538627341800985 -2.243133499142582 -2.04981790887245
Ni 2.1681210927071186 6.3899204818135535 4.628508700613363 1.107094652652203 3.783096251815401 1.603883976806812
Ni 1.4591502862360763 4.626028025587322 3.893576522633338 -0.6301886976850825 -5.460166165887584 -1.4897951306794923
Ni 4.624480499515792 4.516533606059145 6.553467114367108 0.14567819089782655 1.0965479874846082 -0.9086641097530092
Ni 6.621669460992649 6.133818816910011 3.099415795918013 0.8472054882268959 -0.20637885121199295 1.1439118214805524
Ni 5.508238352461148 5.980419136741641 1.020515604539703 0.5007323679627569 -0.4318581706988627 -0.8026012192539597
Ni 7.9162723193714255 6.991120460668422 12.968664164236435 1.4097070669776497 0.6305190844413077 0.8202096763643422
Ni 4.797497620962187 8.565529006052389 8.578668151063306 -0.39575988231440873 -0.5476832827909986 -0.5933612444440878
Ni 7.899268065830954 2.9468139720056836 5.868201256660034 0.34015566268654324 1.2946548284957962 0.1303760133231174
P 4.14263462725562 4.84913124533685 2.7107106065929814 2.628099633275596 -0.23060609919047384 0.5118387622885637
P 5.064181769540508 2.1776101148463245 5.339381018161519 0.273255044209252 1.4209096205616885 0.6433524887605501
P 0.33648591436521536 6.240005051961923 11.49294052243789 -1.0264717994928128 0.3311683715862684 -0.3224353625886447
P 4.65936006917592 0.844015159438886 12.27132760317142 -0.9652751733788344 0.10796396417650438 0.16381398126658883
P 7.547358783840258 9.050803528890203 3.478193651827292 1.4119120450487683 -0.07264986225624263 -0.8223945998308029
P 8.458925772957251 3.926740840342325 3.5252958974655555 -0.6928477672772004 0.24247971069960825 1.1427203722756125
P 7.0502415165748005 6.4877389561313805 5.412565101410143 1.1950420644974644 -0.9608130238424228 -0.2681760870244478
P 8.097722067914185 6.126720583551972 1.3894652799012845 -0.6345153500848943 -0.5718927901576667 -0.06933776716387413
Ni 1.2393923174555466 6.6714126942380165 9.48168204698256 -0.43500982895396695 -0.3557118652535874 -0.22094337928972915
Ni 3.0921238901354533 0.8026471002261498 3.0957675263709374 -0.5415198342927642 0.34788491301000085 -0.5926832445404566
Ni 2.0655673739428715 7.88968637745992 11.529545537334656 -0.10061189468680735 0.3951320189224227 -0.19159295115207003
Ni 9.09501458809543 8.867648721681805 8.650482627405509 -0.5515756758668694 -0.42723147056012867 -0.5222293614942685
Ni 7.7412721405639076 5.481837743013299 10.19815603824473 1.1962965057298558 0.26315832209488227 -0.19878586935608344
Ni 9.248228935800142 0.7102023406920388 6.012901430984373 0.067671949425677 -0.08618903439325801 1.0956025928522035
Ni 6.64876506717921 8.18109387669 1.2720182443576122 -0.25385941329145956 -0.39130364631526804 1.1633488471592415
Ni 3.498613582672949 3.1125104611376533 11.839370450140585 -0.2943990252767188 -0.5062592113182571 2.3062903343067247
Ni 0.3051804812667012 3.44386637290886 12.052466643514988 -0.38443211600641536 -0.19259773826750057 -0.339307455753635
Ni 5.453018544914736 2.085592546640941 10.68943533290501 -0.1441650966874098 0.4906924672282516 1.0520501621825495
Ni 8.00563036672334 4.522862709693009 7.818074840165421 -0.37013652531934965 -0.48803163256663695 -0.6555122640515356
Ni 8.077465229636546 1.8460132708723636 0.1960122468745585 -0.8783235497879389 0.4727122286007471 -2.0119373317765925
Ni 3.531167229914189 7.077114723804972 6.800334589268973 -0.9916906872578857 0.7665276134598541 -0.3030484734216007
Ni 7.06204719450971 3.585979306040558 1.424144690500663 -0.6433419472375888 0.8118687605988147 2.387662921147946
Ni 7.02771435561737 1.0473971517307397 5.159200796994806 0.8605891086226534 0.45281343279429115 1.1389665616601352
Ni 6.616276286300249 0.6009803598854357 9.538156555307923 1.1928268020137005 -0.48276832728516855 -1.0258665618086462
Ni 5.8738066370233195 2.620276704289542 7.653682164915275 0.09782456174965733 -0.12090381216662402 -1.1177793860595588
Ni 0.38047179462709774 1.988079870888147 8.420866824883097 1.9434644837161756 0.48637764190298166 0.7811078252668741
Ni 5.724475004432207 4.5150416797267106 10.912147501156221 -0.5112908602048936 0.42394277250652795 0.5096859776116189
Ni 1.6084911854503718 4.525142298995983 8.257423051846873 -0.4127435613565988 0.2722134903186151 -1.064342349286341
Ni 1.0207834099496864 2.8978120686149422 6.336681878303627 -0.17535309225443993 -0.4357009414837206 -1.1380335083229047
Ni 3.7802725943147033 3.5235222657883645 9.615382739588894 -0.4638856314480527 0.14482844130302155 -1.6787323893762702
Ni 3.646471822177994 3.558865166607632 4.367238113298446 -0.23547731123984605 -0.3786293932817092 0.8483208327782615
Ni 4.790464253966428 2.6983665378511494 2.1014764654386098 0.3505521754295189 -0.4383208956050709 -0.2759955830688666
P 3.6821297881854775 6.6050729388722225 10.64846203183986 -0.6912809370107127 0.6326839533031103 0.9099329491631039
P 6.807826654112281 7.770341537488407 8.975741101122422 1.4405749602010998 -1.3019302791112868 -0.24852257445957845
P 2.293322438530173 4.667561030692713 6.08441752206009 0.9295831192938635 0.38698033634956575 -0.15891911506813275
P 1.218134683874162 7.692075638086327 7.03580967762988 0.4512373465564229 0.5098669832741736 0.3983641527064752
P 1.0391591237212146 0.39566812998460105 10.19796607246948 0.1172109366960691 -0.4460452608325221 0.8528593440785633
P 1.8981565595220806 3.532557223391612 0.07208969505073291 0.10592739336244983 -0.4050965863343023 -0.43684585372144125
P 7.756784467771944 1.383089843151506 7.776152636886352 0.34406116838853645 0.4213814395372549 -1.4467242676319472
P 5.565283684774577 4.666541702142603 8.437454080380341 1.9205670102927117 -0.8132052200220511 1.8009438646107243
