# total energy = -340860.1105229047 ev
CRYSTAL
PRIMVEC
9.40134223047181 0.00000000000000 0.00000000000000
0.00000000000000 9.40134223047181 0.00000000000000
0.00000000000000 0.00000000000000 13.75981465652574
PRIMCOORD
 96 1
Ni 3.15832449559624 1.5036882728182226 0.7563370378344841 -1.9226616880382112 -1.9515207783617485 1.193149475460442
Ni -0.1663764926029821 7.47041930826185 12.742743707313766 0.7210748804436936 2.3651971359452624 -1.7546722352376942
Ni 5.788434581097122 8.85953342399487 11.874981021888447 0.013627360975447499 -0.07413904520725942 0.3023028535048277
Ni 0.9403786523840565 7.6398314942531 10.082958285237892 1.5331871245118822 0.28499264436115435 0.922671993996327
Ni 2.8925579536546953 6.115845723679322 5.932378531136634 -0.6390839432921832 1.556624529599216 -0.727983691748385
Ni 8.72978550063942 1.724196753529918 7.991797062327639 0.023892490346881436 -0.23640830769454765 -0.3300175458112768
Ni 8.131596900736467 0.2902861824678359 11.23675962673644 -1.0095397996241644 -0.09713602032306497 0.46001894940379484
Ni 3.290253530336262 1.450749315031501 11.965383388107828 0.18276172601368523 -0.5009514259520985 0.5768884436000452
Ni 3.166672887447529 4.6886843761645824 2.227081127403509 -0.9272709262209193 0.017068525446512536 -0.7230700564968514
Ni 6.379816609265465 6.912816302527833 13.404948866488096 1.527520413144408 0.820896932239354 -0.429429506652712
Ni 4.542643926820073 5.653619334309413 4.001147300500052 2.104624829410001 -2.887280715890286 0.8176174901571338
Ni 4.4352053884456 3.052841436394141 14.022076470202336 1.4785049024776538 2.26096872755179 -0.9584396385142396
Ni 8.8365095370086 7.823505516323635 5.300555689468848 -1.309332742222945 1.2613006785153826 -0.7549998153259126
Ni 3.796346582294138 3.5189317773979236 10.555525210865945 0.0722549408106691 -1.0299641289167876 -0.6563039067148955
Ni 4.20452465550069 3.747224569430416 5.588190693443369 0.7132031910051008 -0.20447057844568658 -0.09889388355443614
Ni 3.590551202086122 8.693035654077832 13.513239166463613 -0.37898189152512146 -0.5991513687633035 0.2509975183626323
Ni 0.7783700233555214 0.8510931656150501 10.442185450008305 1.5077283181191454 1.0214967148757246 0.784658775842926
Ni 2.1109021612090553 6.335996953388372 12.360867769109863 -0.6217017432599938 0.15602431001884096 0.7108197783745887
Ni 5.594973761822542 2.2811416653116936 7.014065937348586 -0.3717036126961534 0.3726608344031001 -0.8668541156957585
Ni 8.112634393569744 7.322921650880236 0.94839235645392 1.099448448960855 -0.7473047606745 2.1300221864371833
Ni 4.271913476210195 0.42458247516749165 6.387979794675909 -0.6833763374516553 -0.329903903051548 2.7609608749144128
Ni 8.484166034978632 2.471528245695089 2.9496222203877522 -0.1927394060516874 -1.521952175028011 1.8921732896413672
Ni 0.8643970049267159 1.5472728951409436 13.405361585409574 -0.026720446713979787 -1.8004705245187316 0.1553563374175389
Ni 5.427244416080596 5.05207445525003 10.480603094671714 1.1000310609372022 2.0702437808269702 -0.7740208365131056
P 9.388556349517266 3.1736298806569363 6.207644189211673 0.029131113038001442 0.156296332733305 -0.39930131980876393
P 3.2519148569471215 4.307770195265168 12.706321967594082 0.6184534115260252 0.5986039809002659 -1.912492975035326
P 7.214881426606571 6.352599723669202 11.315961233888677 0.2494216892350801 0.2725523617152726 0.11615575595867737
P 4.097377558733639 6.990461987550127 10.289313985439529 -2.2084156360454226 0.05927652627313017 -0.10115414034352256
P 3.311810807943251 0.48678927607020517 4.62603571217965 -0.12040039016764424 -0.7473638960472095 -2.9598120502907928
P 7.454540441328487 3.7550652888042615 13.132972738040047 -2.76316790986806 2.7039435769891047 -0.4845274760681204
P 8.476109084734764 7.113600767356642 3.1056036489479752 0.9244789652980788 -0.8908990724601045 1.0419567825022893
P 5.735401609888651 3.780477116702949 3.2085276628100723 -0.5544871930867097 0.6365935727701617 0.6724229237639452
Ni 0.26984390404278746 0.5510822348015235 4.267922606456961 0.14404399772851323 1.1691970784099024 1.349746113042985
Ni 1.777342540844487 3.580867819646001 0.34776786879345717 -0.0846142337069704 0.3184331834077871 0.04165547075725729
Ni 4.593495786643972 9.390446019294417 2.511785733022122 -0.5372620874576747 0.38045770473969964 0.1400652155864233
Ni 7.404196253982031 4.459620674073751 6.655457380893281 -2.3042046554222897 -0.7303691612614259 -0.8269696207959951
Ni 3.1970768280410744 9.305880946431415 10.132961203863399 0.03471632043526279 -1.2029757175222442 0.18567787121921572
Ni 7.857425558890584 4.743748037282826 3.4487319553781313 -0.4229014757262072 1.8452226319234415 0.5637123112294034
Ni 4.823866275297112 6.364276190650396 6.809896989336823 3.378097110290911 1.1857105026838934 -1.389519279175865
Ni 4.473722687336064 6.79343805959127 12.29409191591016 -1.7066201169254736 -0.016222632506449477 0.03194518544802886
Ni 2.320636703788344 8.357407738434793 6.380288556642643 0.12785761777663784 0.5229952931260154 -1.335695805597506
Ni 8.204814553594394 7.113158904274423 9.464082972013344 -0.8238400740280779 -0.10945623245131472 -0.0005191057282636222
Ni 6.256903461671149 2.9357571209482467 11.476758970045086 0.3592556167407877 0.03145204786169421 -0.36578339055697645
Ni 0.6677688734734207 4.39125411377806 2.438487228621491 -0.5492125749513316 1.4718488306137167 -1.4544656021402629
Ni 0.2808115098239968 7.587541229076444 7.529260428665959 0.32171982457885884 -0.8038564318172995 -0.26533167559711723
Ni 4.64187509347588 7.73168260730163 4.891284240167359 0.28261103150285516 1.9726128231453575 0.11853145527970556
Ni 3.6933454774262064 4.898071069083401 8.094940127462412 -0.10970023014132076 -2.270533745532406 1.128772651846269
Ni 5.864745275530583 7.5551536052840005 9.443347371712438 0.7065790008203638 0.5572763257960724 -0.9803966024013052
Ni 1.7033915832969195 3.0725842549613787 11.401107309698086 -0.2940025611692485 1.0355015137952488 0.7978685896649808
Ni 1.527586484626755 7.663099816135916 1.4347773748106056 -0.40096148112000624 0.7888941540805123 -0.4499173421934187
Ni 6.517978733867429 8.169503112385563 2.9967502085761835 0.4345868824839354 -0.6464938626030092 1.1748313938775445
Ni 6.375670617366346 9.098656562212819 0.8026668520722686 -0.6896012353154446 0.23937304674982643 -0.5122524527872145
Ni 5.378611273009967 5.195745766366471 1.415885377710194 1.1955102623831346 -1.910070481636762 1.2672949484256046
Ni 7.474038824999178 6.838310665791949 6.925699901844283 -1.2915779893426853 -0.35108439378390505 0.031840027328732264
Ni 8.008223087375582 3.7585249827246154 1.291154010539256 -0.43825353270224526 1.0633751002770655 -0.3776158644155303
Ni 0.5240364536328429 5.821179455892212 5.351618139357465 -0.4336008644215823 -0.8171382365278701 -0.19294560852522252
P 6.6177927837380786 6.235299177353285 4.721872994310327 -0.016971080636699803 1.1304366698122532 0.9875069881938413
P 1.4693545711955787 5.722296138896875 0.7011248355098776 -0.5637681041680033 -0.3248282883008535 -0.47096310712012435
P 6.0359719205615825 5.432217726091105 8.181544351443144 0.9730175363284146 0.2543877749911038 0.9659459741936139
P 7.111466662682944 0.9053172868770772 3.5453401475671478 -0.023308849929269536 -0.7561087321193752 0.11715077288209502
P 0.49832378278455947 0.11811000187717334 6.37217049767464 -0.9706228108439929 0.3022177499901892 0.22112978426892238
P 2.1914152555946855 5.695408300276733 3.9523966406522373 -0.40280187676285467 -1.2258199691102696 -0.3495278479300626
P 8.475234759912501 -0.06427039551009862 14.08372107084299 1.095193530339243 0.11736931665080431 -2.651023589061621
P 5.076094884506836 0.9783036667175026 13.362389930596656 -0.016657663161339053 0.5872864990049176 -0.15335524782711007
Ni 1.3301112922435037 7.733299638155708 3.8925824813330294 0.06178309474506779 0.07530658315279934 -0.33686285086788437
Ni 0.031535862191401025 5.228481239819387 10.549374852815143 -1.2874675667187374 -0.850083323995323 0.4592656161775381
Ni 9.295163416352057 4.8924490664628255 7.5374471174318405 2.4281847925213924 1.029511614760401 1.7849839988473584
Ni 5.87542520024124 2.1143430524450593 1.9130960415812484 0.7092963997515268 -0.8545506157380572 -0.06865102550949466
Ni 2.0881791171723822 4.166138975400675 6.3426277200243115 -1.7256449947674086 -2.2960768841088326 2.224627984139227
Ni 5.343243423748087 1.5619577916180984 4.625691623056049 -0.1048596142195678 -0.9295288690171604 -0.46661819988786735
Ni 1.6013118099621255 3.437083692423461 4.168838100739082 -0.24974410557150536 -0.4414188178041043 0.6487494914064053
Ni 5.604751157684412 4.927365651300312 12.882392184113579 -0.11309048676979234 -2.3182703894867362 -0.6734601067792079
Ni 7.03505255348556 3.047360453906189 4.86335097229737 0.4665043000178224 -0.4681125250452067 0.2820811271413142
Ni 8.860482959554533 -0.12294229175505912 2.356244287275683 -0.0440360551742919 -0.4734246812867395 0.019466850475360023
Ni 6.317100255616873 3.418422028206334 8.829755612790171 0.66622630803493 -0.3344969217388691 1.4382617386868908
Ni 2.279834878749386 9.783788774549016 2.6580518145788288 -1.2018058655838593 0.31617755460439095 0.7352185189339274
Ni 3.719490610014534 2.702641440380044 3.3449693417940347 0.1442687121448096 -0.9365371820141934 -0.5108843687950944
Ni 6.450937762818395 -0.17889908037991573 6.425557899483102 1.3788584570279092 -0.7534221864261476 -0.475998869771819
Ni 1.3523266638027334 3.1079709069076085 9.050160678737942 -0.1318050324601601 0.5734117979053543 -0.11194197498764594
Ni 3.404573851182743 7.4650229378534725 8.221131523073106 0.2607348002550542 1.1616143809666384 1.4932072416848348
Ni 3.42514398786137 7.08017899592496 2.849795008638059 -0.6257653718064061 2.8262172729200614 -2.1222559122282028
Ni 1.943746297339776 1.6868170170426144 5.736369948132663 0.16952748671159837 0.27347615908112255 1.1475710154996945
Ni 1.847655178970378 0.7594328998126704 8.202156794161557 0.22379961779160162 -0.159187538238171 -0.582366693105797
Ni 8.924825745399378 5.302253571865631 13.042102184980356 0.7092951141999462 -0.6985841555403453 0.5410963736021004
Ni 7.4248133973715325 1.7475778915188322 13.386290962807841 -1.1365656655281264 -2.8370675853710043 0.6166179009791831
Ni 2.233928124909471 5.547619201287696 10.140997471154481 1.5420934258625765 -0.4749046082663757 -0.7675244301554845
Ni 5.212470754095574 1.1887527113020817 10.396682013747691 0.14304589548130203 -0.11294779054434097 -1.6231191708873403
Ni 8.944662577388366 2.9678250991067454 12.045396331089755 0.7973466557232397 -0.5609332058223694 -2.7045711832707746
P 0.8880545423755716 2.220954272708143 2.0030715868658904 2.0331635881452215 -1.1419678103803041 -0.6412315857628054
P 1.799623721798941 6.120405374634136 8.057596116075372 -0.9848824060868006 -1.313061870248074 -0.14907924615957552
P 9.214340077674656 9.095140460239415 8.934027779120147 -1.352473025055845 0.7005477070246193 0.6092961705067894
P 1.667647680348044 8.78804561809712 11.927158470959002 0.5908834723275566 0.15607496075111832 0.3140836481898397
P 5.8707151278116285 0.606028379142581 8.291581420794751 -0.0039322451748706475 -0.47305161421803693 1.1885325455137208
P 3.3017607731583087 2.5271465860016504 8.107901757918912 -0.006889270920665554 0.5124419430902013 -0.5958127913083738
P 4.812913711663382 7.100420085627467 1.1658294186770837 -0.6369388719247224 3.238950292753699 -0.579741339667808
P 8.395172929951265 2.8468862333691525 9.87914752836299 0.13842202355604546 0.7589839967846412 0.7034677088848916
