# total energy = -340870.45491755585 ev
CRYSTAL
PRIMVEC
9.18257176743497 0.00000000000000 0.00000000000000
0.00000000000000 9.18257176743497 0.00000000000000
0.00000000000000 0.00000000000000 13.43962197021830
PRIMCOORD
 96 1
Ni 4.137905622526051 0.48113095291536045 9.095184068580501 1.1757348795284204 -0.11599840444520668 -0.17805429323568692
Ni 7.849822554353815 1.839452793013316 11.80385911292489 -1.323405161155611 0.6506562215108148 -1.2653445095674531
Ni 5.05432629316667 7.468957021726951 10.317987676800216 0.26879675132758224 0.43651263875173857 -0.041733375183044256
Ni 2.6700072342835908 3.0096797495908767 1.9459899098754356 0.04759394772887932 -0.3793030223099661 -1.9966343828709354
Ni 0.3186508535708376 0.772069722899762 1.9557335368655835 -0.4125473861853927 0.05385072727186854 0.7886396148675451
Ni 9.178604979067163 8.989012418078017 11.439550675600954 0.7229507573101678 -0.9251813906817422 -1.3567389994210506
Ni 0.49156786408019143 6.520939121350116 9.056598901666355 2.4392387363427086 2.4356355923724826 -0.7218667802173697
Ni 3.699042966093915 3.0360704610880824 5.858452374395154 0.4539526886050569 -2.284156221411847 -0.5999694937892248
Ni 3.339343261581547 6.246536326753386 2.879290902348106 -1.1614071500518384 -0.07697188667036421 -0.585425791647095
Ni 6.505108367480533 3.7643769648074223 3.606750772942866 0.4263840349581689 1.0118751326255606 0.8688269231514134
Ni 5.810272338154831 0.1703275252476238 13.330250483852529 -0.4386595098914122 3.575858137926906 3.215828362024255
Ni 1.685259046506329 7.321025789221738 6.829720546696459 -0.7008580391761865 -0.4177276448347516 -0.10071062504820075
Ni 5.523794461575211 7.4057258319671195 12.640529147047337 -2.5053245722281887 -3.368886390325921 0.7808969948076486
Ni 2.3564866836054077 8.20733680676586 10.492259116657461 -2.097195112604833 2.3044715359304315 -1.5392901520858264
Ni 7.502197931824337 7.682369174095275 0.980141291480063 0.25912991766177956 -0.24892520921463582 0.18008160807836085
Ni 5.538670227972384 1.7983332362685394 4.11710709728556 -1.6989050076694032 -2.0769566740707712 -0.8684967935055042
Ni 3.331666631514858 7.11331601397233 8.63983594090587 0.04835448004398769 -0.4011787393371349 0.4819633148853699
Ni 3.0356296976392776 0.9735913629793821 4.235080189129802 -0.49122674246516695 0.5513581605394245 0.00881862673289449
Ni 5.690990729821948 7.973300598022196 8.193371951496216 0.23908225498228503 1.0383608376209148 -1.7914025007791923
Ni 2.9633904048944903 7.705637811163444 4.702282098805736 0.7199587645613794 -0.6775833849189621 1.6264135253678957
Ni 5.229281834626748 5.265378524569516 11.471765892422683 1.0405357337850467 -1.3222785037503357 -0.04738106038712485
Ni 7.097338338953145 0.5525695253948183 1.9853684509974319 -1.4986356117892579 1.5515216611550118 -0.019377376085347273
Ni 7.817178511426687 6.6072736618848165 11.646843562088366 0.3254880333720394 0.5469782863041741 -1.2135833178347615
Ni 2.4208932425620535 5.684994510403828 0.6918985245908529 -0.4040115808002397 0.1729982188690182 -0.7972060163803173
P 4.0340691000450475 3.6596680980006586 0.06602911940256016 -0.27747885248261245 0.4983533262076191 0.17312034626917927
P 7.606264018601593 2.6776654992065794 1.8095644398984045 0.6355836434484087 0.9403673543935611 0.2834337845144667
P 2.121467939673784 0.8949334525113707 0.8861292026214886 0.3562021746264446 -0.6757044227286945 0.22090558407325828
P 8.032840393898287 0.14801571216623524 13.160898147735386 0.28860787251623843 1.0011762581508177 1.2711636873523915
P 7.2832303234867 7.346002384654027 9.663074715107223 -0.5018988774670324 0.3941987084748759 -0.2354045490203817
P 3.72534185187262 4.938368775843527 9.732678609731028 -0.822694390459409 1.5757687066278345 1.1330301415710424
P 6.716702370622534 3.5404507676707277 10.758551863796177 1.8081300979465185 1.9632432090049994 0.1967130459874548
P 6.544171028130886 0.7195720413755186 7.4897399365952975 0.30407948578927635 -0.4287003417961714 0.05533296824434986
Ni 6.16578478990355 7.715040764737954 5.679395896346819 0.1217633319534419 0.09992489592211178 1.052727133644916
Ni 8.921447054404933 4.452427073535896 3.057782652227659 0.355663271403839 0.06442258925044389 -0.7177116203984156
Ni 2.0565287915498316 1.3355224324513262 9.439506638272682 -2.965118550105371 -0.8192956491905052 -1.980663975584608
Ni 2.0737002009095304 8.352999944024097 2.801395145343653 0.7048645892324183 0.6617767569040087 -2.886591660243061
Ni 6.746977310012336 5.190742580571851 1.8266862633701129 1.3499849685266687 -0.1281736063551599 1.5503777773585556
Ni 3.325973436967792 2.761089164464796 10.680911382289157 -0.7918264972359588 0.9502375623194215 0.4065711139972998
Ni 4.8336139961775135 3.3091417827665475 9.094001353326208 0.9703605583215417 -0.19356910104183436 -1.9272503358501583
Ni 8.212919810450723 0.37550015589484637 9.102978235566873 0.5730626420960518 -1.69669565872291 -0.1757421001627425
Ni 3.294660866958929 8.496927575202665 12.960888877239478 -0.34311037443949294 -1.4804561126667537 -0.6199315387334484
Ni 4.245222339738245 9.154583371107284 6.265121852178002 1.5779117211127665 0.14632379490162542 0.6475318169492202
Ni 1.502819708988415 2.8590488409617314 6.622253191343895 -0.2351284125408596 0.93706605793447 0.8574670180539038
Ni 8.875736211735104 4.14994397422154 11.889509551856758 -0.880547039801819 -0.08999272441006437 -0.3210384822411181
Ni 7.342448729348035 0.5138310095307743 4.53998473264103 0.28888580876797343 -2.3156596913367666 0.9238271906466927
Ni 4.778720581657577 5.5148873668806075 0.7505641396268127 0.6055896681894796 -0.7102893597924155 -0.2981854889023445
Ni 7.575364664325985 6.592655007499447 7.586733606533601 0.3936551772665801 0.09574428218186092 0.11520779022311126
Ni 5.070900835356113 4.5503224720298805 6.642788176772288 0.8672793761586354 1.6660005436318985 0.15940556778624804
Ni 8.620157689431093 8.982061211187487 6.595911147477495 -0.08548403790643343 -0.48859521837959075 0.6387612698454418
Ni 0.6293349078045228 6.615602254552863 2.1120906973004554 0.028319672880299615 0.20337400294739816 2.3906446294840893
Ni 8.446386699739678 6.690357571984579 5.495636104996859 2.210723972463625 0.1908535018828842 -1.1237194056930777
Ni 2.136499809792408 0.9594134720428179 11.688009031692394 -0.0307665917588954 -0.2028656958524119 1.2709582562098047
Ni 4.446853252422881 0.30161993756044525 1.8544525241304648 -0.5245047877920064 -0.8096663536308573 1.4757659062799358
Ni 8.589037953431083 2.7232569684423575 9.280825368902548 1.6400786815598143 1.0136520220203251 0.7284940557259002
Ni 1.9722052342503043 3.632910083629449 12.772626870911413 1.468676346423006 0.863727397141319 -0.12101128427876578
Ni 8.289869762554614 4.220769150901411 5.407150087877679 0.27388856402819284 0.05429064302276457 0.8113206014048285
P 1.0353625238150481 2.610972479859256 10.970669273533636 -1.142615471266632 0.7697998564532227 -0.44748970658853254
P 0.8054125595446833 1.5851690133401692 4.979070525569123 1.8683941849438983 -1.4491920124461493 1.1080834989280335
P 6.676115403045064 5.7324959545844285 5.066079066877622 -1.0807169339896225 -2.169131493733819 -0.7013846011036179
P 1.1501538545132282 5.801558077469079 4.2734771133210225 -0.3051398087329906 0.4803908281919275 -0.016974165960493344
P 0.1893042282330537 4.377478922095327 7.610118862264267 -1.2750396253680298 0.06755265023899333 0.21872657414406846
P 0.9183857410165425 6.798344616941831 11.689138488029956 0.772353990333644 -0.07797821644769151 -0.5009907638304661
P 0.7359271200977431 4.182854311732322 1.05839149575793 0.08574114822256201 0.4681696035353873 0.2853896226892569
P 4.227490793495689 3.282126656383534 3.416190368880718 -0.7790414296561486 0.4647976017393608 0.5820915850675394
Ni 6.192634629993262 6.954209591525537 3.1659450843072476 -0.32029080544181615 0.9707963603073797 0.8018753968315286
Ni 1.9040797336943647 3.3928501077521167 4.1053478957743135 -0.4415430020867944 0.28293010540517083 0.8892497097821396
Ni 7.136520373037549 4.106492044226837 7.802023594845271 0.42516893160414515 -1.0288968639945377 -0.7633399597604917
Ni 0.4999102306060131 1.988761411296046 13.108940401435929 -0.7720647412279993 -0.9878849403585503 1.9939213548151467
Ni 6.941133609210985 3.788784240785005 -0.010430483364535871 0.12053228775981822 -0.8111143989312934 -1.3399658937277696
Ni 4.560065180762843 5.233156879947493 4.396395938363731 1.9822806852524248 -0.7356000706430621 -0.1928129396021002
Ni 0.8530434779883702 8.1546931223492 0.1850756538960797 0.6472261127833434 1.1260064019550413 -0.0417058643792185
Ni 3.2316316937797986 6.513684889588532 11.287266904038788 -0.41851311685052445 -3.1548158268966247 2.0117177595666194
Ni 6.209796856781111 2.373667275536956 6.19291102540595 -0.8533311415086594 0.6125501586677128 0.28534102883950857
Ni 1.585150648196469 4.754010280808941 10.49684213826785 0.2007681898934349 0.4183189985618473 -0.03346187920287141
Ni 5.163222412737083 2.7318885859814577 11.957715859044978 2.0936241074241235 0.0252294639907501 -0.9221618871291278
Ni 3.828645785186317 1.5085771815384317 13.194577066510021 -0.34538091564122453 0.8444752337799262 1.4540377705742247
Ni 8.33266972994796 2.1351316065867425 6.886489042388187 1.1462034457282064 0.03552441815885495 -0.14708201322388864
Ni 5.639614240320602 5.6068416413875735 8.64713333075515 -0.9734553951967815 0.795397759526985 1.5387386504577305
Ni 9.090782861892746 6.068927022028628 0.0832831719089101 0.05251143963515472 -2.273586673426117 -0.4260348791488663
Ni 8.10912920082897 5.258179388239032 9.63607428083917 -2.0658299680299907 -2.314008785996905 1.4068238318925836
Ni 2.0705873090523443 0.4767536209144147 6.63312535641442 -1.3706527812886653 0.8679326934719181 0.0276774113106104
Ni 2.7165904212791805 5.229190008908247 5.700093413296959 -1.20192336499833 0.3353654403867515 0.0010592945024497885
Ni 2.228050051137969 4.9705261424625995 8.085586004862483 0.10769451256520163 -0.46514058690107635 -0.5237195728865497
Ni 0.4478533125305748 8.46389786425783 4.399057047685892 0.46462225250376105 0.8508461703032766 1.0891416677182082
Ni 6.505319566633085 1.8180849483181183 9.615095777190415 -1.4593242157841448 -1.7308748757077805 -0.3709320246374515
Ni 8.48101417818643 2.2585453722521724 3.8426565533152095 -1.0631431867719174 1.1944427403505689 -1.032038494947313
Ni 6.6720842540028675 8.809612511842488 11.495271439844585 2.925895085828374 1.0839657799442235 -5.103457741048682
Ni 5.4489473184249935 2.5458037674390512 1.5831470110187758 -0.8043912212748471 0.4405695824299316 -0.2319325313113812
P 1.000413655353543 8.817123855615876 8.39859416803143 0.005180001539042692 -1.1817083235030357 0.13037215666837546
P 4.595537455819804 0.2964290296935801 11.212004708640945 -0.8882860603172895 0.7184433563581174 1.0044808970440184
P 5.015952325405077 8.705252582766027 4.139269234445792 -0.7715289233291874 1.3994000286246866 -0.9307221179943133
P 3.960994193261901 6.762808063881919 6.684491745086731 0.48245928068518196 0.3244745045058606 -0.743839684944035
P 6.833293485403336 5.983060792658283 13.38082349831699 0.0012341295174172293 -1.9800420257298934 -0.47801075799552517
P 3.3102987868196605 2.151853069925786 7.931984534239827 0.3437094414760726 0.5270609785549567 -1.8770942838210574
P 3.945310360541919 7.368435407683837 1.1878115816705146 -0.300459886758818 1.0229375610873093 0.7118191661733806
P 8.147668454883867 8.217446818372826 2.971917341114499 0.10729470602362166 -1.0831695092951732 0.5008413827367955
