# total energy = -381175.63676138443 ev
CRYSTAL
PRIMVEC
9.19370435072214 0.00000000000000 0.00000000000000
0.00000000000000 9.19370435072214 0.00000000000000
0.00000000000000 0.00000000000000 13.45591563115364
PRIMCOORD
 96 1
Ni 3.940210143939646 1.2827331842653509 9.002532105662679 -0.12651755880897567 -0.26149841789395606 0.0285155909411896
Ni 7.843415628671362 4.502828063166601 5.456737386025076 0.11913669296387225 0.7873432646536247 -2.0152034041223743
Ni 6.632181881588638 3.822402018948238 12.063052780984767 0.2082447007761381 0.6961351797792206 -0.35822588992469273
Ni 8.607559542889081 7.278710738602122 0.3014753496687804 1.4487685517554856 -0.4264771088926074 -0.1506620172656631
Ni 1.047107740578384 5.291252550047213 4.900039292900976 0.8201009187006199 0.03156234818731339 0.62956391961689
Ni 2.2947853309158246 3.413925743517596 8.344403552121829 -0.06310669865249777 -0.7473970632779903 0.660491462433682
Ni 2.711526746378251 4.3413682308660615 6.209945389155136 1.6230618352868433 -1.031027022963663 0.3942046220121469
Ni 0.133221370000624 4.380588572774392 2.965239883611971 -1.1829108284515693 0.4550230388511003 0.3860817357946964
Ni 8.578829217417086 1.4873022953301094 2.742732936378121 1.1515796224384556 0.34940957718464344 0.3390647436152096
Ni 0.8939240807546099 3.030015045578528 1.4288698698573539 0.259478816360766 -1.063764108185368 -1.3876254045872618
Ni 1.7294001067394074 0.4644742080442032 4.189148990607732 -0.716360762797476 -0.2199265079894406 0.8725953890549101
Ni 6.071255603925475 5.165896393947802 0.6242359631880453 -0.40050099654381993 -0.3724649163422102 0.28925759028509535
Ni 6.551451965438368 7.184741888474356 12.858217172378508 0.7026169308488223 -2.159266170903965 -0.04643463731345551
Ni 4.345036518822326 8.7931896234027 6.404074129785975 2.366797390552846 -2.2270545913028483 -1.0602347548758708
Ni 3.013319278840242 7.366593356581899 4.882303718223207 -0.9941360634745846 1.821827907148585 -0.7545557858099586
Ni 8.541787783392552 6.554614599666325 3.784583716922941 -0.34940314942674017 -0.4785699729331048 -0.2553401116020441
Ni 5.799590839966436 7.283390334015 7.976572642742928 0.520712924849742 -0.31624260351437145 -0.4150449557962658
Ni 0.6994119626606724 7.653271439419583 5.559876956043503 -0.29073803148536376 0.21627682705199527 0.7922754118479194
Ni 1.5516490306832282 2.9811505080157583 4.15925014533814 -0.27875154854744894 -0.4485189191839953 0.4818141909020154
Ni 0.4293873555221797 8.183086222235632 2.3717127310292248 0.5334748525011006 0.8871311207772399 -0.622751781791063
Ni 4.3539268307363805 1.9243709906704818 11.364085793605005 -0.4159587258597869 -1.057961385460662 2.1189595008651185
Ni 8.730635660359034 4.957337215281493 13.156763407904766 -0.3349388943722941 -0.31641820986028735 1.1847982752822692
Ni 6.462953369280472 2.2429971954330243 10.073031387712549 -0.28465351585418075 -0.22248526985555228 -1.6308340230330944
Ni 7.130986300303235 6.886773936939198 5.764554552817244 0.3115878783511795 0.26814214846271883 0.3686722820689974
P 9.056258273980518 5.94551331225172 6.7636159955023 -1.4118899335615813 1.3299547893486707 -1.5761296895116792
Ni 4.747987378058195 6.598808735520367 10.379206558943341 0.0458733654933468 -0.8140719388977207 0.8841522406545742
P 4.792190707616388 3.7326163042091958 7.716685013801372 0.295653209398794 -1.951241556558433 -0.8240393345230776
Ni 5.371007933557472 2.123837595931414 0.17892878955792724 1.7860304378340013 -0.5354777418637424 -1.4053806716881538
P 3.802663136135958 4.763487963256845 0.5391399569364476 -0.11679287532204402 0.4290780368505642 0.6936728342816569
P 2.1564568582592987 2.142418072020663 10.434457043409424 1.1674613266657183 0.9170225090200335 0.3289117143416077
P 2.762073731800661 6.769361141226284 11.612898686526222 -0.2312697009164017 -0.17905985168206584 0.6802619601923897
Ni 8.09499214906038 9.21448192241989 6.77308918825953 0.34376703418688537 0.09102810765311418 -0.3455164127778243
Ni 2.7416361274729018 1.5340890557547446 2.316234242700198 -1.204668531843635 -0.05594026281104559 -0.6489937462067275
Ni 0.9787709376237144 1.3660833060986661 8.838127529922563 -0.6299516419736119 0.0842545363747065 -2.613746192767402
Ni 3.717308786797717 5.355452186133915 4.348413366357002 -0.9649015920894994 -2.254052717158247 -1.0899919315336455
Ni 3.776396723376441 2.4435762388962328 4.327596981418221 -0.42911403229482226 3.0104640681197057 0.8269968744895049
Ni 4.234675294193259 4.600796174600068 11.95860862434731 0.42008560354396685 0.2891724867704568 -0.18597920450971842
Ni 2.108566853336539 7.2851095566912445 9.596664203978564 -0.5034335689440039 -1.4767843202421211 -0.34126817902443163
Ni 4.331190800370862 6.09016705336416 2.3300799611516614 0.26584769600158725 -0.246250233485634 -2.071674599736226
Ni 2.4660364581372196 0.05630776044345066 7.296308407717625 -1.792707335633545 0.9845543333234203 0.06584775173274465
Ni 6.040484276131949 8.535333803078522 9.917480349069884 0.19519840911514125 0.6365269811982844 -0.015441531366050825
Ni 4.192880715122638 7.1837949369468 -0.1283073351318939 -0.3363452878015175 -0.9673009455596114 0.06884308691564273
Ni 6.522767608487127 4.941211458200572 7.324458610457689 -0.09141068780351352 1.1760164153245811 0.1780020998415128
Ni 1.5111875387145075 0.003819984074756515 10.588392748232751 -0.2765871939062785 0.055863129716207015 0.4409107678194342
Ni 0.4306790709554006 3.6885600739174187 6.6754796312879545 0.5447265141555199 -1.4399057020482169 0.39591877648977625
Ni 6.3282747971719076 4.718328488466945 9.605303527769294 -1.0289817103988599 0.4518724090372605 1.628515659312563
Ni 3.029187612204934 8.069378489295588 2.3084159166901546 -1.7545413660867848 0.5136750441663541 0.2831458209604027
Ni 7.00843422396989 7.376973048568422 2.0703808031452002 -0.6996038550541113 0.5582919115447804 0.1536974616578772
Ni 3.7603169348162746 8.763162985645408 11.432750811797867 -0.7993487737549331 -0.33252051473878863 -1.0705052835639435
Ni 1.745066178612777 6.152242943791973 0.663547322767471 0.40035547210489114 -0.10346633341646698 0.45395217438442464
Ni 5.296658448088024 7.809454085537426 3.742843380706811 0.6701942915437425 -1.7146851533217953 1.9359910581572657
Ni 0.5954651854177853 8.123786830461434 8.135365381469251 -0.7026778659937447 -0.7369455289273631 -0.5297230987681522
Ni 7.043278362702326 2.720711256825138 6.780637219367533 -0.47534735223074903 -0.05780174149981658 -1.069924471359809
Ni 3.8945358217172865 8.190183761840235 8.934620051839786 1.0772091779466804 0.7031923437363179 -1.635425756168835
Ni 6.07201868137001 5.395610285865652 3.725687009390558 1.2553264632098187 -0.18603551166895058 -0.18133244976632643
Ni 8.729679515127327 1.8532393016538966 5.1052418501817405 0.3832766622457335 0.75020367948885 0.4575681738704572
P 7.955854630438563 5.528836252718351 1.8053667647690237 -0.146966827802263 -0.7370879680424983 -1.0293550345778788
Ni 5.860462355150462 9.029329914522126 12.151324292650134 -0.1485071757061894 1.9794488722305847 0.5620997153266448
P 1.7368194259892955 1.7806825884939004 6.133448254396004 -0.010556949580239883 0.5513792435853472 -0.28537522451155367
Ni 0.342361590769279 7.094818268173048 11.281655042186793 -0.5882756023910642 -0.02540327056445302 0.12133267217392651
P 5.05583856155572 8.324991045806913 1.715736423630134 0.4328722137856739 0.9332921927143346 -1.5662895634928058
P 0.5295343748394425 0.8872301447622387 0.9604239816199018 0.7524369396947428 -0.709214638670998 0.07043305711058191
P 7.134268452685155 3.021685549617687 3.975308028906651 -0.47968248927099316 -0.22952854985557888 -0.023713798677172063
Ni 8.376963055372732 8.9945777128312 9.759912211736479 -0.5214798849227535 0.10177480464665697 -0.3787407220485929
Ni 7.657114407754716 0.21389704329640236 0.9415805655919333 -0.8524947616502931 -0.022568629329135326 -0.44535543385434917
Ni -0.06020037478100038 4.83124556285 10.847540283990151 0.882022853016397 -1.7524240626334657 -0.8084949590305753
Ni 4.761253893148143 6.267467637916939 6.050506333026996 0.6358780347603757 0.13264346920105544 0.8722680876224783
Ni 6.269021373918465 0.8712579225406395 2.8167404160531513 -0.3756947361334175 -0.4283738116946881 0.44012735268619047
Ni 2.7038591971162846 4.176240110609259 2.2959428182684403 0.08338987438156606 0.42174499352426076 0.6239691991379319
Ni 3.1446145678212236 2.604521223764313 0.30325065394034595 0.47897852122543316 0.15428598717149555 0.24302324190790403
Ni 3.706322310337226 0.332614425628348 0.2779753224883108 0.36341154789069025 -0.16296088923767418 0.4617397887496435
Ni 2.405799308539615 5.0882463686881305 10.265840831797716 -0.17982989707887095 -0.9515645086609613 1.1904135645865177
Ni 0.8933899265434345 5.365629616629115 8.365421279181518 1.2348954490489765 -0.43242072807055204 2.134008167668125
Ni 4.865547273037524 2.842297994222623 2.2023830879753965 -1.8337274867996483 0.8486342502536224 1.43995198190512
Ni 5.363607001715887 3.8696576582845763 5.3578894371043555 0.1183627909123252 -0.37578806717817215 0.32084667794528615
Ni 8.885255376771202 2.0084749962441824 10.711957970763539 -0.26073711424789936 0.9570036773986615 0.4363360039645582
Ni 4.473205948391954 1.7981322389725716 6.575663585320129 -0.8672742339523128 2.3034819183236523 0.06112669210799151
Ni 4.100934479908101 0.4824506577707288 3.8149404086592553 0.4427329086298375 -1.6451219004106763 0.5165544225966782
Ni 4.203471862304634 3.433287684459683 9.841495303631964 0.25218022581682376 1.94831229872678 -1.2535619151102282
Ni 8.688381396080862 -0.01786336716546789 12.212198565945405 -1.2925586080883997 0.17240789358318692 -0.263845577969894
Ni 6.15478959984181 0.7618500850320354 7.817725661162115 -1.0071671856269298 -1.205672804738433 1.0316623425548168
Ni 3.821160868887848 5.422189284566303 8.312781806694334 0.460899038015903 1.1049166711642777 0.9106950241401089
Ni 8.357766601105364 2.3617798530644425 13.341392294036337 0.10809689020994287 0.6380570446895657 -0.25664263246355157
Ni 1.84308945227115 4.057144867036706 12.750408120021767 -1.2697063860805744 1.1381512648476915 -1.2268664080969127
Ni 1.6288025959187435 8.342091335527844 12.911179343881395 0.7352195473751919 -0.6858872767989671 1.0020959417516098
Ni 7.007045974643083 3.0606944363305435 1.8041155016340675 1.7756802049479292 1.251185958678884 -0.05296318246059266
Ni 2.3894529025590683 6.639472488980411 7.122969390283528 -0.2831116252883576 1.6434311429718147 -1.022686878529084
Ni 8.296122814772652 8.894393918697332 4.300161129490692 -1.0027214911507505 -0.3185067169581998 -0.14741394264201063
P 6.886911842501463 1.6496631106374502 12.003780050952606 0.41486960656066607 -0.5617603297093551 0.4542951595461402
Ni 8.34728577837318 3.774272977717551 8.83585392688601 0.20410882423089366 0.01525486927654147 0.015868334490824285
P 8.002172511951494 1.780866462576921 8.329252327680917 0.8210699674821085 -2.0832862158332253 1.5431118398247616
Ni 1.3423727430931378 1.4496173020150025 12.46175155205078 1.3632917129379039 1.3754918545485215 0.37538337554058576
P 6.316892991432922 8.921313084451574 5.334274488621999 0.1161020199026065 0.4490089714465364 0.7052852217096047
P 7.476320215624544 6.024193032376307 11.23558171320428 -0.9654394668708406 0.08262548541171577 -0.017984609502878706
P 1.6536439845348498 6.494322287843815 3.2452038043081513 0.3699591192012209 0.06916370347985508 -0.7602062992275166
Ni 7.96378879712091 6.346763336219646 8.93799781874488 0.010456419446633605 0.9624639291822843 0.2861712380502878
