# total energy = -340865.27759517025 ev
CRYSTAL
PRIMVEC
9.31617011293233 0.00000000000000 0.00000000000000
0.00000000000000 9.31617011293233 0.00000000000000
0.00000000000000 0.00000000000000 13.63515665318572
PRIMCOORD
 96 1
Ni 6.793565468605572 2.4767783357800566 12.017100089980016 -0.36091269272823645 0.18952089911438974 2.100365025692383
Ni 6.696090381426451 2.831910737889212 2.799842617360877 -0.7699055287931514 -0.1739911789099068 0.6782804109859867
Ni 5.345730165767537 8.872766931552201 7.791618876529931 -0.6139488387874523 1.6248153276428405 2.744242533718467
Ni 5.409480717384351 3.2348537246684663 5.2832689720849295 5.596669632264677 2.0555198443532343 -0.31019151222428515
Ni 0.1302093138656618 4.56991678911376 11.038872423528073 -1.1804826786260507 1.5535507757698988 -0.2459851527497054
Ni 2.6421962510961676 0.8331013011104887 11.495841743631342 0.2147940718588817 -1.3080361348987086 0.08821583501529968
Ni 8.095248695780219 4.358020501443961 8.80262548728463 3.155948140728855 1.558416331392316 -0.40002611378993036
Ni 8.71074010213241 2.0008804213796902 5.799904634857355 0.5767866279148584 -0.3270754324638173 1.128027031929496
Ni 2.118674075426599 3.0846770635457075 11.188191065389704 1.5451813207592806 1.0365836911158341 -0.5210345698552189
Ni 0.7903335592856593 4.1562695229529885 3.5566491438891794 -1.8522764534464293 -0.3439169295011883 -1.4740440384928226
Ni 2.8410405845331517 5.048302120916097 3.4419363472760987 0.3372968530815094 0.2076083527437199 -0.4473331264060102
Ni 8.036323920246629 0.8414374100666081 2.5456835242826785 -0.32151105100216243 0.4738872227454548 0.9962070870710005
Ni 8.91015272194213 3.2959305354824124 1.4547488326283082 -1.6359867708786275 0.29651478606814097 0.7699291829422353
Ni 4.170383520570915 1.8479089092434804 4.284984523143459 -1.1758570069285812 -1.9629323626328 -1.2624684735712386
Ni 3.023646833581985 0.49993176988203486 1.376850745181406 -0.2165231387348465 -0.9610901887632093 0.12772443463288327
Ni 4.733257198509873 1.7277955288554072 10.687849384025697 0.40557506863261766 -0.17348621424903024 -0.7053723821067723
Ni 4.120691069551759 3.5076404997513144 8.747293958537334 0.644074197417923 -0.13957670598577898 -0.3536580680483522
Ni 0.6485218872461584 3.2375554139814686 12.903248594942806 -0.9170250801231948 -0.5992889227824325 0.3366869874116524
Ni 0.5705874667360815 1.1282720379600648 1.0274775993939687 -0.37262226785568087 0.3184408967172709 0.44346284481732656
Ni 3.95373598617825 3.530483748701253 12.84959397680358 -0.4100806698124551 -1.1490779390625243 1.22850034415591
Ni 7.157035842904856 6.628361825200493 0.48220309828671165 -0.11450896438387376 -0.6049677183347646 0.16220472779794
Ni 7.234006039815292 9.665433259817087 10.94394437723921 -0.6949910388724482 -0.09349713801889704 -0.48892869045960957
Ni 6.849024628882483 2.852387679647762 7.3419729976989085 0.02123885477411826 -0.35067790237410573 -0.6117513169155013
Ni 0.5470128984376235 9.191603535166674 10.715610639142305 -0.23613525653881914 -1.3904785577653407 0.39102596717384913
P 3.2363815765558193 6.515384631066764 5.378932995807333 -1.7948002136068315 0.6756907958819396 0.1324084703721139
P 2.2688786850594926 2.373080047010985 0.40099590723988365 1.6835552646862102 0.10185528017560525 -0.018270773284729824
P 9.548422164053944 6.134986775796014 1.7997312674736146 0.11900993757802085 -1.1424398649207166 0.6256087916238838
P 3.1126069413401263 0.04122405244840009 7.631569870010659 2.4136200073333396 0.09310941566217514 -0.9752903915229914
P 2.834742853582842 5.205549755102887 9.255571153545533 -0.5189612322659578 0.4671074808194601 0.5134621568245995
P 5.285445229407403 7.994298677174374 1.6435270443318464 0.6337093092438312 0.2080752650778094 -0.5240666718133232
P 6.1151526497705575 4.714475799699483 8.613110366530544 -3.2686030826231254 0.5785846003555455 0.3389189620659647
P 4.133743023784574 5.709377547297673 13.173756634832689 1.364333781049173 0.115511180396143 -0.7170845283373779
Ni 5.945458612403866 7.273245748044142 11.944546689287836 1.277505056189387 -0.37669952324884803 0.8827170508699442
Ni 4.549365317994851 9.021872233119804 5.693523289115371 -1.520616229825407 -0.058251941663357745 -0.8920123601289411
Ni 2.111323617261223 2.4138848718073675 2.6575735213721745 -0.14893552149285963 -0.4965306711765836 -0.40938467218669494
Ni 4.7737359573546865 6.0721492088435935 4.128766325746623 2.7686543869039286 -0.8725524516321166 -0.517693678407444
Ni 1.4031922159831804 2.0326671935726712 7.2041756633317275 0.737949030491213 0.7312348516958309 0.6297912051363476
Ni 1.3847461992944048 6.88841339583205 9.712881445472442 -0.7978428786333679 -0.7854398769833247 0.4037675831102336
Ni 7.356970168237086 0.21037588871848162 6.494875082713057 -1.0804747360718294 0.5164487502567493 -0.8485337201200159
Ni 2.0882847287403434 2.7221848871011316 4.994285103762128 -3.82592645960705 -1.5173511859208901 -0.9113740524850047
Ni 1.9444710117582071 7.393592032683336 6.975977941317474 -0.3354263755316739 -1.017817980472557 0.5595928897443911
Ni 6.996499600692239 5.210123994594902 2.754533424347816 -0.05767807143775873 0.5716413362684929 0.16780356204195618
Ni 7.1520237434207345 9.023101967565722 0.578748431695358 -0.736111720172158 0.9974540721042241 -0.24854597149834617
Ni 8.655290258025545 1.8887975795702663 8.588852922967801 0.35675856135054684 -0.9252564668940516 -1.2113657413581524
Ni 8.965341713287739 6.2269094256284125 4.008067889879735 -2.2225844713466367 -1.6889610090828138 -0.4817799952299703
Ni 7.793879910999813 8.376205751992387 8.524235967536816 0.8617443052730192 0.20689795694025656 0.5361477713475734
Ni 5.875373065156564 6.9031422606729365 9.149067765975962 1.004863734304734 -0.7481113157361955 1.5084806229041374
Ni 3.770291281825381 8.101229676949004 13.331910732364841 0.2836353590023115 -0.6421813512705844 0.07581926112315973
Ni 9.00187041603354 2.089887109988055 10.794925716053026 -1.9508011265869047 1.4728106803063539 2.837700590969313
Ni 1.1931498461523038 9.266039733824917 8.369190675948627 -0.5499407113666076 0.07764860102241465 1.6205205569222283
Ni 1.419653888452406 7.4083115813541776 3.8722614210511352 1.562236990689987 1.159734647445422 0.28351554559499564
Ni 5.218210430193819 0.6377579843763549 2.5318713705742044 1.2660885868223293 -0.45636181226718175 -0.46322382949433777
Ni -0.04927415498414303 5.878186548510104 13.205635637109113 1.5603690842433127 0.7754439421128775 0.4478843709237899
Ni 3.528257184060537 7.778815664037313 3.111134054856038 1.1978250265592405 1.0482292457745626 -0.43411585638478783
Ni 8.660870643882403 8.487040227015804 4.4824761486899325 -0.3253219401078204 0.9215355663990387 0.82249641551599
Ni 1.787139532041014 9.321666585162633 5.753436510290717 -0.35801223125198983 1.3142450919228978 -0.6453324953050564
P 6.906114118917238 6.323154778361615 4.839334837108395 1.0142392619823628 0.18462860401909495 -1.6499355197492358
P 1.3776565938902845 1.7074210649673507 9.798169118998908 1.6871833483571008 -1.2208430847209686 -2.0635226600530525
P 9.301003320003186 8.507228367502963 6.846935011941426 -1.7017807865553014 -0.8321568214238894 -1.9054710351915374
P 4.682046211773408 8.685474648970814 11.400585768156901 -1.0063909695825375 3.3130024346741074 -1.4328161421912873
P 6.3461936668824945 1.8462413148054544 0.7695529103836477 0.018141703906033275 -1.557710563574543 -0.035764816304435176
P 2.6426806919384993 0.45017690052357834 3.770052787872233 -0.06846436341998531 -0.9659544588340462 -0.9950148665351121
P 2.0928682844024027 7.4905547305099915 11.777107165071998 -0.7007708787790189 0.7754663107103806 -0.8890098258571916
P 6.331297110980802 1.1646330496450605 4.625304214881324 0.27041397521603106 -0.6470487066652147 -0.257729180659511
Ni 4.2740259123197175 6.915784303423778 7.543486413853738 -2.96384148316516 -0.49915859571773386 -0.06336483740989088
Ni 7.9980437775323985 3.8639187907759847 4.648156780001307 -0.33254236911565954 0.7687991831028501 0.10259935743048137
Ni 3.563574784700511 7.941075397708224 9.63844711004821 -0.2766123907172591 0.6397035791540532 0.1636337469349827
Ni 4.394670314400346 2.628259260709093 1.5923412112545028 -1.1593412686617453 -0.8619654201448896 -2.518420743290515
Ni 4.9361074850661355 5.913448252129809 1.50285287665482 -0.7252611506108994 -0.7268475212614127 0.6518450996125935
Ni 6.629815147727487 5.00777678122106 6.508592211487075 -0.1550948562260361 -2.078193888911982 -0.16729268384380866
Ni 1.029762855905967 3.730287647652854 9.04976205138303 1.2629222732792056 0.424096781585889 -1.1186363347432153
Ni 1.5877921254216094 4.447595476425061 1.1746712228683713 0.9732000846528659 0.9024893484008651 -0.00929813747247431
Ni 6.292448681893834 5.091501201414003 11.680475191281932 0.5099834542473798 -0.8118006263650407 -0.005141177881307275
Ni 6.1828253089762475 7.147151386487285 6.70034321305192 2.181230590990198 1.4952438124988894 -1.5007914817899959
Ni 8.551349748835309 6.30210955023033 6.618614316482581 1.1482672702357708 1.2306521003915902 0.25937031580735975
Ni 9.02752714833702 8.15517961767865 1.8931594103852587 0.5775078223515989 -0.08678475899572795 -0.23834331993373145
Ni 4.768500269789487 1.7660570392295494 7.104938888397128 -1.1593762356647386 -0.37882248312912176 -0.04958680978919202
Ni 2.963827705724092 5.1310949241045565 7.072718914297061 -0.20377792325403615 -1.4970857508036346 1.023950575732856
Ni 6.200814833332826 3.903745417717659 0.49629287386252185 0.5352486565720718 1.5843960432855295 -0.37051987680069737
Ni 4.1862396419872265 4.571062678029275 10.905438783209894 0.23006591041628766 0.44313940003963687 -1.9158580348528165
Ni 6.678808885993281 2.9545581165294803 9.810481369330164 -1.4725044619198446 -0.9780988075060638 0.42465933895757835
Ni 2.3408274663157624 5.370650920637474 12.09769707188891 -1.5462825242432594 0.17474734034964098 0.5687429316747753
Ni 8.346869132521197 7.929197280901058 12.28488035528077 -0.533337555592288 -0.1388673386235802 -0.06097371146989499
Ni 1.0951157887704928 8.741129448818665 13.209657427717469 1.1650786853661548 -1.2112371862000881 0.08432601304259026
Ni 1.2571053535101042 5.236172006040264 5.530542483882988 -0.34192201055834665 0.21412738480916027 0.0994448709618997
Ni 5.937679610416429 8.232531777560924 4.041801741612087 1.484959656964062 -0.6009709384705456 -0.31861573173223834
Ni 4.5212491167995355 1.0870107208314854 12.939859279985004 0.9207817189521497 0.3069678630806649 1.3166182201407646
Ni 2.2208351961382724 7.109616537376641 1.2023858971347545 -0.7433316349593649 -0.7669053085142469 0.3220725799325873
P 7.941634367910915 4.33162779170694 12.813202221757438 -0.13309161248206755 -0.9138888484870583 0.18655975960353677
P 8.132168677667904 6.528212997218504 9.519848538909427 0.659927876620728 -0.832697781529024 0.8634983118496484
P 4.65658511904087 3.800829687232354 3.160874949959427 0.7815783371453895 2.6986607313236104 1.764521617227948
P 8.94504177876004 0.8998069418655248 12.720237092497024 -1.4050999072229413 -0.25510562699373485 -1.1053537587016964
P 0.18382853055871642 1.9005359538267597 3.872234404158005 -0.6469857146377632 0.6084531057802037 -1.7931235972353572
P 8.979166909634275 4.086370299106583 6.7127644625727 0.3279017850198547 -0.5674203562086099 0.29955023046035506
P 3.5773627163668684 3.4897627694352735 5.860226835897669 0.23461290635702176 1.2237049796497956 4.107932510536054
P 6.581641232425639 1.0422092590858683 8.66754195325151 0.0679462861329862 0.39921775895602213 0.7626197937650157
