# total energy = -340887.0681719085 ev
CRYSTAL
PRIMVEC
9.11934775980201 0.00000000000000 0.00000000000000
0.00000000000000 9.11934775980201 0.00000000000000
0.00000000000000 0.00000000000000 13.34708724427332
PRIMCOORD
 96 1
Ni 6.4947083623564 2.396883798452582 11.470994235350172 1.201533071538447 -0.570115900762902 -0.4828043227294265
Ni 4.983878642033633 0.3067739505452661 5.9392133178967175 -0.6832313272333588 1.1081092099596466 -0.3079963043451792
Ni 3.565345841543226 2.059294659506414 4.724962117196127 -1.1632588585485966 -0.24517654080548099 0.45799420566428223
Ni 3.7589769549510432 4.566021003100858 4.834715292728824 0.9829206543747394 -0.27768479784583144 -0.047574664455169675
Ni 4.19217333700782 2.7343908632678846 2.0882586202889017 0.2855546875122114 1.191664149164167 1.4258505095067315
Ni 5.367857903614642 4.732193760060178 2.70285159864579 -0.029202075485252936 -0.28985511465977826 -1.9868248529796813
Ni 5.6853935965859685 2.996335011599545 13.609758539969434 -0.5733935430729091 1.133027827578197 -0.3158427969727915
Ni 5.518673678754211 8.091998619872195 12.336206043914048 1.7043809431823098 0.09425355656894735 0.939367452374137
Ni 2.053896005565029 6.8577313625230465 0.32041831883428684 -0.41052238533556396 -0.8950503756243167 -1.196058935797753
Ni 0.6467760689388845 9.32188859024184 0.06848539059866093 0.05494370322573119 -0.5364966700465599 0.31167915251340517
Ni 8.054454264675096 8.861115300214204 7.046301237860815 0.7149314865501171 0.6993688562251696 0.17109431697808597
Ni 8.562246912340875 2.4234028620700614 1.1461944194520053 2.6932220768065425 0.8745656254074036 -1.7794342726737225
Ni 7.479616171439954 0.633608642543672 4.724028295973834 -0.12417708360125712 0.8996912168304377 -0.9009649413365386
Ni 1.0174456422978468 7.621941833708865 2.433880992777243 -0.24654668168013022 -0.7566134396699356 0.23602701309572902
Ni 7.91211948305831 4.206955799911511 3.8107401973532213 0.030191435981715746 -0.343168481370938 -0.14175777279749782
Ni 8.121052862198635 4.135004145185958 12.31481022993216 0.07249662450782998 -0.27237546981777605 0.4658329849824106
Ni 8.256566371605697 7.333724844152322 9.106824273525852 0.9661380355997619 0.6746433284540317 -0.39452086770098505
Ni 7.039571159129832 0.9100990626690879 0.1134136817693054 -0.8177429599914047 -1.227240760717196 0.02850247831506704
Ni 1.9816434123596345 6.830428034988406 8.99251963146926 0.7473122168736678 0.39567555013071853 0.767177074118395
Ni 0.5301952376529524 4.960049786038972 1.2296829611729072 -1.3911802118180556 0.8679843726454599 0.23430694508082875
Ni 6.860868418191688 2.1505154962896476 6.914125409775623 -0.5532150112425054 -1.0460990868054372 0.03175081004903565
Ni 3.864351019634664 4.873242713626736 0.6550947380695119 -1.1248447775467723 -2.1635953944069386 -0.15185912289755785
Ni 6.0713791146992495 5.531422527082008 4.598058184116871 0.7305272841058451 1.7557639256399762 2.098770427511753
Ni 5.454017502327827 2.995459554203645 9.507397100498322 -0.5478252076855018 0.5367098144986305 -1.2326899567572254
P 0.43507587965360045 6.00650407392389 12.257284471608427 -0.2506715024817812 -0.8836994693878717 0.6644669021416622
P 4.167870274923714 6.384282178950604 12.618536494417949 -1.7477942771709385 0.8702986226009335 -1.824880835042296
P 2.462451909666363 8.819266612820597 1.2100800109830403 0.32609455660778675 0.14634410661659958 0.5868825786982795
P 6.565036773160389 8.015505529905408 5.545114315979974 0.733122555636847 -2.045844526046999 1.861136989160853
P 4.752931157125566 1.340981866170241 12.418437027563131 1.155223646948946 -0.06990906628631186 1.734031161948575
P 4.274201871134101 6.317911565123914 8.054380397957317 1.0083257247114055 2.4718799194164975 1.359237597473188
P 5.250601328651248 1.1284281059239543 3.787863401276603 -0.3181717022162843 -1.0218728672682207 -2.198387305275143
P 0.3412979777265083 5.704133856466959 3.5171573835076404 1.191063796576007 1.6006415586101144 0.05978869002285832
Ni 0.905138137425653 0.30733114270036516 4.0908555582585375 -0.8699913757731597 -0.26043449540581604 0.3288466654316272
Ni 2.1052196953996822 6.512463732667003 4.715112309557462 0.29147310987917546 1.539567059896297 -1.0581277358351973
Ni 6.2452121238726965 5.9856754833797625 9.161761048988167 0.6789036463922824 -0.9885814522049425 0.023645407333081857
Ni 8.944301991520478 2.4489643941607744 10.082496919017444 0.262092085613897 1.7765425529482244 -0.3889780835058849
Ni 2.7266758949665135 5.703139847548697 6.920425055286954 -1.8766682520272326 -1.4566420409662912 -0.30660430909365904
Ni 0.8742499942417591 9.160476132872727 8.795543541261274 -0.9452923024990043 -0.6208319390605308 0.15189151879739002
Ni 1.7586297601019143 1.4529218613231143 11.394368914839214 -2.036692941454718 -0.6991621395310024 0.18403133675472821
Ni 4.168563345362135 7.150453309929326 1.5266800588624996 0.764661763895709 0.5083186649504471 -0.06500622966805579
Ni 5.90564408643788 8.13271650812943 7.869843098249413 0.5234259529055308 -1.0882746917322226 -0.14346755639975292
Ni 6.038549462352989 2.7817841141688606 4.686389099558847 -0.31927033459710175 1.4573426665777418 0.09122016905926225
Ni 1.1485271486381647 7.8117610597053675 6.655605576570634 0.8034568823860356 0.05041444789680995 0.7427112277665466
Ni 5.487740850765735 4.767257652635559 7.175940975302259 -0.7500887511775405 -0.5455333263275315 0.26846842145388605
Ni 0.8253201332240205 7.813502855149294 11.131804650852123 0.45458492287241714 -0.7131129452841396 0.29053799965941574
Ni 4.654861690088987 0.4184613397620307 10.554542634952083 0.5014903291747042 0.36808864165138544 -1.5706691806177402
Ni 8.66820461528843 7.485306644513305 4.986965541288969 -0.41035989161577063 0.13896581187465742 -1.162863679992707
Ni 7.402065237119787 6.290973011504234 6.831199531818544 0.5098433291250897 -0.09969092553443476 0.006524688492395215
Ni 2.6765741977469713 5.362805784892466 2.6783196409300474 -0.8117985694825116 -0.1482922314819059 -1.3073547925609676
Ni 2.6355827290535156 5.48335444443836 11.2277037130947 -1.2455768400222225 1.2291732018532187 1.366955020722104
Ni 1.254621641803829 3.7500947101218047 3.736810556073806 0.2102131373564186 -1.484594046094527 0.15927778395913214
Ni 2.377368394002305 1.4088845304397557 2.5269101962438825 -1.56886940840484 0.6627506907815037 0.01968770823691448
Ni 1.4361422612350259 3.8263324583481206 8.032049850818348 -0.8837652896288006 -0.290614618533622 -0.0023720997766023665
Ni 3.803625282141957 3.158340226580465 7.476531096054193 -1.3014978195595586 0.5788070007789966 -0.869545803595309
Ni 4.258270370398291 7.086253100896639 5.8255762121045 0.9102641072502775 0.8702127477553463 0.075165943809877
Ni 8.190031609517275 7.353294964689844 0.3597664810408544 0.5014854440786976 -0.12485199818109466 -0.27568653646888003
P 0.36702092227459054 5.9374706105180035 7.88090760302489 -0.21435209922545664 -0.21413998321465053 -0.46468395897963194
P 8.885017110991855 1.7761115499762978 7.921296282823877 -0.49131107464885715 -0.3341883893595148 -0.2862026055088555
P 2.017710433201151 3.540203799454715 10.203541671087681 -1.9006057366794362 -0.28469593905634194 -0.37805192351168443
P 4.178986759982073 6.411877325617211 3.723303889937682 0.32587061352243873 0.1054674230068958 -0.2873400615474084
P 7.238883626263127 4.250135912094717 10.076410666246362 -1.4241607805091345 -0.5686552570569755 2.17423590483992
P 6.70047732778446 8.029914099546266 10.370179514788573 -1.4785897488819761 0.9190639649300945 -0.1720782781579101
P 2.4831437099923805 9.113848907193164 5.410481735577536 1.7237027834393734 -1.0204366490423264 0.611768543306682
P 7.322881939530183 4.398525940699813 1.3317239042085955 -0.3385788051177266 1.2945483848249189 -0.5875780621034074
Ni 2.8934870062770113 1.9061078539196143 0.16604873382823443 -0.2834091019241184 0.041167218266929095 0.45788493377992756
Ni 1.6270102122370327 1.4161982474346726 6.7400926868837345 -0.010494214663104507 0.8649872376903491 0.24209275967383465
Ni 6.679429872891358 0.9424390060345164 9.11515297393914 0.7273509432603925 -0.2147789023502301 0.07879762702519333
Ni 2.5915271594744094 1.5258401669233077 9.066169308768945 0.9614396016828279 2.0570594209262123 0.02697292904441806
Ni 6.778630139064307 2.6591836013513275 2.332723714550541 -1.9519925757918448 -1.896615898793753 2.094666946866341
Ni 4.526515988110859 7.019572429242235 10.271904862424831 -1.207632242457649 0.6882694038778985 0.46316392279067975
Ni 7.207668098490558 6.317765655557932 11.61061783484403 1.0404251763491112 -0.13544931408096675 -1.4398645643976362
Ni 7.965476787468856 3.8601834776562645 8.120181052541882 0.5275805985038526 0.8823380702639707 -0.6971106563186124
Ni 3.2842601820241213 8.74074902762579 12.525814612974663 -0.9407913293048572 -0.32996483819647043 -0.49639980202567413
Ni 0.07345908292911935 5.160274187959663 10.005763990201574 1.1184866965392284 -0.14910778540466577 0.7211113901085838
Ni 8.852233055384966 2.6495535699964243 5.531566612778417 0.22485222742583214 0.06620050708647308 0.04898517164945112
Ni 3.5916733988553515 2.8091512771386187 11.299577853363324 2.028372594514481 0.8222884132702419 0.37614750740011993
Ni 1.536099433281514 3.8109754765283697 12.626704694308657 -0.5250480618899861 -0.18118358289328795 -0.05394225854441032
Ni 3.754061626446978 8.715962640104365 8.277022892756566 -1.3017461881249388 -0.6088207735322676 -0.44305635340752736
Ni 5.743575036021841 8.017502667089806 3.559641689448063 -0.2540118797089238 0.5577478661158524 -0.3653930970970933
Ni 3.2338666656726116 8.478713685815391 3.4024396349923585 0.1945504911184972 0.07025873631624674 0.7678941547900775
Ni 3.6628499090116184 4.703942020346647 9.390850922734309 0.7576382813900242 -0.1527870340284659 -1.4024401010025913
Ni 5.099420779596721 4.655427089657173 11.465135054341154 0.962605339856155 0.09076611224097916 -0.2796370364761958
Ni 8.234689056056064 -0.061903957238023166 2.2807233691036397 -0.6736567961710463 0.16956091105269508 -0.4021755560327654
Ni 4.700121013587457 0.5482725209435056 1.3374052579340734 0.4842045455110629 -0.6222977249727799 0.12496589805113961
Ni 5.971841432654964 5.839154921088828 0.12874877715415847 2.1840495484962323 0.06076005279719213 2.1248221302934827
Ni 8.381756779219435 0.34553482674875063 10.75031770704507 -0.7640845512360003 -0.588090997184084 0.7326538435305446
Ni 0.48638862627080515 5.320519368800908 5.718519627738133 -1.0143942995029884 -1.7792648369753938 1.3273507760669205
Ni 7.6700737517876325 6.541755078038166 2.7392760979239656 -0.6028463011163876 -0.3206458747883897 -0.9486100540183277
P 8.826954223078346 1.8448623135980913 3.1724159400239245 -0.06809078213065048 0.7872409347478055 1.6664841681365363
P 2.0086640401101814 3.474362107804715 1.5732881339115277 1.660557518239456 -0.9404629994311609 -0.4107147038520282
P 4.900445728334762 1.4923265634865006 7.84616562342946 0.6233565052545974 -1.8173338759329734 0.992175083093472
P 8.72522789754431 1.8071538101392617 12.379210152683287 0.24427588336808256 0.7069731509349889 -1.2124247787502862
P 6.3255626979901685 8.040556378515179 1.3630716625253372 0.8109956139652421 -0.02098123023735741 -0.6511922965199429
P 2.2276378212597368 3.62122920531486 5.879258165299359 -1.3049518395464301 -0.8800618726352845 0.47718543388075235
P 7.0742793971381275 4.158787404441249 5.998474488120867 2.1001346548491315 0.38085802550191183 -0.692573173459575
P 2.5829914498643816 8.81849146825131 10.302042483278697 0.04207121813843722 -0.8409831614662678 -0.8684762246802139
