# total energy = -340861.9668050072 ev
CRYSTAL
PRIMVEC
9.30898372769782 0.00000000000000 0.00000000000000

0.00000000000000 9.30898372769782 0.00000000000000

0.00000000000000 0.00000000000000 13.62463865198464

PRIMCOORD
 96 1
Ni 4.100886641496288 5.083943259665158 7.270011958357943 -0.6425752442748933 -0.4896815094652341 -0.18798183676204402
Ni 1.0763326360287049 8.639276904487238 0.6787943438629711 -0.5059619917928125 -0.15669922459867852 0.8825458153994026
Ni 1.45040484178515 5.0662654993941185 11.585016398456787 -0.058524992819086304 1.7482979562802343 0.21726798732067099
Ni 3.172362050535293 8.176843824327044 2.763921076521511 -0.4130538935081661 -2.552388872705843 -1.3336669480929355
Ni 1.9545887143706278 2.0212689654614455 3.685247030295779 0.8422129201083108 -1.1369793560267774 -0.24922499984324173
Ni 6.043839126093983 1.608452769053041 1.7665165215934233 0.02921184567726582 1.1035046213080995 0.056509247940638156
Ni 5.73963084389423 -0.0006060148465743725 11.553420776478937 0.1025718466266556 -0.4934630879948534 -0.2903577653278096
Ni 4.226418288286694 8.340747102416675 6.940676867035708 0.5542689064283164 -0.21914000753240326 0.03651069333152422
Ni 8.598335993654148 3.952464203496568 11.710690472699614 -0.01625939928165587 -0.11479229995224746 0.10099576038878735
Ni 9.25159393310663 0.8212376215561674 7.968288143555949 -0.6853260049788584 0.32461617229004736 0.8874969887570909
Ni 5.826074067631398 5.002294162594439 3.8885533750917083 0.3506635041964025 1.0775359651584797 0.3884551211228794
Ni 7.417789283779052 3.835738855398318 5.031456416202174 1.1216558382958295 0.03772245425143826 0.7135832000523388
Ni 0.9523369715683263 7.647562931367303 2.8726872434550748 -1.9249198879447689 0.13807543884990411 -0.20476548397828606
Ni 5.812631894997705 8.354552325419284 1.0524094785139355 0.41486780678845325 -0.44217729323668364 0.43211399546341067
Ni 2.4877886895178922 3.350005388740804 1.892339539577343 0.5371052501648362 1.5051749555696723 -1.1211722137911917
Ni 3.6378019324688116 3.8947112678875446 4.004731354941439 -1.8988514729924908 0.03196935381774494 2.5632034468228437
Ni 3.4151589664854125 1.7414129849304876 5.641009607525901 1.5623876573352382 -0.589082928783708 -1.7773305960671586
Ni 1.3617460798992158 1.37501138184036 6.210532306633972 -0.3966399709265169 -1.4137097603791395 1.8030884217575525
Ni 3.884843745040097 6.153508264457925 10.341986858294565 0.03890233349215236 -0.9909478955545901 -1.0060168740725708
Ni 9.158606493745165 7.693372440737388 9.193565451576584 -2.522694173854888 1.520632427775323 -0.47507558662660115
Ni 8.08255312723101 0.9014112446916787 0.80270902016413 0.3080533828353598 -0.045123888921831966 -0.30963126884544095
Ni 5.377976822551458 3.1794648051886916 6.408839727119449 0.8589366606208948 0.1637101086988729 -0.5147819040772876
Ni 7.0710761814647265 1.3594374519122658 7.334252324789971 -0.9478369232977291 -0.7894168593532017 -0.12765861439195433
Ni 7.304983017868325 9.08502828564495 3.0278307677716416 -0.09875375843214605 -1.2958707031807684 -0.09268312675803392
P 5.504457985691336 2.6069623003603675 3.800469908405748 -0.25084479483485184 -0.006677926240807854 0.6257957108237093
P 3.007453402193281 0.7109531593618318 1.5910719653658059 -0.16507356470530282 -0.06241172946800219 -0.578088120335101
P 3.531921550518936 2.7901165569863395 7.384881095082814 1.2606229357220677 -0.41127726122371744 2.3435258216194157
P 6.6477873782606824 2.269856069346577 9.935686019660622 -2.8019185482736972 -0.5975488001628741 0.506534833577147
P 5.977829121838086 5.674775153631808 10.393297046202912 0.5699441510717281 -2.344358601933356 0.3336086055966448
P 8.85935059093677 6.640935966170379 7.201929774304081 0.7681916314258384 2.045846068708896 -0.8602525512188411
P 6.496451228325819 8.569012694626355 7.862602319367877 -0.2614117717174208 -0.20805135381840945 0.721357444681119
P 2.209031169077499 4.3362642973431855 9.456030388538107 1.9997706145070722 -0.21451330739366928 1.2573653480167184
Ni 8.714102516419109 2.9643714250819717 2.4153080106098628 -0.5713824261801514 -0.14375963371887499 -0.31789376596454927
Ni 8.278051096400109 2.8466407067313404 9.122499738208942 3.417752519899004 1.3174111483557054 -1.499313868803205
Ni 5.850631166944196 7.043856712779881 12.198588278094894 -0.7673799341578204 -0.11062762705159658 0.5671881855931458
Ni 2.835432690214051 0.5012831932276808 8.20492065042156 -0.2031395183390889 1.0003848725977738 -0.23740898104492017
Ni 4.7316820029950994 3.883661504095167 9.28249324309487 0.8751240690140346 -0.6423029644501133 -0.36667890578805235
Ni 1.903454466256449 6.075433817173452 6.631670734575979 -0.005853373456983468 2.0268859826666255 0.17306069667583743
Ni 4.516495533050197 2.9351877608114547 13.53038363345696 -1.2813005186760773 -0.9084720483468612 1.1295810066801772
Ni 8.575091461059735 0.1938065268093062 5.433982461897778 -0.012035076787663143 0.028558271253666945 1.5967687059182694
Ni 1.5526454110620522 2.621121264748073 8.410898673573353 -0.2632927907902175 -0.7592002265605053 -0.5130237837356003
Ni 7.657188420635475 5.134155918381321 8.163325318026041 -2.1683660763227044 -0.06518389289650064 0.7212944526536675
Ni 6.521753046344085 7.602917044974513 9.934950609938971 1.794410948588213 2.3629795594686533 0.779543823213864
Ni 3.494750778132277 8.102818785003551 0.3117290102265954 0.9760547804928417 -0.633197145494103 0.7232667458886898
Ni 6.955039698169035 7.693484148543209 5.983069148829434 0.15208255176227356 -0.9073533613613857 -0.7238856104196114
Ni 8.288933298483757 7.565932452264222 1.4149459915226854 -0.47544351148898123 -0.6731533741720666 -0.6515468516458844
Ni 6.288656091532683 4.273335566731162 12.27656218835413 1.2715673505487135 -0.6116142771170047 -0.8646247121446077
Ni 4.450178332328294 0.5735106677758512 3.1594309411132273 1.635743801629886 2.4703843087075774 0.7237688823360889
Ni 0.5992062558096338 5.537895855566838 8.956932944710973 0.18144120743004882 -0.6175427267862977 0.2439593805689282
Ni 9.33560751206721 4.64818041814453 6.675651028625757 -1.801921655142961 -0.5345904541627825 -0.8579912659884901
Ni 3.8946554139846348 6.321051355220531 5.3384331901895035 0.3890145931707752 0.19892445181647678 -1.2863360242174555
Ni 2.163389221416145 5.945471094085513 2.084092504556322 1.2040123863168748 -1.30150501864841 -1.2212174373412517
Ni 5.539999685909784 6.509912018927149 8.36040581444426 -1.0237235473237143 -0.8558168840449906 -2.3558462908579814
Ni 3.1942847074274994 1.6125487219331136 10.41429252830681 -0.24159190877801623 -1.0145421379347623 -0.058184578760532055
Ni 1.7356227969954758 7.693028008336109 10.35283182444294 0.9953498812770277 -0.6450049367623085 -0.09727023190808409
Ni 6.971963430750789 5.084874158046993 0.9399029618821605 -1.5748490230270427 0.8000928510098091 1.841556495925764
P 7.866044781583902 3.382279635639012 0.26117191910915427 0.38228627330800613 -2.459792135014028 -0.8452607057956991
P 6.3107370011498025 5.394304780168839 6.11977902338891 -1.2475283073216388 -0.07019060208247266 1.0160799147355275
P 3.1860369477644443 7.15923225822447 8.487877453462408 -0.8020301772418381 0.045785433765230824 -1.249378730266816
P 4.802756094448178 6.219797538228373 1.7478371146635288 -0.8346824160592207 -0.37224560124255246 -0.7846531194159713
P 1.8492947984013077 5.854252361649533 4.225423157916513 0.20872703972919537 -0.0033977128276393093 0.5205725426171357
P 8.429433791254064 2.6474843069216307 6.689043863645213 1.6558549705574643 1.0785093848153426 -0.5205720283965034
P 0.6240314538564008 6.5072775765065565 0.10356337587748929 0.30555812721733183 1.6423163126410816 0.5909390081558403
P 3.9290893451286992 0.6498508513749673 12.433436252762526 -0.1661598557909461 1.1429029206000638 0.14862184690718275
Ni 0.4683917607023163 4.495894751860195 0.6191824041854241 -0.2901081112108488 -0.8928384555746625 0.013767228987421451
Ni 7.4442267978231556 1.7664820783532953 4.041626581407074 0.20913404535962693 0.3059777312532537 0.062106539522757555
Ni 4.549309701009869 5.243043102104522 13.101588566324365 -2.725156206510978 1.8175696460928634 1.6021394833118794
Ni 7.668368510201309 0.31067709505512214 10.168640547019603 0.5040223515679384 0.24143327171296483 -2.625181431187537
Ni 5.426467319261227 7.316284124223799 3.484542546477078 0.5993262037782711 1.1550367277491205 0.42548183485887364
Ni 1.1653358303159178 8.420217897273902 7.260107199575221 0.5669873824362494 -1.7286894380206872 -1.0411965072974971
Ni 4.755931905841893 3.914343914760438 2.1887161736907212 1.1203967690777477 0.4032140245996088 -3.473583767936011
Ni 4.039577674068656 8.621766705924927 9.89028889827369 0.048910352547457694 -0.6422903660446229 0.8291684282195267
Ni 5.27948777375335 2.2809337600904094 11.525681866497026 -1.3260557114045808 0.05476038357033149 -1.2002290080150426
Ni 7.970836012427031 6.08929489407897 12.773848103930213 1.07369730813868 0.9630923067949025 -0.29671301812187606
Ni 5.577998957856275 0.761542831922637 5.506833638361778 0.43786323924236203 -0.46712882097569874 -0.4873947703135864
Ni 2.056298671569884 8.909218817251656 12.351375698607036 0.0645622001521017 1.4308132528286455 -2.140569108715094
Ni 3.489323640566181 3.8215891999944307 11.207791239881068 -0.7870709848288445 0.31895434601857975 1.7427731698072633
Ni 1.9830648958709505 3.8617853921220524 6.5288725571683575 2.3038210468306257 -0.7815924782127764 -2.049280805422058
Ni 0.47096662562647096 2.859812918834301 4.997476763468445 -2.7755588273332457 2.4382745726572264 -1.624020342545371
Ni 9.493580967464553 7.195732783776208 5.007299603193564 -0.797573169911749 -1.168192291294472 1.1917667361803024
Ni 1.0792835838991208 1.6758498118978713 1.54296313699259 -0.8429400280823224 -1.4801666064507928 -0.6659794821314466
Ni 8.939277526001097 5.2214090237106845 2.93425686242962 0.15569160926977058 1.1080701291915949 0.6982995344203909
Ni 0.6797969214202071 1.7868128990125645 12.764828629508616 0.36598599348608585 1.5245654442811423 0.7800223055121792
Ni 5.37386225170375 0.8539866266291112 8.675870519877158 -1.7303431715740263 0.9677398328692429 1.1062256197836884
Ni 8.999916246593807 9.262587842996098 11.940333794514409 1.103347526904945 -1.7828849502264843 0.11990159615435478
Ni 1.8667025981416163 9.051832449348728 4.580780582604554 0.3188594723119283 -0.26977068520507735 2.0017848167236236
Ni 7.437189206056486 1.6530893464620136 11.969735289006277 0.9756773425487647 1.9018452655134923 1.8792560673590666
Ni 1.0476795838358337 2.842684388608543 10.616549750626413 -0.12822708530091467 -1.038705365444527 0.8070433141857132
P 1.043285743473574 0.5390273990175495 9.796524158763393 0.43136066223715386 0.14153974324942076 0.971912476189694
P 3.9366854759244703 8.539605614744199 4.773514714477986 1.270319079963909 -0.30931785137008017 0.9698656209629943
P 2.265722880531231 3.7627378042948427 13.228379718625392 1.05574200921184 -1.2068567977442053 -0.2540139365914529
P 3.1173925010879557 6.956994584770887 12.044575795312257 -0.824144235532058 0.26887337020178853 1.5919216622386132
P 8.768224948338975 6.162407652988265 10.729812156744236 0.2471534620261937 -0.30323873505553584 0.2385793472039375
P 9.448339306107387 0.32208060023259694 3.544367661884065 -0.63816168858823 1.3669925588282585 -2.2538634839655765
P 7.224478925807262 8.646779945444823 13.06598728860948 0.18977106745198286 -0.2755741792607318 0.2349551201877889
P 7.629550047678803 6.882411006418294 3.6413886839340206 0.0896898484576649 0.030077793221986907 -0.22132981609487046
