# total energy = -340894.4735176423 ev
CRYSTAL
PRIMVEC
9.06172203675807 0.00000000000000 0.00000000000000
0.00000000000000 9.06172203675807 0.00000000000000
0.00000000000000 0.00000000000000 13.26274617370219
PRIMCOORD
 96 1
Ni 6.469906442344061 2.117053878807972 11.442898861468189 0.25833878921905185 -0.09383061009891583 0.0052036556881265225
Ni 4.579730898840015 0.21260159219287766 6.079841897603952 -0.22503400441933502 1.0414759862111291 -0.8477479909939271
Ni 2.8893119565038323 1.896074724567386 4.7694960452606585 -0.1888902075089263 -1.662730871741691 1.302970033229711
Ni 3.336082039400725 4.305604744696984 4.92506768964688 0.6987664467544804 0.7933586176097691 -0.6323245130811626
Ni 4.89276808752373 4.701565751983814 2.672576406705584 0.14793279125995815 -0.38322806839598517 -0.6966067200990003
Ni 7.0176875410828226 5.935056420989918 2.731701424653323 0.43310078485671216 0.6497581351765777 -1.745978049897806
Ni 5.178058283248997 4.621686671994035 11.43098813398792 -0.16583049747598536 -0.1692904310001278 0.2679218049217966
Ni 5.533123738863239 7.8213535474507845 12.579661990651841 -0.1881633566452308 0.5537603422230141 -0.33118559797744895
Ni 1.7418804619348174 6.628658751174571 0.5995008774162054 0.7976595589779681 -0.7358322412585263 -2.2860094725705014
Ni 2.811408331923896 1.5601476259512628 0.28055091508605556 0.2088998178616338 -0.33948409054081535 0.7930976506388986
Ni 0.49218290301813844 8.84982275477013 4.669799885290204 0.22246110148583623 0.7417275236970388 0.4537058627015735
Ni 8.577545191928053 2.3762553767124146 1.27725969274503 0.4466337863461405 0.318359135636742 0.7739740424355702
Ni 6.970104438527368 0.5911550313957191 4.997575058738001 -0.37351392643201475 0.06101999132679814 -1.2853201813584316
Ni 0.8524796907796401 7.3313952971992356 2.5328129364591447 -0.16935805101326962 0.5895516408900106 1.640250174140672
Ni 7.845666147747163 3.738966202344072 3.5045612006941997 -0.16612128924352682 -0.054843687312757156 1.2035583294985917
Ni 7.486097016267361 4.078237076401628 12.751334502800496 1.1056697472802184 -1.2232928318130416 0.49541558373553396
Ni 7.633005654360872 8.800381999191657 7.140476593559908 1.2150683870207202 -0.2057754133000392 0.029866705652445338
Ni 7.061047881156686 0.47097122401189034 0.2776783491919251 -0.9896852267920827 0.1617496425383924 0.22950361015491444
Ni 2.026527275393576 6.279583093844305 9.17491565848713 0.05092789719811875 1.0455056761958121 0.05338484337904354
Ni 0.12528102604454924 4.8398385689508086 1.4530000119279898 -0.5375251113110742 -0.7593928021872858 -0.14255147234338675
Ni 6.270104532565882 1.8172105574487185 6.9801303278184275 0.19507705304592857 1.1225809212132603 0.2126420585128854
Ni 3.4775264590899444 4.349653775647672 0.5166133057013427 0.055850531310716725 0.727191791974709 -0.9099689446073619
Ni 5.8496315670972745 5.654170222187513 4.713208252491003 -0.09992258192926662 -0.4428082419524632 1.2792305235209258
Ni 5.652502865327829 3.2173825420908977 9.034251453067577 -0.06091946119319185 -1.7660012870972681 1.0222623893971556
P 0.25622381603437516 5.493351840726524 12.622792162985291 0.11920482719764632 0.21401759870417336 -0.015483440347579789
P 3.9009535459512534 6.211221462597239 12.594595708612495 -0.06913027913875835 -0.12502786163732663 0.9028973824725611
P 2.312234310333765 8.65744239536196 1.3322561901206365 0.07794247811374964 0.5514072686098053 0.4113957890794528
P 6.400049626956516 7.554721437454269 5.830833930848743 -0.6069430968935805 0.8021453626634637 -0.26649561399823135
P 4.911045580925815 1.0204586450152096 12.658880471103192 -0.14909930076423353 -0.2165388224641303 0.09047892001786353
P 4.146798065534092 6.173089736154018 8.212716636962593 -1.6559467589403225 0.6094344958568666 0.3821942278148321
P 4.7871084082632835 1.0404034952769798 3.806328325647535 0.10176657711654086 -0.6663823739968201 0.05005140813043638
P 0.3845513930366741 5.432955463173276 3.532041779023979 -0.6889376335895167 0.7968640596598664 1.273702394613845
Ni 1.529799918760591 1.084824056832272 2.839235974208708 -0.8308262755379241 0.49501192053921206 -1.3927645255860401
Ni 1.8514638668487602 6.6138972059331245 5.018662592151978 0.7302190088368069 -0.7883909891918488 -1.7455589600825163
Ni 5.901319629747497 5.704290606920749 9.349175292284913 1.4134567638280688 -6.273491713537582e-05 0.2380841527350738
Ni 8.542367586877536 2.32176724194457 10.038161581250419 0.20421783900493215 0.7388311759858502 0.41503801381773037
Ni 2.450552435911076 5.2134986782393575 6.989016252473898 -0.6416321636353337 0.051423091666982404 0.8495346505807045
Ni 0.5229818839675727 9.017428366056684 8.78513655799202 0.053346791052256516 0.22942107774343715 0.548681642148526
Ni 1.4645102112930515 1.259035663503119 11.436545688129469 0.6587991623329235 -0.005856201670460882 -0.5622521817441091
Ni 3.8953443399939447 7.087462800971797 1.647259772492131 0.8175017905148759 -0.7560789073227043 -0.5896449719347652
Ni 5.535035762218638 7.9464596822595075 8.037754719704889 0.33927326008158987 -0.26075176953591866 0.65478541318784
Ni 5.449121575334566 2.9086043627770306 4.546256897537435 -0.09023286544532848 0.6355592179683763 0.6065600025225489
Ni 0.5854243983627597 7.3805823245599305 6.831268888620231 -0.5309243181651049 -0.25527403425079903 0.7967635295262601
Ni 5.122455556667343 4.590188126101298 7.107027965079106 -0.1722122326326131 -0.5322162975036512 -0.7814772927911509
Ni 8.191905486071553 7.122903195962158 9.353140701859902 0.42703349561670967 -0.08340298700768861 -0.3652758547929386
Ni 4.495737797033406 0.3664651019701283 10.541204051989457 0.08286099846128955 -0.35731623362622983 -0.4448234726102791
Ni 8.092697752920321 6.952597191500679 4.551097669463759 0.4186573557378726 0.3566516034590374 0.6465396282392801
Ni 7.091703686897516 6.11419760446331 7.288740865274121 1.1721697878849813 -0.27189955862262205 -0.9351230752754862
Ni 2.355286551857468 5.164655996317076 2.5142055963739476 0.12172219430286133 0.6022732022217369 0.8665851783050882
Ni 2.2347565866908137 5.388190556179571 11.500896601191227 1.8368215523439397 -0.7397341474160938 0.6016887904731767
Ni 1.1958029669439942 3.375690826540297 3.7748696513318776 -0.1507013551440308 -0.17495662814696966 0.11610870477082584
Ni 3.633587436467595 2.7313570792149098 2.787404736349883 -0.16757781918439527 -0.28244416690768775 -1.747907405710035
Ni 1.0478250456469889 3.3809556870591924 8.369256979437404 0.5502649274752459 0.4303684735272137 -0.5378305583666351
Ni 3.5617098570598884 2.6803577074415146 7.054508036343455 1.1004547787381822 0.13133837723638672 0.26252788759973494
Ni 4.196229759390501 6.940110138497173 6.120995708355351 -0.5532988292055633 -0.6666397414232648 -0.6153778579244951
Ni 0.7207104717376227 7.208083383359086 11.370775709392563 -0.026106724389380845 1.3699894366730536 -0.38063331108561543
P 0.193312810608505 5.558686856804381 8.085951300844043 0.03724654305628424 0.07325689971262221 -0.19179812518434064
P 8.507371216268286 1.7107443849246209 7.917328964341964 -0.6511457595527237 -0.38881276157261424 -0.3510856793354857
P 1.9408577550052182 3.2818023242403416 10.45596405722691 0.2200324374396856 -0.20344702227717865 0.06779921903216066
P 3.8355641595410153 6.282818128620976 3.739086723247517 0.20335446256337236 0.310217223255898 1.1952590656042767
P 7.137293210598999 4.170240740512375 10.508179512101227 -0.0605214544238248 -0.603399088296064 -0.5771188144432965
P 6.451212109727054 7.744655131905294 10.435791757741345 -0.86742850014199 0.6608899834236811 0.07931107632650213
P 2.329252224369024 8.52235930456132 5.963023613794508 0.7235392828237862 -0.26879983665137575 -0.8801017247342843
P 6.81200457368543 4.02622279175712 1.6624454063261493 -0.2706654291052048 -0.039656180939041386 -0.8878147771078259
Ni 5.312987324774559 2.9657113352212265 0.41988667205109803 0.21838513164424972 -0.6539858001046802 -0.31229261772768796
Ni 1.4616376453989208 1.1654461980312592 6.841746957842259 -0.3137409201384403 0.5662713302058313 0.35812690245298323
Ni 6.852718890916749 0.5579374768275359 9.259240419321264 -0.7419730640489415 0.6571860522095326 0.049119640344786365
Ni 2.708874946775359 1.5777183050323955 9.03886658811452 -1.4155442424847169 0.44155765737481373 1.7073454251272726
Ni 6.389927683411583 1.9438662467303012 2.402825251974812 0.18207678413151868 -0.29999040332156723 0.6312629045858676
Ni 4.245779255633736 6.866982041444702 10.554440509407616 -0.5651143337832526 0.7538585026326179 -0.6468124222846925
Ni 8.211034781347607 7.039290686482214 0.6770338775637442 -0.7751477510286973 -0.7142164627609635 -0.06501497141880416
Ni 7.691979341550151 3.8258228083227492 8.094943247647656 0.4839898583970956 0.24123349699733296 -0.5960364772834057
Ni 3.019356729837165 8.33908597582697 12.351118110832644 -0.26401347100632594 0.13222977870240452 0.11360445029173337
Ni 0.32336392714728224 4.8976886026042115 10.393801550043484 -1.8374926102690354 -1.0181817915698788 -1.038171090207612
Ni 8.738010166228566 2.3040787604766124 5.595858040708871 -0.3965193861882526 0.37672806249393825 0.32072892142049925
Ni 3.8776286733597964 2.642896548430993 11.528165135224723 -0.7726630369336307 0.28800443460428465 -0.49547497621855957
Ni 1.2438391556026243 3.3892652861914248 12.694012767543395 -1.1612809088866194 0.10369670425971819 -0.518195557744527
Ni 3.209335732898507 8.471097142848084 8.052092176353764 -1.3725443418844232 -0.9270809216973002 0.4704586566798801
Ni 5.688921926301048 7.978574425252563 3.6583957129608473 -0.6086497951720421 -0.195673806089663 -0.09728437297547117
Ni 3.201189244763418 8.53094981707752 3.6245094033043777 -0.38189572273780675 -0.4572622125942641 0.6312978715888611
Ni 3.6747548398020897 4.290063891358076 9.387411228531864 -1.2533971073975898 0.12408555232871535 0.07752184563656327
Ni 7.453411384784305 6.201307938659766 11.680792626112511 -0.6751547208728115 0.19074037334378763 -0.9845023970395624
Ni 0.4067498935756376 8.799792987257531 0.04443777882721279 1.7247232542840878 0.22578630920432727 0.43708959430113115
Ni 4.730871361137184 0.3078312293582316 1.61034956618307 -0.19836729376142612 0.35479912363133087 -0.46594019998423625
Ni 5.792415853988316 5.567195813822011 0.3205285143136121 -0.0032041087595944817 0.8265836982114861 1.2615022530032274
Ni 8.282051497159282 9.188133086288953 11.108703457938402 -0.49545415028295314 -1.3552007083996531 -0.1830700012827234
Ni -0.11249765472956542 4.871889879889418 5.717981056614289 0.1439285551965715 -0.2065863392371087 0.5471194398677287
Ni 7.923026069003289 8.640351987550194 2.5852014702248747 -0.09610320818317644 0.6501258029286416 0.3826444279783733
P 8.348745771546664 1.5608453785501528 3.462956116184038 1.158004809238509 -0.5404302007730112 0.5356435780176452
P 1.8502405343701873 3.297533473742583 1.486820171013396 0.03614739645483452 -1.5830991788509767 1.0209081893621064
P 4.61202687627434 1.0990509604719718 8.364362743350904 2.370993173801749 0.3276261627609648 -0.8075601059211318
P 8.657533012582595 1.566110239069048 12.588786238597583 -0.066920158861317 1.629005454464788 -0.9616465754873116
P 6.250485904298397 7.681141521962202 1.4495647130937157 -0.05974292438658743 -0.5287378520367475 0.08933092245634938
P 1.732882171925759 3.3341609543232624 6.1381577037714194 -0.6156074574367978 -0.3197732423754493 -1.1603020899131178
P 6.8094582297855855 3.92872772407589 5.865953540878057 1.1042944641992465 0.022035125423168503 0.4958333879992428
P 2.153491063225318 8.569552753068043 10.147870944101042 0.7500085327589083 -0.4528759106011104 0.5300521999727967
