# total energy = -381168.0632895712 ev
CRYSTAL
PRIMVEC
9.19710865432043 0.00000000000000 0.00000000000000
0.00000000000000 9.19710865432043 0.00000000000000
0.00000000000000 0.00000000000000 13.46089817358296
PRIMCOORD
 96 1
Ni 2.7869629542670733 7.8537970969247946 11.811129796621625 -1.5341533450798932 -0.12532482405245512 -0.3382173080132498
Ni 4.661857870769362 1.3283291615961637 3.1905826526740997 -0.3071604387074452 -0.8898189520220481 -1.198034057246253
Ni 2.2796412606819483 5.521152900833208 4.591943292529384 -1.3506927932269706 0.5158005751497892 -0.8092734890678127
Ni 1.3359995499584123 0.27975488259756437 8.71039921366434 -1.5301696778417968 1.5281400490062778 -1.8841229085330646
Ni 3.6645326386184345 8.936866970204314 1.499611508915512 -0.16090297826738093 -0.33720635025023216 0.6333861215764576
Ni 3.1160722793926166 8.435817704512537 8.350266202659256 2.001273938525476 0.7863179087129037 0.13405680460881428
Ni 7.673772898120654 0.08310047247853365 13.230137847975092 1.7937303775814204 -0.39699863981751626 -1.2297982370317273
Ni 7.0755285914070045 2.4343182288789467 9.092042421673774 -0.4785126373326081 0.6209934043390595 0.6128530346201122
Ni 1.473615882169834 3.359924410132016 2.5301907257203755 0.1369284697296545 -0.8387524723635361 -0.5024313529317347
Ni 6.835364501115161 7.0919638240249165 4.399344807191831 -1.0261486118254393 0.21343730072067113 0.3735321812644599
Ni 5.904267646178325 7.622112740529826 8.776922818056404 -1.2189957470995845 1.4172990203922946 0.7705781293801438
Ni 5.155282733640629 2.496693017695218 1.055617424571513 -2.1824534076537057 0.018734086074393544 0.8261862056627514
Ni 6.585377899107633 0.7804224682928969 4.418230149473655 0.9665499263261998 -1.3381026152667859 -0.2994494432164327
Ni 9.164780512176593 4.684878232964456 6.5215628431240615 0.6186382738433217 -1.1714061702460794 1.9569167525663393
Ni 2.9900994863497883 6.257767702642816 8.428191462270359 0.13419487284857534 -2.383496705585398 0.7724177536920439
Ni 5.270586880999754 5.622790145187176 9.711310398360162 0.6815755367974906 -1.4666778279357386 -0.5397858823207929
Ni 8.199939466710871 0.2377599661696708 9.333449961014269 -1.1413959970372343 -0.6469929137266147 -0.3731130914491703
Ni 1.4994689537361177 3.4617272024362475 5.302732614097754 0.05346171936356599 -1.279514373309932 -1.0234078158555084
Ni 0.3950820227275597 1.7322477660245008 0.1691633335559645 0.6442744863541873 -2.7799852385357156 -0.04677633692359041
Ni 3.39724627580828 3.4611201932852786 13.033716124697266 -2.4326320296594686 -0.2846931108428645 1.7444343595597698
Ni 5.395851496699786 4.29981370064956 12.646015701129825 2.5769570489635103 -0.23624247154064473 -1.335001350633643
Ni 7.426536231509184 2.868394151580441 6.974333727964576 0.04182567778653442 -0.8835819699734009 -1.3080433339875603
Ni 3.08442502956708 1.978399173850905 6.269467344172332 -0.12350396879363246 -0.21911481072142266 1.2949435633808086
Ni 4.613968527601223 5.05313964832752 1.08143278799357 -0.7353766417783464 0.9301680452630562 0.24409719169837313
P 2.8749884782659714 1.88264807883967 1.3708446343565552 0.822308724985216 1.1601190273680342 -0.007281107042445525
Ni 4.330394085906726 6.755036956803555 4.215805473577077 1.812860413542652 0.7092496056739914 0.9392137004050921
P 6.467139874185489 3.5257942591885545 10.837220402324755 -0.12203586888853821 1.433812958886918 -0.6400118544230914
Ni 4.8279208591012095 3.865222739880576 7.72934182675939 0.7086795921031344 -1.0012814162701145 0.24699996716746495
P 4.319109233963705 1.5498875016999627 8.053695327158172 1.196288792420372 -0.6872059956103906 0.19062441659121362
P 8.891497634723532 8.936673830929005 7.1480054840327405 -0.9980590526780747 -0.6135300060824789 0.2936258945561201
P 4.001192789697702 7.396847965761776 10.137361844028009 0.2986200053366019 -0.09423864417061188 -0.9707660212900765
Ni 1.5048032765779693 0.4362308051874355 2.0391782643687946 -1.508089815223622 0.12534230755395187 -0.10757881292294376
Ni 9.038053556249228 7.652803491087169 11.64078279522127 -1.8841784443613483 0.10837688334420689 0.40683310940943485
Ni 3.1526767706177354 1.0704790319510782 10.280410908140606 0.7015679207590175 -1.4866385873283816 0.14612761973041932
Ni 6.7403215834467245 0.5519598589522393 7.095615995749915 2.5638202544712363 0.6120485364409459 0.6779284269632067
Ni 5.513454921145916 0.20863364374232662 0.2837951722948495 0.15781199804688303 0.34665823969175136 0.08055523314624836
Ni 6.713530406828942 4.326145021849941 1.2881313601394733 1.515833463724783 1.5691941387341104 0.998313591891042
Ni 7.1805595687413915 4.850518154312294 7.961919222374952 -0.29584141415020015 1.219640579772435 1.5525056223348357
Ni 8.949126715632223 4.307566862986941 3.8123687976261755 -0.17666872574206993 0.29834335463644746 -0.2849795317350318
Ni 1.1167956695917063 8.789354549410422 13.112623635479938 -0.0930389674355559 0.6331434094380322 0.44921877346449735
Ni 7.8525922757312046 6.14181975769933 2.6012512636605165 1.1475373340482817 -0.9314777652134152 0.19598876622692055
Ni 7.288055371113049 7.0853786944477335 7.034396363742156 2.394440863301728 0.8498691511019879 -1.028669321364764
Ni 4.167522494171641 3.2680177064102534 10.881520114104662 -0.21865252637302343 0.17029341834334544 -2.417696748505875
Ni 7.896388905684476 6.912482254613308 9.619870907742479 0.14127414829285992 -0.4290870357116288 -0.18081282981743052
Ni 0.38362426514759657 4.677437772310908 8.942585732175111 3.5169896457254723 0.48573589455392463 -3.251556925774117
Ni 2.396085849476228 1.2977487763389977 4.124930685411962 0.19736250664599558 -0.18473941856534634 0.04106745946427121
Ni 4.802877133069551 4.609618295352609 5.350060933656664 -0.3015168672684227 -0.36027968712992786 -1.2098516187064712
Ni 0.1797584023728834 2.262801355296724 9.368946200683453 0.2738093740508252 1.2250944037981546 0.16074974051896831
Ni 7.08512117541399 2.520458345666501 0.06673145904072787 2.5082466309709903 -0.6415750851451532 0.11674916656830216
Ni 1.523620560258018 9.003334472235451 5.929848483337507 0.5196947679978727 0.29801579609369966 -0.2672065240223269
Ni 9.155675374912054 6.286848959239255 5.124900086212946 -0.7029699433128668 1.5674959250960812 -0.8288012746880952
Ni 4.929024671170992 8.673001931699622 6.841285599469616 -1.777303599483965 -0.16471515292461955 -1.2221196374405467
Ni 0.1205382217199834 3.6992977081739498 13.019312533313432 -0.8219809093321521 1.6936419594982508 -1.6872365701925394
Ni 1.2055661593667943 7.32492657848026 1.390470343860395 0.7040932582840326 0.011755854984347495 0.6025408540608267
Ni 6.584724904414924 6.968225928310657 0.9159455386443089 0.07621495389968165 0.2910727891169632 -0.6709342550335606
Ni 5.615368078750325 0.805731071044978 9.845462179856884 0.1518868908116997 0.28207238539056584 -2.1029561834583266
P 5.991860906084866 8.349208535199233 2.616906581490516 0.05693553684477936 -0.41613381798507043 -0.11932335505338158
Ni 2.897098326734611 5.776455431465892 2.4414303527644705 -1.119523108223543 0.18138412893986827 -0.8629568375238815
P 7.762387037053825 2.8041615468778702 4.754510459978149 1.4253828258416934 -1.24710716062382 1.1265139377190792
Ni 8.089243070634105 2.2255990520289837 11.477582866718162 0.8556397350371779 -0.8495649895980079 -0.6131577103447247
P 4.300016037033216 0.003310039294452356 4.827872114426964 -1.0500626994388755 -0.20824675765866718 0.6236367554991776
P 2.6736361852027724 5.759781074030933 0.09591296411816015 0.43932079762449494 0.3604180124800051 0.8095066881245414
P 2.3748957118423903 4.455833446665369 10.097611941747866 -0.824366121734877 1.00526379795663 -0.09835035234614029
Ni 0.7372733147673267 5.094453059026826 1.152975254411147 -0.33215207565577637 0.46120217107861866 0.5639308549981127
Ni 3.1706387232214186 1.0300485436531828 12.773920806636575 -0.3119378054914305 0.11944342557101364 0.09472329711651428
Ni 2.6682006941690926 2.77081283200795 8.766086785000766 -0.15947370202002215 0.6781659968953094 -0.42809047612631435
Ni 2.6682926652525727 8.053981357227796 3.5250456145690254 0.4351340132366571 0.965546681872666 0.24725579193201289
Ni 5.246564033994726 6.2209976634674335 6.909586085194516 -1.2202884977690789 -0.361273675612081 0.32828693627341526
Ni 1.1788853480491885 5.807182970456627 11.976834097727899 0.80263772891885 -0.9696984992575107 -0.6183647084669608
Ni 6.1740096369174 3.1234391631793805 3.5898732721817135 -0.6576244252985318 1.769347320751366 -3.522752002130546
Ni 4.4023430645132855 7.329414767354094 -0.024267490087085265 -0.34681456276395756 -1.2330694515838312 -0.03949471566051263
Ni 7.133433585566138 0.8871052462865882 1.9089306553658065 -1.6533298901427653 2.3273157875184567 0.6359551678552144
Ni 8.575043530684862 2.82896614809248 1.8789260090912265 -1.0226310855904839 1.0011487473469918 -0.1578827033838184
Ni 8.450588260519456 8.467317800604505 2.2843409830477865 0.9786284547572887 -1.3767961751822417 -0.276004324819615
Ni 3.664900522952355 5.5178327447195725 11.453365960726993 -0.5498921175168594 1.0363204101521186 0.8640349010794087
Ni 1.0382155758662246 7.38349376444045 9.603811836856 0.7359541115483712 -0.8495791306653949 0.8024317835556309
Ni 2.8855835470828906 7.256812794054824 6.170677524562913 1.9509759616018725 -0.6476768271675168 -0.35836807192951187
Ni 8.584139470841054 8.695608424019055 4.729836457702081 -0.2746092442443012 0.05270530081351568 1.480452770232644
Ni 5.3026571978093 2.342807000816149 5.437301024602641 -1.0152119103082775 -0.6435352941953175 2.713136813452598
Ni 6.234287485030322 6.361446705050045 11.868594249290888 1.2417572091658162 0.7426752323222887 0.05167634532836906
Ni 9.21007627079059 1.5856918444988042 5.908162621563711 -0.4393035712333144 0.03770548497057377 1.1958079961292116
Ni 1.7141018712538578 2.7747216030558586 11.3575789969932 -0.5720588834218857 0.08535162609362719 0.31172003305366963
Ni 5.6191940758231 1.9373524792936925 11.986713631515341 -1.1843727577090764 -1.7640511053494328 0.49958308484966224
Ni 2.971429356403308 4.813269865502813 6.543234909235336 -0.954385523049524 -0.35839609695396984 1.986126027140444
Ni 8.377526431802787 4.730854577596207 10.543261505594508 -3.1538897155379297 -0.0913230131857137 3.9317713205580223
Ni 0.8866380331825089 7.073753549495837 7.257213787978798 -0.9658996943367106 -0.6155179830467851 0.3926375346353432
Ni 0.808772554775668 0.5696808473172039 10.839926191600743 0.44248891093983145 -0.37134442958452174 2.073640465213345
Ni 7.045785143009508 4.642865842030702 5.568786564389272 -0.03332689628690389 1.985761958932806 -0.4480823458672089
P 4.792511991961333 4.951861091199125 3.2122685144478957 1.2209726683202973 0.014330557690059191 -0.41514702859176883
Ni 4.8609936607206885 8.856530228784358 11.565926610665903 0.7551126867546931 -1.0904241339750576 0.656062994348683
P 0.7160794982901497 7.550917924807805 3.6326655779033805 -0.40601344172161685 -0.8162203526992909 -1.073105697301268
Ni 3.4527968102303204 3.3019918246478386 3.3664221671798917 1.3875752680756168 0.5863161646718482 0.9688968292918216
P 8.341869242737515 5.676593229023092 12.806603650862096 -1.162380055488069 0.597948606704454 0.11609276393122586
P 7.11535207055393 8.739257900238757 11.087323807608303 -0.14303406840676014 -0.5714456753179191 0.2836674977918276
P 0.9668000295438501 2.7151243409606898 7.477098254363257 -0.3256728956893359 1.1030544211445585 -1.3592645940563817
Ni 0.08718214916338488 1.5172837526062324 3.660920014459332 -0.7865793899044067 0.12080970979092095 -1.063734026278381
