# total energy = -340858.2188790647 ev
CRYSTAL
PRIMVEC
9.35860280437603 0.00000000000000 0.00000000000000

0.00000000000000 9.35860280437603 0.00000000000000

0.00000000000000 0.00000000000000 13.69726118627504

PRIMCOORD
 96 1
Ni 0.15348482687588894 5.78808984881747 7.874335755300752 1.706793152168228 -1.7337557968000015 0.40909079509536
Ni 3.968917872995559 3.868088288060995 8.781957372515794 -1.9638944694357532 -1.4570523890308327 -0.7143799849220213
Ni 0.22920153746356162 6.166879291014101 10.202500604386595 -0.699183479687241 0.32853890438322125 1.0465701129045848
Ni 8.35680166935761 6.648772458588871 13.164012631148381 1.866099989593083 -0.06661111226133044 0.4274248175178574
Ni 6.566201507421463 8.886601523889874 0.894284672580715 0.41202802334681293 1.4416676790446463 1.1147611680585254
Ni 6.232239771910981 7.804672188906107 5.844716881722804 -0.5564893111184028 0.1232687128543748 1.3065603216841304
Ni 7.527236413392356 6.4002921996694715 1.547187586350891 -0.7611694344717342 1.4594977652475316 1.6105310498096843
Ni 6.77609624762124 2.887896322468694 2.6447626332423617 0.2506761304674715 -0.7314297413154565 -1.0944332551344507
Ni 5.343331616551809 4.653967586863213 12.726508251795545 0.42063350562763685 0.13521045859728326 0.5026622379956182
Ni 8.79125608010731 0.06302644539635385 0.9550809629659396 0.299034210055885 0.3378768939546955 -0.4110941986786339
Ni 9.041392811695488 2.788704492997611 11.175650221485927 0.04159839226707674 0.6489166131118888 1.643401318175144
Ni 3.314891926907568 1.9621620656878112 5.451290584983974 -0.18599411690805387 -0.8224347090401191 -0.4882139237807721
Ni 3.645419055246062 3.3592236276533476 3.5645747662672953 -0.4623398842274877 -1.4171231569360625 -1.032612879393544
Ni 8.82509678728416 7.794031457694802 8.439142398899866 -1.8596051258973587 1.2566276985197455 1.0541088444837912
Ni 5.150974897715256 0.6970614803669589 9.395868604211405 0.004855785430404541 0.19803742122583312 0.9744514405614637
Ni 1.4729036778286981 9.407173796210751 4.437981332199549 -1.1587494007140173 -1.2736340032697548 1.6847184317563761
Ni 8.066553966818109 1.0769692755800802 9.566906426214755 -0.6458271755532877 -0.6541143552627444 0.9592194541030576
Ni 5.752414855521521 0.8531592291022994 4.7130905590948915 -0.5245505534282773 0.4215953553202739 0.8301071379837124
Ni 3.3417417579060142 1.188308571288871 7.914797673851392 -1.7390394137964438 0.05001695534807515 0.21916109057832578
Ni 1.26075351439064 8.885319395327034 7.5933090839507855 1.9002990040722951 -1.502369367800077 0.13436173744374277
Ni 6.966132033000975 3.826161748195871 11.285611930884864 0.048076543792252686 -1.1050637382651032 -0.3217465640517362
Ni 7.77891731441753 -0.09105265274771264 12.490655555429719 -0.6007138281544171 -0.5634392600736748 -1.2504393103208464
Ni 5.373419524066626 6.024768909797156 1.4476363865381068 -0.6860572267179281 -1.9482248812192964 -1.2041885068834228
Ni 7.7614448032728465 3.953859881334179 4.317129952758859 0.626296818829844 0.6763338287825772 1.0816916391980662
P 2.567401616169354 5.355123455888876 6.810045514588813 0.34590387802423006 0.8648453127958461 0.977009431096627
P 7.224541769330396 0.6158503341643724 2.8070482900488676 1.8252510738975212 -0.26470458353607956 1.0608528480758441
P 0.6108041756163198 5.051333855317047 12.665912235506998 -0.3547495013403181 1.0516130746451307 -1.1575461244345353
P 3.8009028796476634 4.677925609643284 11.105862185676056 -0.2999790904676576 0.3707047391179938 0.4295657751202602
P 1.580911310994635 1.233248581206801 6.419467976496176 -0.6836329335471516 0.767593335720207 -0.3455747768195855
P 0.7835929921751981 7.854796864691286 0.8137202058211372 0.9671564495619474 -2.1566937821910988 0.3563155602758573
P 8.196816357082097 3.985173765795943 9.278072808535438 2.3645242782479534 0.7275682014775211 0.730051115800375
P 3.745836861664094 6.57865780754657 2.8290045077224315 -0.7369763821652985 0.24331737610955512 -0.866682880225217
Ni 0.0867467596691538 5.388692763588921 1.4424582716927112 2.782582052728614 3.118702369003519 -3.7604312061177176
Ni 0.505289674195934 8.511583598560575 12.41925128894246 1.5901758831921 -1.9592019490560901 1.702535919553771
Ni 0.4816283191198194 2.5947287359028723 4.585815434796295 0.2891457472975794 -0.14191846674507816 0.5210394549512252
Ni 3.090949924132443 4.202096816584718 13.298122342961152 2.9288883641287433 1.3148765548593098 -2.0473877021644027
Ni 4.59166736903238 6.153833398922139 7.659261964395314 -1.2569570568347062 1.593710892928552 0.021963905865600885
Ni 0.6753298691569579 2.620399382967612 9.176356963930065 0.21382245197423175 -0.8196391485728529 -1.7014411438276953
Ni 2.8930622711306464 6.2616912944457015 0.6856879705682792 -0.8682016308625886 0.5113373971721129 0.621092391810769
Ni 8.268044681839566 6.443762908971592 6.0143303244030575 -1.2430707857709171 -0.9442862298319931 -1.3615418201263325
Ni 1.7187822452118247 3.2889592389686704 6.994341668964244 0.43882174650088945 -0.014159836440149808 0.5733431494509481
Ni 1.9293040117890499 4.770079769922721 2.858960458939904 0.5546903102364512 0.16149278933257993 -0.41749110334391326
Ni 7.538476095173163 3.9953372082721765 0.655219167925671 -0.42501569385573257 1.0700807944320152 -0.5718861052894474
Ni 4.352040348218429 6.885283064720884 12.216052628937659 -0.36593071476811817 -1.0855272108940723 -0.43615962628769395
Ni 3.8217725635537407 8.702124748483328 3.6290751915807826 -1.4273741452401094 0.4098644400365909 0.9954594102716986
Ni 5.5510832367450895 8.84155856934281 12.17523508348638 -1.779297489985542 1.8019681921101804 -1.4916134148351539
Ni 1.7732867470364864 4.297676225433494 10.24025039988971 0.7646226831276572 0.598870090077459 1.036427625153944
Ni 6.45225116157375 7.872802816186934 9.265333878610347 -0.03307827061120755 -0.04824983614532336 0.3147066264858193
Ni 8.429443143114996 8.109771993848723 3.1242768440238926 0.7492518570985418 0.2241120068256979 -0.19765355552385314
Ni 8.032413784356509 0.21933850613234412 5.17396243340068 0.48097498283017165 -0.19375524891071147 -1.119775333443665
Ni 0.9192552961673498 4.858780605824875 5.4601803216397515 1.890990839297492 1.126437318844873 -0.5035662378671263
Ni 1.27246112630387 3.6115221964533215 0.2947201787452018 -3.2772772133583556 -2.5907397045699 2.0899212046512394
Ni 4.952104591435369 2.486066000551543 6.876531835384304 2.702680908226597 -0.3114045586957798 1.2848941495646067
Ni 5.300787408911887 1.1412909515829817 2.287059058672989 -2.258405337699988 -1.1915268522553544 0.6224157386078829
Ni 8.615248840097625 4.056317863129576 6.6120380714731155 -1.192643739468617 -1.048406137672059 1.4085456996796966
Ni 2.8992202316733366 7.750775996253596 6.5565499805101 1.1273014666173813 -0.7883711916975068 -0.8252572660905787
P 7.559439365105725 2.2716042622593138 6.448328035343514 -0.857369316133775 -0.21043090979417953 -0.9827892710031979
P 6.433814714356274 1.4516409326113853 11.500384374785021 1.2288394726628837 0.9978410231299975 -0.7919159716259716
P 7.210475789549753 6.37621251505497 3.906294783373354 0.215408565514429 -1.2429833682634335 0.3918983424764734
P 4.344600259112898 7.456822287065304 9.966004036158555 0.333317042498155 0.1333546363354671 0.3131187131734091
P 6.909250446103603 6.390606045928309 7.731254886989162 0.6891253241202906 2.3988665031732492 0.3213590988053304
P 9.818297210557828 7.775108363139606 5.8700159922624 1.1715059290487373 1.009872500373235 -0.6678450745852758
P 2.585772553168291 1.4624501186703625 3.4888571198193574 0.32058802496726074 0.8752845058512991 -2.447392218687779
P 2.7990176731162193 1.6136289858536697 10.018341085609832 0.25633358586356497 -0.7077910188505939 -0.054366747676338624
Ni 0.2659752307104408 1.1278145637691916 2.6960730439831018 -0.17855720101403444 1.2640337611758297 0.6627941424249295
Ni 1.8710467103023538 6.974910402285236 4.138819560637386 -1.102279747762063 1.1702440316171783 -0.035261651415771526
Ni 2.4686402824201004 8.476750879502989 9.288537598016953 1.042402097569824 3.7917816954045405 1.8188099462578675
Ni 4.501534666925012 8.057653935699419 1.326256246047778 -1.5167680597239104 1.5060730419039094 -0.5581957522865484
Ni -0.022960395737744565 5.680961924300489 3.643060687378649 -2.019371162346819 0.9799613146360993 0.7398081951871388
Ni 2.536911288740654 6.505323797193196 8.939326019490798 -0.40077944701618723 -4.631606574896649 -0.9249399640948974
Ni 2.0683447713372978 6.544190073992271 11.926054801088872 -0.46975340308273933 -0.7270339262406059 -0.3973362256625931
Ni 7.82404449638843 1.9321303097888864 13.411111560316867 0.7783256345360465 1.231699310709182 -0.8415521465958603
Ni 6.478689214055664 2.9583010901930975 8.924463622624769 -1.2260439121956175 -1.1146143580680157 -0.5045332297660859
Ni 2.717822436538135 9.007102891591511 11.51661593521852 1.836496050683721 -0.07354152083257656 1.430288490673427
Ni 0.6941331735982542 0.630548019623787 10.90297891058051 0.16589786037881107 1.2623718000923745 -2.466501171603088
Ni 2.4175610291647773 9.452937363161746 1.6951864003542496 -0.8340584093219764 -0.3369852353783615 0.10509512726914158
Ni 5.390573842721262 4.7359302288584715 3.573984841230327 2.5717284535747194 1.8244578885722644 -0.5459866118148662
Ni 5.430198166334863 5.156084694761318 9.728876698112007 1.444440870914409 1.7414930175432588 1.0542659388869455
Ni 2.118899942844307 2.3035732489064706 11.957216140327468 -0.37832291778488397 0.27226619793342144 0.21574203759444782
Ni 3.7149628315268073 5.9277857105511105 4.808094413880787 0.6676987788153984 -1.184178125199767 2.289262946510793
Ni 5.709384000543879 2.1902686466415022 0.3278318507757365 1.029298727418647 0.9522275961662569 -0.7820912722260659
Ni 5.949478951490254 8.038880578786598 3.5409751779686602 0.7745080605621694 0.18999321076511796 -1.5858029509353848
Ni 3.5557449246684683 2.2440618946648807 0.9185721181740119 -2.4447285558126866 0.024107691681481063 0.5635392759866488
Ni 7.152068750420682 6.224247525249192 11.35719307496218 -1.0516408425592727 0.7864546914010843 -1.072911579012591
Ni 6.889550587528584 0.6062577664496955 7.584680452308899 -3.6290259801991374 -0.7301153933794071 0.023550790736746537
Ni 8.982901545142582 0.6775160387356394 7.206621916979115 -0.7615823536394367 2.559103051501225 0.15110450411972043
Ni 6.116558084573303 4.655081260578381 7.147710449167292 0.47225045847298025 -3.1603845792336536 -1.0818219941283431
Ni 4.431738208372758 1.564973610684299 12.16734578145372 -1.1343048945184078 1.352935309404244 -0.9900742347003854
P 8.393524826150186 8.21587983067702 10.710504273350585 0.6483859374193994 -0.9373537643782178 -1.7810054738155845
P 4.741835507129653 3.9091538364824605 5.385749483055978 -0.12091383946895307 0.6481668794300579 0.29850764812845365
P 9.078471595388708 3.654468824007128 2.2089568402702224 -0.6796402674479908 -3.6445207334006264 2.808989339077549
P 0.5999687854699268 1.42691550441414 13.327640311574676 0.05396771246570706 -0.004641355426753297 -0.543365115031619
P 6.260324938459026 7.348337365164294 13.29980782729814 0.6735909759301174 -4.039686433774462 0.6634937395951154
P 3.713399944884513 0.2023030417313429 13.620981032289496 -0.2037709812755007 -0.27343322165832906 -0.3187717976941284
P 4.886444635253738 3.8054324433295204 1.6379454431151768 0.5227222419702868 0.045587715932127945 -0.6018250589407248
P 4.698027888132188 9.413911990117647 6.61770844881782 0.5651068775840848 -0.1997240648996367 -0.29918796202492987
