# total energy = -340863.6114014551 ev
CRYSTAL
PRIMVEC
9.32163011180631 0.00000000000000 0.00000000000000

0.00000000000000 9.32163011180631 0.00000000000000

0.00000000000000 0.00000000000000 13.64314791344088

PRIMCOORD
 96 1
Ni 1.4367055600638878 6.677363286146171 8.32488496811871 -0.6881171945707504 -0.3787648904183089 -2.146099808725336
Ni 6.949107446683539 7.345034363350121 1.5835053872932594 -1.1381687483491882 0.15550083341520315 0.38008489478131313
Ni 4.417595075190149 9.46042916739057 10.054863925588007 -0.0834099289862241 -0.21811028071630822 -0.26828073092311217
Ni 0.8234933102025355 1.6135089180809112 0.9755318935454499 0.3813431926684465 0.1627436310205455 0.46460271211973536
Ni 7.362009051753611 3.252736213594678 7.8352327894962075 0.2844730244122584 -0.08830942317037048 -1.098982822178346
Ni 5.013722641412887 2.204975669256013 12.871396323200452 -0.19054831193763958 0.9970313827445089 0.6882326371026921
Ni 4.450397891495411 9.271377187428358 7.542300563752286 1.2823266459477465 -0.40632403098350023 0.7406687434152212
Ni 0.10712883386991312 4.623043802489943 7.742991531051453 -1.2449893429498688 -0.5801696854544782 0.23515798022721437
Ni 7.54723916337676 4.922277450178269 2.1142790049180453 1.0252836927219826 0.3947237277404105 -0.6884174994199886
Ni 1.2263070471835043 3.436046069418201 12.740858079672282 -0.36465621893106875 -1.6046550506448816 -1.098364728978373
Ni 5.579396442114372 8.951813064502247 3.522933915699241 2.562228227393768 3.0840140735927144 1.5773895300607093
Ni 7.144293059248439 1.091227305472918 13.123084996587844 -0.24011712400470261 -0.86841606086624 0.4178073490327514
Ni 8.56572978921627 9.08922321373665 1.014761973801402 -1.4201223487737027 -0.2619344769901102 0.79005320738562
Ni 2.5416449834069508 1.6011204716842948 11.331766916602628 0.8467244348254191 0.5682855324223827 0.4064438443908161
Ni 5.900386774445062 3.4003349045232145 5.974321283545711 -0.6948614552731194 -2.130794288716517 1.2813030897792386
Ni 2.4212840956167994 8.784806739715354 6.653435593854617 -0.1936709167270213 0.76699144047015 0.7990654381865593
Ni 6.3777008434734626 7.7567894079184745 7.01866265396543 0.05410938024989391 -0.03402520790550914 0.1468066480753149
Ni 8.362909761603344 2.5928673407804705 2.4030360725422946 -0.33312446687137465 -0.25834393142537443 -0.5984977943397047
Ni 5.195028346765927 5.275101149284313 1.9329471990007387 0.2957457691126003 1.5101027318885927 0.4836851826724831
Ni 3.2029493872558303 5.630712015788844 9.693825073879 0.5571205169444986 0.30986369657122115 0.26756879245775206
Ni 1.1460105255428312 6.340143995819612 1.1325090765128394 -1.2823227892930045 -0.3699172102196919 -0.967679926165585
Ni 4.742127626957043 7.576210789712866 2.3033179345981227 -1.2642250512510291 -0.8194306321064726 -3.0584189987324293
Ni 8.26305646002279 2.716863664307778 12.00687012948154 0.7639151155376714 1.4452695374632916 -0.5042820329872283
Ni 3.8691849334251085 4.0356039955159995 11.355396316731133 0.13549610815850213 -0.3429846474949061 0.6996069403779047
P 4.680931125381582 4.274675842569439 0.2846741936425202 1.8519710063908685 -2.3246305273768098 -2.227781442166544
P 9.293590631945392 7.364097096894952 12.924740283583654 -0.23459310886267987 1.81141673911759 -0.22584441613577236
P 0.8763413598646704 3.2547496856952565 3.2122383916457684 1.2387500469083763 -1.7113380912264335 2.3444858715398396
P 0.8162196422391947 8.440987735281341 5.402386143909233 -2.209542293450698 1.6928911973751555 -1.6253508884313363
P 5.134969084062089 7.916608755901912 5.346845075312574 -1.009782768872906 -0.017934730101549758 0.09886328742681684
P 2.7109071426768994 6.032409021484398 11.755400514401387 -1.7987705111084893 0.9536707563706867 -1.5700986528262508
P 1.7766933745287423 4.934982831998124 6.6421116776148805 1.2503421226213498 0.32529365797304627 -0.9856447381741219
P 2.672408810383426 8.24127181049014 8.681407490046558 1.1337392518229248 2.574351493019863 2.2795724586959065
Ni 6.281799913053304 6.296062007099072 13.227427595222279 0.38287171349783095 -0.4807029601157076 0.37588602620861716
Ni 1.6240796466089495 7.931700475026157 2.7378382641851498 -1.0263219041785099 -0.4602920005595234 1.1942010566534078
Ni 7.896371496965077 4.521111777398144 9.910710509142682 0.0020525116536545297 -1.115786781109562 -0.6703156476129553
Ni 4.94492901130978 1.0657326471623492 5.473099097648957 -0.32171622503443303 0.39897761792075803 -0.9342087909913331
Ni 5.522842112326356 5.5769728182896 5.876758306479566 -0.23326744807272082 3.179284244351634 -0.3270198966355336
Ni 2.7403168856274824 8.332334814890851 11.543453678762178 -0.9110806896143019 0.05288065004911539 -0.25625876676157155
Ni 6.0574469199203 2.8410650636971817 1.6624036644196414 -0.823763969374504 0.031984780436712656 -0.7908535917997284
Ni 1.9847894447755938 6.786864474875331 5.483672622666023 0.4809955516554619 -0.7232088960675609 1.4590107983087839
Ni 6.012628522422231 4.0886161058678105 3.7130914409907505 -0.7660619866773453 -0.8231561605871759 0.49887448881841184
Ni 4.936297181841558 0.6895200459842582 1.0184580001341772 -0.6274738698570806 -0.859644485321197 0.5197695870998661
Ni 3.0595361082400707 8.675911456942385 4.4467661844102935 0.9035018488257794 1.0212573451714089 0.3370438565304389
Ni 0.5497254237714835 0.8146386937750367 3.821582165017583 -0.2666894751765923 0.11735980356910758 0.11285677349243144
Ni 7.363444582788284 2.030045958888139 4.657975679108966 -0.5305972738429895 1.067437443271897 1.3708764672636973
Ni 7.112907130717659 2.3149429394899363 9.881854471019759 -1.328227265134603 -1.7597097976616016 1.1001336479533377
Ni 2.721254152082651 1.82630308989578 4.767024768778504 -0.07868038472103868 0.8705310503267137 -0.426512075895601
Ni 3.1499093120137327 2.4669973696040133 0.869749103061294 0.053913719299320054 0.5096394406443997 -0.6047933975404294
Ni 2.8140882662014644 0.6922661982103252 2.603658059778757 -1.7554505081646155 -0.28939925806928224 -1.987826811881635
Ni 3.766078382941305 6.661945309968591 7.646056831853729 0.969045439054544 1.0163501376777786 -1.6356422430550153
Ni 1.3118796114581008 5.007616973700483 4.396053720202985 -0.047435567774144115 -0.43899169641985036 -1.0632874256592655
Ni 0.46874189799278915 0.8581362162886043 12.35863209491973 -0.20673854854425686 -0.6524837616378569 -0.4228045451370267
Ni 0.04489483486484886 2.231905858601254 9.051355023637617 -1.3012131984396043 -0.14565299408684593 -2.0582917506714162
Ni 3.721166769142285 6.541864071081298 4.043256121661208 0.9588834109198776 -2.01427523588115 1.1724585227699937
Ni 1.4317557744832985 1.6982425356469335 6.814875041148613 1.2293770903339087 0.30169067384212556 0.7881457059502619
Ni 3.2518972668861035 4.116767428755532 2.876834954861769 -0.35926410138121995 -0.6413804526358439 0.053015632965082896
P 7.657644550225162 0.6726684030980256 3.1895364937117434 0.4416466175441942 -2.01101970505833 -1.5287465722420253
P 8.744975414318256 1.4948911751185754 6.927799132448757 -1.6622287352942922 0.6929863497375935 -0.6713109216466889
P 5.9521218214738205 8.45479306945244 -0.02151898307493534 0.5831351958407053 -0.2784162766952173 0.31430681994423937
P 5.5069953411643935 7.572966862439711 9.704466646795762 0.21037383130399898 -0.6175825788852977 -0.6000283720516183
P 2.997864203529752 0.38121179139818534 13.29826266231625 0.15662389127605283 1.1291017530509135 0.1769374060224243
P 7.415822822293616 4.744812256424481 5.14847332958111 1.8790272391777123 -0.4400155096986745 0.8159066781136142
P 3.0446774298682073 6.164571092975164 2.1062428276129115 -0.29948723843290354 -0.2755595239727125 -0.3494113769568563
P 5.853275255943557 4.945991677140641 9.051683145016971 0.06654477779976926 -0.5359593094858511 0.4789373835748526
Ni 8.553462524010893 6.876883456705372 6.052359174214299 1.9614454936746284 -0.24426277074195993 0.9137065572729232
Ni 9.402448628197979 7.817566436139647 10.622486879142413 0.03942606720610629 0.7166888355608559 0.5891040118296306
Ni 1.0517035938689647 4.0795834463054925 1.381668791655383 -0.5719807218857826 -0.018790650343941832 -1.0806853094207387
Ni 1.3348014998623745 8.60478741931546 0.4457146751684388 0.3180009809663749 0.71471345700204 -0.34532615114388915
Ni 6.125821076669119 8.604880635616412 11.493097300824509 1.7990322494103081 1.0557839181933688 0.055210069513240395
Ni 7.413520379660084 5.6997386866443325 7.674134513863698 -0.9711054069073662 -0.4481006006996541 0.4850416967003775
Ni 7.932763140857019 9.054323030659951 5.415197792312174 0.652348007390941 0.5158715375970405 -1.160582340157698
Ni 3.4905216756949704 4.336301139129282 5.32242426878898 -0.2682460210304348 -0.08018859383544899 -0.13116534199363217
Ni 2.8010939138486552 4.9074467366966905 -0.21205030573326583 -1.0894306597135366 0.3409146523397548 1.9870377403214363
Ni 7.590193234855773 6.451453580787255 10.905377844947706 -1.3684765995729529 1.048861994262555 0.6418771897666042
Ni 4.609415579290656 6.786920404655903 11.69212342498866 1.3931895289386007 -0.17929767872448477 -0.7551060018864738
Ni 3.312282786643275 7.434475404114256 0.3438581552804115 1.1576050026969291 -0.055917379992910146 -1.1409290847031446
Ni 0.05727395963137004 3.2557098135950695 5.364063058261551 -0.8002514880748605 -0.04242320216121726 0.46399824576651705
Ni 4.312969099000816 4.418844173622916 7.602043823195893 -0.08318341479771481 0.3118035939064114 1.0479042583349758
Ni 7.390206982791809 6.695223529408712 4.177641401929696 -1.6803349579766995 0.1450017336560922 -1.2973269760113206
Ni 0.6502042067314295 5.539285467814416 9.999253876928643 0.2129853007849171 -1.0673569677429489 2.214749291572934
Ni 2.0269791425867947 3.7859334550442343 8.688898351991119 0.9532164424420874 -0.3997121820939374 0.1220248131449447
Ni 9.113245054492166 5.3872776458508165 12.553319932437544 -0.5633708687295846 -1.6951396270897001 0.09213111090930584
Ni 1.1450131111226372 0.41132531742096146 9.685938974818399 0.5903792789976284 -1.3488711666371995 0.4771970038449781
Ni 6.431309538151372 4.396229899011786 11.81459752632141 -0.6431763681940019 -0.5625116060530828 0.17426808672037727
Ni 3.023424113250987 1.5530022171325009 8.859914842044997 -1.8779718013300046 0.13480988072475494 -0.8906926128762532
Ni 7.335190721969514 8.923093122178713 8.862480154647217 -0.08316413152400516 0.40040432306495555 1.7994533961081265
Ni 6.699772484895204 0.957247516113574 6.986382781108512 -0.3095852460988539 0.6183125150727867 0.8083610045558723
Ni 5.0701278251193775 2.284489173968683 8.450429614404841 1.7225907813221168 0.303639055817748 -0.07115836531238068
P 8.745599963534639 7.448737498160022 8.202369851613541 -0.9401038163195293 -0.6881447053745762 0.4644353333039356
P 8.2105943258466 0.5629528168766743 10.815018623619189 -0.22476506702866453 0.057092631247933935 0.4764765807391859
P 8.690266767289105 6.798982593999185 2.4783464542450067 2.3873960406398047 0.21153622704321637 0.08527037923373057
P 3.5875878098770375 2.602039824794218 6.729128162391235 0.09187939990981596 -1.9110037920843086 -0.09589829126122193
P 4.504491310938274 1.6488192528818015 3.0953572683701824 1.6311291856760102 1.516497065450711 0.9576091721931442
P 0.9178636289610499 3.2926607552927276 10.524119445399045 0.8370686569032101 1.1398772463998625 2.4485579568611056
P 7.900948417341856 3.595660341539543 0.3901847925278941 0.34644920900473886 -0.48153754020186096 -0.5399092952725347
P 4.838103130417963 2.1535855225407787 10.827570198542473 0.33616531058022747 -0.17086137503167348 -2.274337178438896
