# total energy = -340854.4839661502 ev
CRYSTAL
PRIMVEC
9.46070666895575 0.00000000000000 0.00000000000000

0.00000000000000 9.46070666895575 0.00000000000000

0.00000000000000 0.00000000000000 13.84670051289832

PRIMCOORD
 96 1
Ni 5.04651133272219 3.777972453179215 10.053369058704504 0.035365266873171354 -0.8007294561525435 1.1221263501743448
Ni 5.311846317363741 1.7194645506893145 8.834762843906578 -1.4660872455395912 2.155973616195622 1.6513876788147301
Ni 4.264763664038031 5.0807496308544655 8.53291899148596 -1.1818736454363066 -0.11688594925648256 -1.4441968732244033
Ni 5.532375394308565 8.286964264850479 4.644279919792712 0.6583893284890145 1.570614930341037 1.5103408160413279
Ni 4.954874926060348 1.7395401706497142 1.0566417515387116 -0.644509999403761 3.064778365291554 0.8167093765205676
Ni 7.668905746286411 7.4388402768250526 8.618422021889401 -0.8434257094694894 -2.110435779664823 -1.7167554055872625
Ni 2.9364047350089066 1.7854151382218058 10.05213727467112 1.9420465203227264 0.5468993534371227 1.326704143621857
Ni 6.1137831344906415 9.14713173271077 9.714817663660725 -0.03506779023741058 -0.5752395951427125 0.8629164712042493
Ni 7.475453212379599 1.908101584803551 9.810664084875997 -0.16115031839149666 -1.9694439384990727 -0.7132965220498555
Ni 6.622438038906706 8.487758307281922 0.43489828765203487 -0.6333724947297028 -0.9377754252966687 0.20094533890124747
Ni 1.8832861507054697 2.7532738322881447 2.224499788660116 -0.22814529635480707 -0.060739226861585706 -0.2039699846601842
Ni 4.872207269503338 6.406033830153557 3.707773062195162 0.6982745947197264 -1.373087873092719 1.3795976491867787
Ni 0.2785288864307934 7.981742940080254 12.589683338746722 0.4289291699775258 -0.35923864745992323 1.2068539695307279
Ni 8.142082999971326 5.345725108635274 10.281549009288337 0.48205227505475046 -0.10407877018948528 -0.5077149699281772
Ni 3.5038295504494785 6.692721630181828 2.1464877459497202 -1.715654202103284 1.2637643095645268 -3.5658465193271756
Ni 8.118724514729937 2.707029897148449 3.153890302556341 -1.8895484504240103 2.3390847551289267 0.5675581673380548
Ni 2.6834821977698273 0.5368525412171825 8.026752252974505 0.9282001229034079 -1.022187570295162 -1.5281734733473746
Ni 2.2452717166455325 5.487872229231412 6.120102886674217 0.5699382375344572 -0.3313943715541454 -1.178393657307506
Ni 8.525695741797097 7.701535724252206 10.573243415387788 0.538152460482428 1.4860006966340666 1.6529275124980243
Ni 0.7963247258165749 8.984180517725887 6.51595305282552 0.3789317550134765 0.6938481835172567 0.8867390275451437
Ni 7.11187824768678 4.042209995824815 1.0082880787688704 0.5990423539892651 0.5092234361529037 -0.2137257784953674
Ni 4.709889921878184 0.5870132089975969 13.202565904586788 -0.6088184595394224 -2.005992427047068 -1.927477621369616
Ni 7.291187024835439 6.437623130364573 12.57909113134443 0.8103752067724237 0.9433284939044141 1.7171930073453137
Ni 5.020305174715449 0.15639778334182639 7.434280216117743 0.19713059314084758 -2.881005938625167 -2.274527182962515
P 0.5008356301949197 3.2427518838956657 0.4251755192103276 0.9637103999948758 0.4468086213611079 2.2621293235187943
P 0.6287689848021304 8.217125326797854 8.833600123033282 0.8092776028328708 -0.7560832781980785 -0.3224497607663479
P 6.7344528081485215 1.8381869610960326 7.375140391454947 -0.3017827193352996 -0.06021395048573501 -0.9378124491821914
P 0.49674292840657436 4.0200530203548555 3.9825186119519853 0.9015174714058991 0.45352665681123183 -0.12740510362025156
P 7.59130902860724 0.2291042616442146 11.488317041590294 0.08146823187882098 -0.3774631408877499 -0.12116837868192035
P 2.341269509170592 1.000081861637084 5.717580083973399 0.32370445910905543 1.2387973552065439 1.0411522843231231
P 6.419174751984375 7.469653799073415 2.7735216371134257 1.9766913640901054 1.2786332562565592 -0.8359962497746377
P 1.5180744837255875 6.223035377328857 11.815860904200557 -1.5141563331326762 3.0900286552179104 -1.5469628381397356
Ni 7.428868691792885 3.7915201854050835 8.58696233336239 -0.43163654160635984 0.9343556009818424 -1.4561769284044148
Ni 0.9845095381428249 1.4389072887073857 9.061668437276147 -2.0484318271582014 0.18889226439145532 0.24078612504726918
Ni 1.7078089598357744 5.590464134439035 8.660585554159672 -0.4430486400980434 -0.6864228375874629 0.2541113814012656
Ni 2.3800962501307614 7.92841293550119 10.066537416585222 -1.1072373488776546 0.3282445130712541 0.9684687406154676
Ni 3.603280500979036 5.979791143209236 11.64004880430796 1.1296092888149514 1.4102639679223843 -1.5061830851192124
Ni 0.8607048360100338 7.468092782441243 3.7270331692240877 -0.059411766299413804 0.44654456906644385 0.807600472240764
Ni 9.278976143534583 7.820163527590308 1.6857664589188395 -1.2661073558754066 2.7514089695599195 -0.7271354848154767
Ni 0.2843273536662924 2.3019602721604784 12.507849170464224 0.44843175878682767 -1.6944695976058688 -1.2583693638012006
Ni 6.583573455119089 4.225842316009245 11.77015244506923 0.10356249267469905 -0.8306509263023242 0.6189339507068695
Ni 5.752980156908283 6.0365648450859375 1.1999979504717673 0.27351498273885794 1.0979199281314704 -0.9045428884957842
Ni 6.582731452208404 5.89725593654829 6.903397380930255 1.352937109176457 0.4465702800980567 0.1345831094259295
Ni -0.1434697274153956 1.4492099984797113 1.8138625376840705 1.5897092279683267 -1.0724315540523788 -1.4859523598946343
Ni 7.35407234334476 1.2768643015812187 5.237057537481107 -0.022873047943431576 -1.4130600426102826 -0.03036472833478641
Ni 3.0052029953067514 8.473794303954142 5.034023199664826 -0.14976135982826466 -0.2006892570263834 0.48643677727569123
Ni 4.977126508598924 7.925745016166208 12.003538622639024 1.3485693191260646 -1.1665138751507846 0.4589460280545903
Ni 4.7293978994268855 4.14602233221759 2.0351607700967462 -0.6678985535310303 0.25978066387190096 -0.031598600741887514
Ni 2.2358204704907543 7.303996821926101 7.418647344099569 1.3114747282666124 2.3174046990523314 0.11640823828911565
Ni 4.372767093570511 0.9490791909459838 4.661187149025149 -0.8636224961323384 -0.4038889391794463 1.4977537234049367
Ni 1.684147731974813 4.453854812081626 12.681473008859724 4.074726713208047 -2.4696266046059465 2.3579445681479068
Ni 1.2774414046997788 3.380121347526676 6.274175228269452 0.24908538894158389 -0.5367252411175982 0.5461552761822465
Ni 2.565639633101242 4.333694374231938 10.536827262535965 -0.024464303689951415 -1.6167371786203963 -1.4160178396870258
Ni 4.6133717904757345 5.002291988850886 6.123578750375183 -0.806483070806869 0.10507275867163839 -0.4249629862409262
Ni 2.6545040526526247 7.141499720870574 13.586272307410487 -0.41438906737982184 -0.05934903138227844 0.16247289385766212
Ni 8.289793016202108 0.5778306469176894 13.593624222712668 1.1332623121865062 -1.0048804464752823 -0.5577517227705943
P 8.640331126839587 6.08152212409245 0.4988659110263263 -5.233982621244837 0.15616237825860202 -1.4203622326986507
P 2.7956388776145675 6.535011646798292 4.191451700496497 -1.0068969626846787 1.6366817400631235 2.467995239650111
P 1.2549911473171074 9.442636911534091 0.2778164952041119 -0.9082398777313971 -0.22269275788066809 0.027289946064204613
P 9.037870029165692 5.235876841264774 7.6952481384719595 -0.46893579227745047 0.35048661229890604 0.10284592622364867
P 3.69405598331647 1.7086888055739067 2.758637107008008 -1.1861563319720605 -0.1127809259491735 -0.0056980788260418
P 4.024102202891637 2.9762248501895483 12.020500723971256 -0.349004885547057 0.09147985047855213 0.13078661849797474
P 8.539546216642538 3.100112806542722 10.99166304382822 0.42174242242109955 2.856025871641062 0.435571614994708
P 4.134877619534578 8.365743570887354 0.7567392361661015 1.0935832484293295 0.24578075004838315 -0.23039141207650643
Ni 3.8573950872826814 3.4899317720697294 4.34023456088539 -1.4938546454608466 -0.14939600606904593 0.7525361842767685
Ni 7.724213038599556 7.191802299253913 4.689462363622532 -0.6784886703420508 0.2383713449581895 -1.8845826217783028
Ni 0.40395893800241417 3.7112839305115166 9.20758564955665 -0.31131199898197354 -0.5427287669992007 -0.19188991356719853
Ni 0.8908816526866064 6.000992587286171 1.2564745861530127 5.880208574898441 -2.039914276605493 1.201155119373738
Ni 7.7312801866252014 0.09073290915655673 3.0019787864083045 -0.039109050186319744 -0.6386489126372936 0.18457641062492083
Ni 5.386226394709953 9.444084399683922 2.3592287690060427 -0.7489844623697681 -1.0540697637157395 1.0752309711743868
Ni 9.053215295695273 4.634204266985066 12.704625250691528 -3.5647951952445247 0.3253779901567364 0.18695956614511672
Ni 4.024054899357329 2.498374007314983 6.760832097090832 -0.6438839357839878 -0.08426764900082907 0.043503579709589596
Ni 0.15833060575365943 2.049813512884054 4.5986556609524545 1.5774617780595412 -2.177666527788024 1.4013993184429026
Ni 8.082206186244008 4.804582136856338 4.9637651522982305 -0.9610158838818482 -1.0280211462578037 1.8337441989701968
Ni 6.237935990635941 3.1811153786920823 5.593527511320834 -0.2276123066694725 0.27052478976228245 1.6500044253139585
Ni 2.4080242567863226 4.915537306929649 3.139822231453083 -1.6440844602850977 -2.048518473334737 -0.7571415442592638
Ni 5.732232826760707 1.7483291673241774 11.303671479700983 -0.9942587050953778 -0.6278333100790284 -0.14092062160818314
Ni 8.788760156791854 1.9589339627711417 7.234208971690528 0.9901739935030431 0.07527521569423164 -0.18172094345399672
Ni 4.3679042902436285 7.1868732709789995 9.405399569326676 2.0243603880312944 0.5097762233325801 0.6468723289883506
Ni 0.15037888163645113 6.657594025604559 5.902267272972901 -0.024740440169473518 -0.7406736285112275 1.3943768643784824
Ni 5.6247213539850325 2.363407563226829 3.454613061213855 2.9708608519057864 0.09368637121156768 -1.5643877184844028
Ni 1.3171669128118042 0.3776619572098001 11.362948484613273 0.6142712551238776 0.019430855031102017 0.0728961739390938
Ni 7.778659406588294 8.471381823704423 6.511023078479918 -0.282682508170739 1.216019695190396 0.5720701962757954
Ni 2.293672692949682 8.985769916478642 2.5742261706488665 0.587643111013388 0.818625619706674 -1.1540836198072317
Ni 8.864530958046728 5.694844113243507 3.128191238437383 0.17322010507183713 0.24375677763981893 -2.0343696926381805
Ni 8.566007813734544 0.11485487344167977 8.769877531966706 -1.0734854492381898 0.11224536516067767 -0.1861157300875827
Ni 6.696468070099037 2.2175423848340663 13.328917429006731 0.146632841501612 0.6907266071691394 -0.3915458442330611
Ni 2.5802564252024753 1.7412714800053943 13.522923414264948 -0.6341445970090368 0.4291623690342545 -0.17624629349267065
P 5.743547832167229 4.670514459920039 4.242864965865393 1.5537569782434337 -1.4649256211313222 -0.4239456007200054
P 9.105211340606845 9.315049818798016 4.802188578020342 -1.3317777014900225 -1.0270667527643345 -1.061864834280126
P 2.7222994780231358 3.30825781820566 8.37946916440222 -0.4210549094357716 0.5781979064400881 0.312456654109378
P 7.018056417739898 1.811990263796152 1.5488643542067946 0.8035121611040031 -0.5857209542900106 0.5523657758683326
P 6.219260555291063 6.2669708999943134 10.81776295279236 -1.410654004271951 0.459697304398318 -1.630617021926282
P 3.885938039884249 9.426440181386964 11.11078658820587 -0.9099023530354846 0.925909012876386 -1.1115159216483503
P 4.13726171766371 4.950125651215804 13.305474743474273 0.8622883507019472 -0.7821473222749821 2.3015751882192426
P 4.629748274053234 6.967290264720339 7.279750922381091 0.04021848120041461 0.6133446295445502 -0.6897650145868185
