# total energy = -340891.410849585 ev
CRYSTAL
PRIMVEC
9.07893832342250 0.00000000000000 0.00000000000000

0.00000000000000 9.07893832342250 0.00000000000000

0.00000000000000 0.00000000000000 13.28794394947952

PRIMCOORD
 96 1
Ni 6.1506538664974375 2.188414528214255 11.46037288737422 0.5766706711622843 -0.17176691756507836 -1.240559075092657
Ni 4.374695505924532 0.5668907241637539 6.370493094639659 -0.021924053766600952 -1.681921071516897 -2.174478874088662
Ni 2.5251160345569152 1.4375863295803228 4.803910485801168 0.27179362917237704 -1.6807689601903244 0.08810733446189342
Ni 3.6114563986142687 4.333785809878044 4.761070607468955 -0.9529045676286234 1.3303682227370057 -0.561298045360956
Ni 5.235787410391705 4.731379755498065 2.548401695546713 -0.2957884494250777 -1.1651362780769676 -0.8626282505398692
Ni 7.304950083841066 6.103643123903406 2.5119134424595333 0.24465717796690123 -0.4120262235746001 -0.3591214051557686
Ni 5.028469853973255 4.557917560055504 11.491852290193123 0.20588211408123253 0.30764252055018626 -0.40123761759952836
Ni 5.886520314104971 7.713375202870644 12.3955126127369 -1.712133076323903 1.3049410409131528 -0.667114109956522
Ni 1.940051091674595 6.474635780261064 0.46983414989705097 -0.7814081301161123 -0.3896244588406322 -1.4184030520897506
Ni 2.5695029639779703 1.4405642213475771 0.36964261823024785 2.468199385241117 1.2451186694388812 0.20139888149889834
Ni 0.5895717278617862 8.677086347109999 4.564089422321905 0.0918958549700482 1.0803194414408879 0.17620129918734814
Ni 8.733784316885922 2.316963215813503 1.5234095334701239 -0.2585848437915869 0.43433182905033585 -0.4940282164697041
Ni 6.747939060351478 0.8276650693797445 5.067184262735224 -0.001954552623209537 0.40543648617222433 -0.4789834063214396
Ni 0.5991073367738203 7.289125494358371 2.4037760239796175 0.20443098345700272 -0.6454263405704432 0.6012059372994872
Ni 7.727665451778139 3.8137714600212638 4.052025498747394 0.10614028070420431 -0.3901785315718893 -0.7786503648653171
Ni 7.5755659981903 3.6047924578912056 12.770989356728238 0.8840496536384388 0.6984046925396875 -0.2190752157327388
Ni 7.97160744535849 8.917042686770154 6.886184961964763 -0.034397246532947214 -0.2615485544056012 0.2842539664229169
Ni 6.6326910173834115 0.8205780501312118 0.1083643919377858 0.4420379394453419 -0.08528092075669184 1.351661327787827
Ni 1.9326335990714039 6.412672026262555 9.414787308834562 -1.2807441319519748 1.472469494916851 -1.3090254953951714
Ni 0.2832528885896032 4.7692934019006685 1.6292617831762046 -0.5008827774976923 -0.31274796009755174 -0.7523235540453301
Ni 6.418954651576397 1.7609054808469682 7.352896864975355 0.5008030732996923 0.7354807714563785 -1.331948165629616
Ni 3.3528065249639405 4.376956161564916 0.290781144240235 -0.08154896451808537 -0.2673816161476105 0.4250460328730357
Ni 5.9323235579031355 5.588259032587173 4.735557882910537 0.15571757741169956 0.7589500582229123 -0.29261262280025735
Ni 5.368348988726095 3.1342583218500835 9.042911271778873 -0.49891485513804396 -0.5645659174789504 0.5069724353351979
P 0.014243038428257708 5.499757541894505 12.561518276141516 0.40257664812592603 -1.8381346147284083 1.4411768554511568
P 4.050404908258202 6.294482407280493 12.6533916845243 -0.14468240264346052 -1.5125643060552079 -1.1684427167423812
P 2.2557530136951236 8.402275963259328 1.422713212833018 1.1432032254493023 0.04316213720977082 0.5597913789084423
P 6.108963381755878 7.932785905124407 5.7999217688830855 0.4772114020226813 -0.6202750381157963 0.5422376862953951
P 4.590302133024394 0.9531886547325016 12.561571841877575 0.3434785564121891 0.2560877884013461 1.4093851648618567
P 3.7831118853321852 6.369556148205572 8.153641974357887 0.9249065397538008 0.12681349278283965 -0.4986898836114314
P 4.703117020524094 1.0773703730023314 4.047534147963063 0.31193446305732087 -0.4820908416021697 -0.7790198323895938
P 0.13578732511763816 5.482988742827071 3.7632389972549203 0.6020142921333954 0.5248043213102962 -0.6542855907332861
Ni 1.4763624751228321 1.1237819056675873 2.371977950425863 0.16253382900258462 -0.6324579533352334 2.6626159218849113
Ni 1.7910384771137884 6.492294315283349 4.86880855266302 0.25269367511813257 0.21974704498878284 -0.6432200769477439
Ni 5.865784018993968 5.486783739042657 9.024387513935187 -0.0846438013933252 1.563910264627352 0.31357199866074387
Ni 8.715762624331045 2.3848555165315752 10.184371686133039 0.3185519683738385 0.2790302561301324 0.7769817189136425
Ni 2.385273147694056 5.108936484257325 6.8276775597827 -0.45083162647757197 0.3816915771468007 0.3432469000173572
Ni 0.4334112651657377 9.030129942419297 8.968697306312206 1.2126032133096794 0.8279517822036063 0.1685358122222904
Ni 1.7101542156672382 1.191138549025086 11.549841284997413 -1.8826468382081707 -0.23067011965918982 -0.5335291027778036
Ni 4.250586419161221 7.0383198234120306 1.299191533378674 0.6465499126519252 0.6356494636893376 1.756509031336117
Ni 5.491205182001964 8.07897496986931 8.02837623085327 0.42022675710752144 -0.37986995055702966 0.615659650830972
Ni 5.481227428793999 2.9545770536618834 4.951845430384009 -0.46573014085595926 -0.4475889511705582 -0.5082836979474536
Ni 0.6410057292027893 7.318314281040451 6.991770290884389 0.38806765587647357 -0.1043865312378912 0.23961010246129702
Ni 4.823340321688672 4.796857058624401 6.780080317773532 1.6985118859960424 0.4984582272165996 1.29793735590181
Ni 8.467026951320479 7.173441662351194 9.482130333784589 -0.923525600245874 -1.3657021221516092 -0.372804559069816
Ni 4.656069962176803 0.14043301785332116 10.555770171033368 0.13212102103868212 0.0798713197053463 -1.0104435423853566
Ni 7.952859437738429 7.035060484557017 4.6905644804100515 0.44130954591974964 0.5603217974906157 0.37680699536098977
Ni 7.181049812658996 6.289906622369835 6.971785731865852 -0.25558770883647597 -0.19783070453166574 0.5169709413088064
Ni 2.4100768071700887 5.542310525775971 2.497349917508763 0.40905994185742456 -1.4130433304397343 1.298809216983802
Ni 2.408360887828591 5.159424460225925 11.374467065145753 0.662927068458368 -0.19609675255969455 1.5589176965087668
Ni 1.1683140981016795 3.390547671538563 3.84188983987603 -0.524514043763387 0.10990437573232685 -0.21410167377754738
Ni 3.5794894568078583 2.707784273450684 3.0815668875524804 0.7919889909557521 0.21925030785802244 -1.1503727466145477
Ni 1.096236406820485 3.465639570340271 8.130534260559058 0.30368353590243824 0.8274031087889879 0.8197075399169431
Ni 3.8968074298484217 2.764790927129311 7.028591741007722 -1.0798926383161145 0.09744763802621281 0.29117640457436306
Ni 4.055480034776175 6.832146213221244 5.878546282583082 -0.019848402184494848 1.6896762899822835 -0.22726932150775697
Ni 0.7862578475136062 7.1760836334008 11.671120466688002 0.555090116778031 1.4324361331440492 -1.0164252138900882
P 0.07549591155671657 5.513276081045242 8.163488082960287 0.6889710579306135 0.7746857237906142 0.17600743800898722
P 8.669115039269604 1.7045252739120622 8.065197680976603 -0.8543138171369029 -0.8160138931154397 0.6799063766251838
P 2.050950323189873 3.2966442125485904 10.314301280249968 -1.6507199633237442 -0.4386988477697799 0.21087571064108201
P 4.109063928710123 6.262188623694751 3.5451438331629714 0.005473621520061541 0.44312165942782394 1.194615261372691
P 6.926594408510105 3.9654351245699924 10.275779344980274 0.3059453353534215 0.5181621334034302 1.5245302201678326
P 6.4041105874317 7.612953066170645 10.170020608338834 -0.5283516723419224 0.7132710681285587 -0.6196461462825458
P 2.3196324236780543 8.51426466737238 5.995121666332773 -0.2545106737222133 0.007148952339955429 -0.5407667581768235
P 7.163336804006821 3.8529198420346797 1.6957277826850214 -1.2538735328133759 0.6315323561971704 -0.35881210144546594
Ni 5.322509429174672 3.040554599503036 0.3970428540643132 0.08924350494886565 -0.5110666600092295 0.6191586651231659
Ni 1.5983107745672211 1.3872890113163325 7.2194065112513615 0.8603170859081893 -1.5868781862774348 -1.130212726726905
Ni 7.02606325668705 0.6805399660945844 9.417550937657587 -0.5817164611163078 -0.5527470704671513 -0.14983386493741294
Ni 2.6739652282280555 1.3569471994682722 9.443435898686912 0.42818920648770775 1.3541365288011968 -0.801158316159846
Ni 6.523625731407722 1.8006893885424204 2.581209347041073 -0.3802481598320548 0.525801652226559 0.6379909673383205
Ni 4.039664524231794 6.810465708525503 10.49507020524828 0.8982398290958916 0.5953924159415036 -0.1743123096947514
Ni 8.073663790955154 7.364208314221764 0.19602154136717653 2.0599441986731746 -0.791594840841127 -0.2698151652897676
Ni 7.766114755541316 3.7651628242838266 8.26599111232204 -0.7244561382111008 0.28998084160436516 -1.0663604081576346
Ni 3.1022459853520994 8.341782997267817 12.586752277293671 0.31913920833587617 -0.07862279201022589 -0.7263266157609362
Ni 0.31979379951900877 4.8398095157917185 10.366429820372053 -1.2833954535318928 -0.7683119590537865 -0.21232709837562788
Ni 8.670159117175807 2.3204858438796454 6.037868939494175 -0.20804826849461588 0.88526758520594 -1.3069223330092397
Ni 3.681763696924077 2.5993454342187166 11.547807602814897 0.024083009091132715 0.7033268124316533 0.13966103816946915
Ni 1.1141400731772702 3.182294984473688 12.803439298052995 -0.5259047534633265 1.3691646267789128 -0.33161960019107406
Ni 3.0140350206855064 8.469850501136381 8.186197231367096 -0.32625370789347036 -0.7548100679126097 -0.13346287977855725
Ni 6.189838564264114 8.21436917695792 3.4565924083095734 -1.313933217109434 -0.3087421813722683 -0.19546837494707625
Ni 3.1368367403314865 8.306947110953931 3.565195576325038 0.10854374793937435 -0.20113380076296972 0.2884590056432
Ni 3.356429021351546 4.519286677526031 9.094840075258032 0.9566694339876944 -1.2699318718278192 0.011610330545418714
Ni 7.281508265112254 6.018791366413287 11.40364677288952 0.39083956219465593 -1.2349617835105375 -1.0321775916283384
Ni 0.6486374847502099 0.18322205413097198 0.23845195958139273 -1.7188140878885043 -0.86775657290537 -0.718252323393234
Ni 4.393888381522018 0.552579593698135 1.8233585896206437 0.5542629928910455 -0.3884245249952601 -0.3889395169584657
Ni 6.173178712456456 5.647898578377092 0.11808157961611587 -0.5687786700087173 -1.1425337101861033 2.156800482972292
Ni 8.008576882176355 8.760966658200433 11.409519938085364 0.032827073832349916 0.1403819754958937 0.05177456146913019
Ni -0.0064215330700578 5.0729475727774584 5.984703584616541 -0.15118677942088157 -1.2352050098695952 -0.26126624727849196
Ni 8.243485332133481 -0.02304325333679302 2.2578611431718203 -0.7527822388493036 0.2608610414202733 0.06701580389891684
P 8.605825760277135 1.5109078354106449 3.850660094288126 0.018008006541646405 0.14540205441830442 -0.4931622689249829
P 1.9953145891967807 3.170937232641874 1.701800684523791 -0.5561244715798164 0.9551013181696261 -0.9793144250807199
P 4.611483296112822 1.1869350005853336 8.374686885508314 0.08325514857591469 -0.8743614798163974 1.63051752023394
P 8.443921053309314 1.6110939197144591 12.265144505899364 0.49704977690484725 0.1813134236029329 0.6483859374193994
P 6.471857625136734 7.92792867312599 1.2953284451257268 -1.6003587372623729 0.210795749332766 1.1202641001546256
P 2.027036399668691 3.171890521164928 5.877656546628232 -0.8444598071609586 0.807404554179874 1.112375441435168
P 6.884804055447082 4.040200181592367 6.087526192606973 0.5939232875951449 0.3556607003006778 1.236804236035915
P 2.130436428135944 8.492438899663602 10.384435170837964 0.6628720468507164 -0.7441140216513442 -0.12271618278501445
