# total energy = -340884.56546338194 ev
CRYSTAL
PRIMVEC
9.11901711259080 0.00000000000000 0.00000000000000

0.00000000000000 9.11901711259080 0.00000000000000

0.00000000000000 0.00000000000000 13.34660330865413

PRIMCOORD
 96 1
Ni 6.147931926372786 2.443540951370802 11.39639774259635 0.08491248167367957 -0.7412564975978911 1.1320168698151793
Ni 4.451594120289441 0.9749779553655645 6.327518202285759 1.8193498779217379 -0.9941028962438042 -0.6155550069323076
Ni 2.781701463906893 2.0616365136227373 4.8406524269824285 -0.12075803061737911 0.2623108864929224 0.6661280918941689
Ni 3.3229607261451064 4.774835920787427 4.9822470536942065 0.27116190912564914 -0.9048449931172352 0.43365151515385963
Ni 3.5529970524734895 2.796483390687925 2.654358949080416 0.7511549876585257 0.8088880807039359 -0.5993210615719485
Ni 4.962359389217494 4.958456449882342 2.7424997211314595 0.10195349631636635 -0.8585594797871343 -0.3511391582812404
Ni 5.575266769110591 2.8956162259973612 0.6358508270128238 -0.8633659000368421 -0.16474112106654853 -1.2468451652116848
Ni 5.84929323411368 8.169964548564295 12.875762214401792 -0.397417986743122 0.2890801841669667 -0.2097148575637614
Ni 2.469940505985908 5.461388483088676 11.537084115201164 0.15163106604715176 0.49326819837522795 1.1932960283406353
Ni 0.6640377089870183 7.554193797289801 11.600761299975542 -0.022965350546921736 0.9856573365796121 -0.5288257837648634
Ni 0.747525958494149 0.10681834295351675 4.269484612334327 0.8670562044042358 1.169777890614037 4.111498630620758
Ni 9.048353874401982 2.7986081216811267 1.5556268121322587 -0.8978711329025634 -0.2284214328343292 -0.6306653802111848
Ni 1.5561237985662908 1.5200672048018247 2.717902084302863 0.45926047397121544 0.36295106331450394 -1.2360881838054971
Ni 2.0204550322265993 6.783016755946002 0.5911722025441838 1.2069534712230698 0.46791326455020704 0.7844659431058295
Ni 7.425424156281195 3.7859514642860987 4.390231342064739 0.11763516871768127 0.10867667397281283 0.524292157560568
Ni 7.498385412403981 4.055062779051694 12.744537733979582 0.7481519391661438 -0.017764008851640374 0.541323659121558
Ni 8.320492164464662 0.37740420279036013 6.800294557717759 -0.24580697530062828 -1.0079498294292255 -0.4754183146780006
Ni 7.4029640170697935 0.8290308217737199 0.775304308500552 -1.3073553067816 0.9002126365515465 -2.5158360132824735
Ni 1.8774962005509446 6.933754109240545 9.503876137506783 2.0402364358316025 -0.7595699511950983 0.3423436714767975
Ni 0.21387013274577157 5.153256893988697 1.8826320310031823 -0.21837459012128843 0.7205400909861461 -1.0313923767228819
Ni 6.741424918778644 2.0253793014812302 7.483733887568025 -0.8974433013365253 -0.09014261972436734 -0.03512024074190081
Ni 3.7130175652147273 4.484668795449714 0.5628658614454788 -0.48265699851828486 0.6823535526140958 -0.1267479296522269
Ni 5.562199217551543 5.7420171164998255 4.9943261037954745 1.3877189927423328 -0.46894633380041173 0.26176324151956853
Ni 5.745208772498197 3.202845032400658 9.273687523592193 0.6959078942597627 2.98171579234242 0.09545246197305497
P 0.3744441698272985 6.0319927424776365 12.966905878796446 -1.8840424330041168 -1.0761961633011337 -0.6945398102676426
P 4.019699230589731 6.571017845516989 13.07797641944151 1.1952963466001154 -0.45631450396901413 -1.0579804116240552
P 2.4295888551493467 8.741444233598523 1.5400642974841965 1.5487505261677779 0.40958830355706877 1.8261152216700292
P 6.435801059391672 8.473719009437934 6.037602761821061 0.03958547560210601 0.11579477307483284 -0.29875293137004033
P 4.772273476971591 1.091236304860552 12.694875566644912 1.5975390084253906 1.7644650529583998 0.0919706740720416
P 4.178205986486027 6.695574500607744 8.516427926204722 -0.24951219206635739 -0.025003978243505327 0.5876860484361813
P 5.011665914883773 2.006694435365046 3.876307245600012 0.05809587570146769 -1.1370287212074741 0.22133675807340591
P 0.07728367024629534 5.714678303119484 4.015726074822615 -0.32945267444674226 2.974519017483664 -0.6658948928374403
Ni 0.9283159446693647 7.592840191921518 2.8735901520017384 -0.23348933427553983 -1.6000183232038185 -1.7872080030818704
Ni 2.0244491617331333 7.032193899247479 5.060564820483975 0.8279708083669999 -0.4354507731461275 -1.5412133372504684
Ni 6.259466624990184 6.042561683340817 9.393259723915204 -2.426756801825614 -0.29084858892129906 0.15000227219447715
Ni 8.839273049457198 2.9225355645893454 10.833117877772796 -1.488758976105494 -0.6187238915785924 -1.411297294282905
Ni 2.522921995558885 5.721152805287611 7.205897497204594 0.7754997350514773 0.45993487433042085 0.22288687616934516
Ni 0.8242916685669943 8.899969227529096 8.892200736829057 -0.5630708209906625 1.585102839544567 0.8857758923009261
Ni 1.521808937075222 1.526733206329853 11.688114188945844 1.5527887007928936 -0.432470607471881 -1.3702015526838596
Ni 4.273080240791922 7.327987458159464 1.8907196873030572 0.18296869981816874 0.33797896675019856 -1.6464940981678546
Ni 5.739618814992477 8.818791736964785 8.161782054486183 1.0394738681794358 -0.7334249173686143 0.5769732900043676
Ni 6.87416133224237 1.1901411647415336 4.632112359753939 0.563207603678843 -0.7349405826821924 1.7711504353983756
Ni 0.9802852233400003 7.796650224960421 6.941248117524722 -0.21088239550930135 0.01293444867348095 -0.2403654925700828
Ni 4.949510694069762 4.968487368734369 7.3674454453164815 0.8775617319212499 -0.2220931766234562 -0.23041198090179674
Ni 8.220748355006965 7.066016333813085 9.460952923837247 2.2350427517146474 1.586798996300067 -0.6859106738377349
Ni 4.609252807591884 0.34451281987456517 10.44952277424731 0.45405578984182443 0.1499786180453933 -0.06621259127133111
Ni 8.262166930848695 7.547199511144797 4.850102464442751 -0.5733966283967028 -0.06320105813851697 0.5346668159266728
Ni 7.251351238129981 6.817678140088322 7.297655783354363 0.10077438840660063 -0.5604434106701445 -1.3828634644222442
Ni 2.4638854786061395 5.492593759735617 2.7680721808921307 -0.4017060725955146 -0.15717436446288416 -0.23072899792158327
Ni 3.693876748241633 4.658349595863985 9.423609636754582 -0.3888091620281885 0.023993020480487712 0.6554968374325678
Ni 0.9539130257763089 3.926311376077364 4.299554571347561 0.8659519155964636 -1.9165321781017057 -1.2046060540368158
Ni 0.92173201429558 0.34824705739266043 0.41404532555338547 -1.2368489732309214 0.20396124290943582 -0.5837843993889301
Ni 1.5804350982567479 3.8638917037663445 8.288333950526777 -1.9542592603388342 -0.24478496179401713 1.0395301753386679
Ni 5.367672343959334 3.113241570000646 5.648549014636642 0.19651712792656478 1.0550809785890733 -0.007756504016967288
Ni 4.375933635093746 7.182147017068137 6.428645366643321 0.14407536518708092 1.671955732774069 -0.8282078640784704
Ni 8.407660849288773 7.643532808192805 0.45080590744092125 -0.7772586267241129 -0.07448948656814268 0.9656904065393821
P 0.5705331310552824 5.951873057901359 8.254807884018163 -1.3452225141410186 -0.058377925718260754 -0.8725663355891875
P 9.072984339692276 1.925872586469127 8.290455945814838 -0.2567786438207836 1.671482392682076 -0.2422459974222473
P 1.7535505196084495 3.6850677776861263 10.582801769230757 1.934369720503759 -1.3261436431326965 -0.590504491721583
P 3.911109974507975 6.641507847995322 3.836788161028169 0.21467451556188188 0.0385205246727014 1.7965583339485192
P 7.178973599104041 4.460694899393371 10.606051615326328 -0.9349410411716673 -0.2755872918868544 -0.06977151226718306
P 6.792254320307004 8.340006861140422 10.377611116997132 -1.5445485722712884 -0.09033673801304443 1.0106736561182916
P 2.7469580086103282 9.013309491539857 5.656237257985864 -1.4052297479325864 -0.33333041223459364 0.7427973597224498
P 7.1198550109970515 4.105053231003339 1.5974147081680874 0.11082457355375107 1.4328835050941129 0.636622112015252
Ni 2.98838398734433 1.955126393448492 0.4089049355925788 -0.45446048147941087 -1.123310600290433 1.209451555054575
Ni 1.4986375145270405 1.38188673810659 7.065118110624971 1.5279027361844912 -0.24880925246206184 -2.0926326900451313
Ni 7.901300065638472 0.8751794318050388 9.506545273823138 -1.8384747716766467 -0.4424534297162057 1.3960287981596087
Ni 2.522675782096153 1.8263293953884712 9.150364671520238 0.39651475820256227 -0.6398064232805045 2.39342527755302
Ni 6.796157259642156 2.302715969705488 2.5806189288940273 -0.09618419793275694 -0.5854299054121531 0.36939836160174444
Ni 4.039031546922728 6.914011437136329 10.742067227352951 0.9874766491765381 1.0891103002596403 -0.3246745363318086
Ni 7.306183888182014 6.471401702299227 11.619820045794393 0.3513751855514464 0.2715192924650679 1.0818523331456467
Ni 7.993292710528693 4.227931986940664 8.466284274765156 0.07818287625932988 0.2000372252646813 -0.16660877040290661
Ni 3.3108780284369836 8.771482276051774 12.385768242711146 -1.1678567623319243 -1.2284877457504197 1.8012413412464852
Ni 0.1835320746286742 5.253319869046232 10.41874517950415 0.33938124641436385 -0.12592389108903473 0.3707872715294711
Ni 8.604950785073857 2.9514063728489055 6.379048856232047 1.106368830229772 0.2715149215896937 -0.6194281167344687
Ni 3.5781381827235235 2.9801768719199453 11.825197637879352 0.589444682998501 0.8202518424561873 -1.5097921426267094
Ni 0.9467363592885407 4.051934956173289 12.698331674140293 0.49812269825405187 -1.4712762459396986 1.3880727765373255
Ni 3.3141882316581524 8.79935911144327 8.054541501039168 -0.9729062075615307 -0.5105763506363722 0.47874403661712395
Ni 5.661751527649337 8.123001610302534 3.89050829098934 0.5235339392383047 -0.21654036512602706 0.7579756101247849
Ni 3.513730564676375 0.11722131770478209 3.5402131023474386 -0.5088285147073301 -0.019889282724759295 -0.11928324584406555
Ni 3.669200687865648 2.926146695376075 7.3029147205379665 -0.40103141512599316 1.1732216261882633 0.199336856763547
Ni 5.238109348459703 5.061674604869695 11.944275587473474 -0.09761373129043188 -0.697426130676502 -0.29055599738154475
Ni 8.385264543197337 0.2917793675677478 2.5637888708637546 0.11383533535561685 -1.0226560252911485 1.2509435036507748
Ni 5.11176536600986 0.6029266156353312 1.6396038409579972 -0.2406362297329662 -0.06720812241538103 0.07420666522040123
Ni 6.381314931990891 5.9942035354569105 0.7836007902928918 -0.5151783681847579 0.047639713365150216 -0.7621644513951519
Ni 8.165386801960915 9.349819461973933 11.962547362113297 -0.32243561969896084 -0.08855702040480232 -1.0685419891899854
Ni 9.4714671505976 5.479900087879234 6.136848672943011 -0.9299736698640629 -0.7645609766517865 0.4143877818282411
Ni 7.277823744882194 5.758559013588531 3.163998931293614 -0.9775642751588326 1.5155645263341124 -1.241112376492966
P 8.825731309006962 2.1258708703442597 3.831635916345083 -0.6037287037213409 -1.0697295817401835 0.3165053702574549
P 1.9260276097604767 3.6998770615185723 1.60247302697465 -0.1444746575080286 -0.08610033133419365 -0.4061517670716941
P 4.755184438854593 1.6046916838443757 8.656299970579095 -1.2623959684620902 -2.048116352800311 -0.8866117579386602
P 8.99321117776725 2.1023894012133795 12.78591253853905 -2.203094223832509 -0.8450323918349769 1.395031981463978
P 6.574008883138321 7.808012520314626 1.9439866021124594 0.9307601703211003 0.9649396444162867 -0.7084034556236123
P 1.826721513125414 3.590257356500199 6.189954181149067 0.5551916753529019 -0.28316510423411234 0.0037952053763741092
P 6.925683779073233 4.637713260080225 6.480002759263983 0.5315928049870393 -0.4242029681464501 -0.06547442755372594
P 2.213066912219785 8.773032508965269 10.58116034614588 0.6480249545355549 1.026354557188658 -1.1297255026778414
