# total energy = -340873.1102566393 ev
CRYSTAL
PRIMVEC
9.16329929497817 0.00000000000000 0.00000000000000
0.00000000000000 9.16329929497817 0.00000000000000
0.00000000000000 0.00000000000000 13.41141475869030
PRIMCOORD
 96 1
Ni 5.884689083228056 3.8231483521707226 4.108479744813686 -0.9951169393306152 0.7994531605432813 -0.8941546032829247
Ni 1.6160119598675344 3.6151964397587752 9.550845378917764 0.263307703188553 0.7946716799942378 -0.8834966093484462
Ni 1.9018794055146446 6.707828251817341 13.247808686572261 -0.7061534832471709 -1.7725542577244378 -0.9421532426493903
Ni 8.562388380179641 0.6288424046692866 4.612722355731147 -0.005825862653157709 -0.28550943609657276 -0.1338125498084921
Ni 4.160614335704133 3.081095218345398 0.4489943309533576 -0.8700854781488628 -0.04054166886778825 -0.7524852764341751
Ni 6.930249013691634 6.060633591477893 6.785625578492615 -1.149581103951188 0.6209067581625243 0.0953799568639067
Ni 6.283732437494183 8.567583970835214 8.062593634701715 -0.768482937414012 -0.1125382138107481 0.969601054447698
Ni 1.1669828083771552 4.573109413219609 4.965602841206012 1.5460704082324535 -1.2916726059390207 -0.5316064318337941
Ni 0.7605171817459238 2.381110791221547 3.4994942095458583 -0.4698181948824038 0.7207069555813137 0.35114044383282106
Ni 6.621968138161752 7.483254121387987 1.3572486369719572 -0.9015863769706215 0.04497142250436771 -0.019966672929914
Ni 3.386636267409643 7.792387183744974 4.481705503538231 -2.1375737735321962 0.21141435675337136 -0.17481830279689248
Ni 0.7831541961295703 3.544584055998906 7.184119134805773 -1.481990804143725 -0.5917992992736066 1.4466507340815344
Ni 6.213889770868472 5.185501863136013 0.4540002413151557 -1.576550064878549 0.39472578462293956 1.086924091241599
Ni 8.515747187169296 4.066415619761821 10.106949514409028 -0.6843309880554408 2.3037683392158197 3.609246997799997
Ni 7.712345765091657 4.049655945495431 2.36333307441224 0.20002488396950713 -1.2872618784658347 -0.7358260706109393
Ni 5.930239843631678 2.0349213468343357 7.791817226533728 0.9698928746565039 -1.4814488155973262 0.9792277789041844
Ni 5.158378497456125 4.17260909437811 8.086358651218873 -1.133886061813434 0.6109537607148704 0.6137313234600075
Ni 0.5684544301748292 7.84142916114996 9.389304660705836 0.9736703394210651 -2.229675059644831 -0.1234692589009551
Ni 2.9624946365904035 2.101730961419491 11.410659743050621 -1.3008560722105016 0.5380974388747766 1.0282250347384936
Ni 0.7795090357013746 2.0849529605546686 1.15564047660737 -0.63102764864661 0.48182910330035084 -0.9865235412346494
Ni 2.799846075503241 6.6015156543112425 2.3174524352368358 -0.10323750523511253 0.423439093397232 -0.2171486881339873
Ni 6.316326292806129 5.018839776992164 9.915313772581408 -0.4110551179105824 -0.53270583554556 0.09694267336533627
Ni 6.73180860586608 3.571130133828174 6.158548025252364 2.226377876950798 -1.1848427553669596 0.21440352128868234
Ni 3.98952637603887 0.8507894239741031 9.648989811502561 2.3246647230488544 1.6641403504947085 -0.26976014368211604
P 5.681795311983438 8.486177220598687 12.821352406371016 -0.5880984533832517 0.29381615619005524 -0.4692111574260242
P 6.435659938498417 1.748733185714659 4.176957996186108 0.4996602179445008 0.31292716598789333 1.2517228050189604
P 0.9163143440091499 0.620492806423505 8.23134953471646 -2.686336148319987 -2.4222180334149965 -0.7205192650505396
P 5.13846664825937 6.576774746427561 8.637983766053269 0.840805498237823 -0.0372668547712584 0.17369318805351375
P 0.7623883274458674 3.0284154111515895 11.56951744725205 -0.05846020101942189 0.1513605859945845 0.678113032170187
P 4.966654787956029 4.602010458947435 5.988679700712775 -1.4577298747138312 1.5036058113103394 -0.7579833234342688
P 0.8099925832038345 7.1963603862286645 2.157815850602031 -1.1985557340776778 0.12019187370126398 -0.49540298533004357
P 3.888638451668748 5.103169619678652 13.063120558210347 -0.7394397561041265 0.9518175052120318 0.14877816997938892
Ni 7.695027129573081 2.3284034941300904 11.557716034191534 0.29512330503725304 -0.39907326295835793 -1.1304934911921176
Ni 8.233600041003953 8.810218970780397 10.832278710834904 -0.7023042847044098 0.7497809901291346 -0.7498049013885345
Ni 8.668261139323365 3.7667665720935783 13.365950187036525 0.31235972352019753 0.3129140533617708 -0.7084826456009798
Ni 1.8378004540959108 0.361885259614603 10.209681094581445 -1.1799242350194195 0.6394382413078085 1.148873536361202
Ni 8.774427124042004 9.26125488479912 1.7994227243187133 0.17074053318309304 -0.41856171070027265 0.41252578891883784
Ni 7.720693530677595 4.106944892194977 8.07851303442998 -0.13011916011730493 -0.011356048442767538 -0.6708704916751608
Ni 5.038659993196757 0.8290760701514472 0.7162245423246834 -1.065712233050674 -0.35266459378683135 0.20302587557936
Ni 2.9888574484353483 8.341122194006587 8.551493217411606 0.21230832932255045 -1.3742263575725364 -1.4960305700662428
Ni 1.80598547921734 1.981343536317342 5.5985678141926565 0.02327645402943733 -0.25616903526124274 0.9271336293121065
Ni 7.678963866047121 0.4030513813432835 13.011660386142212 -1.162280296685411 -0.42497764152894546 1.0233006008536827
Ni 4.841658223348143 3.778312329105963 11.45069236466626 -0.023182351653734272 1.3601649943834637 0.4614122302068957
Ni 5.351705784319052 1.5394342683179334 11.77689848612283 0.09466801839854665 -0.4099132909966553 0.07318825125821589
Ni 6.473330261576126 0.3774876091899896 5.919127510672219 -0.4792310035558714 0.2565544436251195 -0.48930381441084125
Ni 4.08725296217941 7.337291928173485 0.413352762322111 1.275760048473822 -0.42688231475082605 0.28705595464808625
Ni 1.8567501568749674 4.252091551779239 0.5186033334490551 0.6227191287809146 0.10016426562642748 0.38205024603780013
Ni 4.398777645631819 4.719438138402758 2.2367558406895625 1.3487683225107479 -0.2722289169375828 -1.9969277457416383
Ni 0.9990470236422578 7.2654791522162965 4.683547328032832 -1.0047110107769537 -0.6700438820088074 -1.6305100640347725
Ni 3.19411535087774 5.622197213881416 9.098532100988304 -0.0966552240319045 0.24352126459024512 0.09195216212928034
Ni 8.624891244133194 8.167871695726307 7.522301688337888 -0.9046670727784742 0.3086442223418233 -2.4002883232214405
Ni 2.811052790444627 4.289514465778111 6.9419762040284985 1.5847302866964965 0.8332461978333262 -0.059222018886110915
Ni 7.453070213769896 6.835894521662648 9.20381107834282 0.8881737031091412 0.12415934298944423 0.23480933863854397
Ni 1.7907927291169168 8.71617603092476 0.7817421317203572 0.5123316427645822 1.2033282157656566 0.7006520938129674
Ni 2.1189946171427705 4.978667873228439 11.274694709280968 0.7299187039875686 0.6767907138143376 1.8352500940917618
Ni 6.503330903209893 2.896207330060571 0.0180361218472035 -1.0653247678042685 -0.41397229155737736 0.736575547182454
P 6.693102829976943 1.09429951899443 9.517236230052664 0.8978371943408344 -0.23051148259413848 1.760382398248594
P 4.5026436422471985 0.34108182140411375 7.055557130472871 -0.9690251273395699 0.3541206095070676 0.023862665550210518
P 4.283979833051539 8.464753427031264 2.4753314990819777 0.04589547698053386 -0.11240657332889027 -0.18782037148351524
P 6.347224937763082 5.6147107984217985 2.8611778698169648 0.2195218163518542 1.4604891826265234 -0.6771488684847047
P 8.824596187250581 3.0021992120941037 5.443237063859534 -0.23011373293508755 -0.05502237898246652 -0.9498081880914868
P 2.4057050863177696 6.290843157685937 6.0917329126876805 0.486072194847421 0.5871687424801307 -0.03205394311175125
P 2.794503872060209 1.4068596552582675 0.035286032621658914 -0.2198959118618213 -0.30990354867022113 0.6785827727177539
P 1.8369207773711578 0.15818145271927572 4.373999168221352 -0.2575000953678404 1.867559604857745 -1.505924432141187
Ni 8.208987419309297 7.606491332546367 3.2929855167604587 -1.4847364852096625 -1.1100038558791978 0.718208357529176
Ni 9.059176647184742 2.053550334140826 9.556625588063328 -0.5348568204502917 -3.0801975280601015 -0.9021098535742592
Ni 3.4677223021736037 8.745901773582043 11.881481052736913 -0.468426970961832 0.5460022955441499 1.0196267515465214
Ni 4.5404330882147175 7.337209458480539 6.470980791657098 0.04122403964679352 -0.16517460905954134 0.8931323326659973
Ni 4.722617803230772 6.566988342864683 10.887211773305971 -1.4623396055717008 -0.7279705791222624 0.37045662766292975
Ni 0.22275155697599686 5.858931049131379 6.480020386333858 -0.8120477093788403 1.0988660940948236 2.380007461485217
Ni 0.6833420430874279 5.015183620604909 2.8073306583030155 -3.1794927608180146 2.2317417123658725 -1.798628071993354
Ni 8.33152821972725 1.529446272172299 7.017080437064139 0.2713925370792165 0.29399433363913235 0.5334838513621651
Ni 8.391502013097135 6.117501026413495 0.5239876880684814 1.9432477397196792 0.46703009061430534 0.3789304694618958
Ni 5.541367751495509 7.408738172162026 4.095993833301723 2.346356091979359 -0.5396354727858577 -0.33746628877983814
Ni 2.4422299969934556 1.8716863345973376 8.282782216886947 1.8035237095227588 1.1170286239364633 -2.7468583740747596
Ni 3.650731714119114 5.49161103675166 4.253148080178865 0.32954574838118084 -0.9340797216126365 2.6762458539635197
Ni 2.656092237399838 1.6082414821322153 2.281469075544826 1.5349041072029888 -1.154848265887398 0.04208330232329526
Ni 4.203498576035846 2.4849584612384943 6.360605187278544 -0.229436761472721 -1.028191867507713 -0.33106424190823625
Ni 1.621079264334081 8.704941826085726 6.35089483909916 0.5589030627662182 -0.0189297470249674 2.2749017926931145
Ni 0.7993924786705596 0.868035669428872 12.364023138450621 0.6311106952787195 0.5357865313534128 -0.12259739781896303
Ni 6.84065943725506 6.9877120630762874 12.017995884459536 1.4176111523160746 0.11162367241627873 -0.4020598563905076
Ni 5.471277675790962 8.715763682460032 10.65776917524232 2.492486025702624 -1.0760223567274307 -1.0054730857539587
Ni 4.461555408561856 0.6758501296482806 4.456894954580508 0.06653552182838864 0.09714579051507785 0.04198971416822446
Ni 7.903803738914485 5.329961275279061 4.569859190987631 -0.09120242844744937 0.08853208070413784 -0.36217664704232466
Ni 5.060716054410099 2.3408930709617413 2.533041041215546 0.7505420366648751 -0.058404922301454255 -0.8800377042655683
Ni 3.510166704142941 2.7888409531446112 4.122119315696968 -1.012231744634031 2.0470971675071774 0.40776667696729774
Ni 6.3017841369500545 0.3288249923725538 2.664821196233169 1.4361524056533719 -0.8771935499485537 -0.183587050128458
Ni 9.176677633033794 6.372314051016977 11.299801232803375 0.27854637451517833 -1.6699885817453692 -1.3657833690115058
P 6.932613144889408 4.882297455371893 11.921137979084689 1.2509661293585939 -2.0973396086024976 -0.30030999144451503
P 0.3005287243929956 5.3866546075295565 8.797726644958981 0.32839389416492476 1.5208067485696584 -1.1041049738962596
P 2.325086379813834 7.315721521818601 10.704789728840218 0.2810552569799611 -1.4085418430249548 -0.34847986628152244
P 0.022543548731641546 7.848915576609577 12.654836933014625 -0.41995447728274127 1.970474436646116 1.5996514267827031
P 3.7085796220708467 3.096232988650524 9.664533515962965 1.71702588563983 1.5720334079551184 -1.1126765176153546
P 7.729142092554913 1.8658493129966323 1.3988637603622305 -0.11530317815039498 0.7129800192507011 0.22280794330229367
P 7.560134201811722 7.732669962753141 5.445932906488935 0.6976994389425468 -0.8623323165660053 -0.12928406581051927
P 2.447352281255299 4.242662516885791 2.841517095018733 1.6145527693745678 -2.215183036676243 -0.05797966183857757
