# total energy = -381171.3055011964 ev
CRYSTAL
PRIMVEC
9.22699573980470 0.00000000000000 0.00000000000000
0.00000000000000 9.22699573980470 0.00000000000000
0.00000000000000 0.00000000000000 13.50464094422412
PRIMCOORD
 96 1
Ni 1.76958092545631 6.058122463003613 7.763155939707794 1.7310044593071092 -1.6930066399070973 -1.3281442185024934
Ni 1.9595278599157957 5.184722726525834 0.8507465392179189 0.8649075334923491 -0.02372022643507528 -0.8082339920597048
Ni 7.684629592398095 7.785988140685157 12.915460539374115 1.305177839514307 1.1904773279449177 0.8923615159382439
Ni 5.482773143163857 8.126925633557887 13.60835624884047 -1.2962247440860772 -0.5185264587213844 0.11297735823069574
Ni 8.859715181838439 6.638740397415234 11.086000102314372 0.35856039044597604 -0.3754869909979856 -1.4904430486761364
Ni 7.382325530720444 3.763110264701903 6.1048405878727126 0.7811060254946612 1.1374809782535442 1.7612797132518827
Ni 1.8806739542570585 0.7600460937188758 11.917359800767072 1.3385738984762496 -0.4199305660233412 0.40281396094771266
Ni 2.007729685701104 0.0033669307482884687 2.8131790573950495 0.21818227160482426 0.7882557491655651 0.4883815597068879
Ni 0.5136474765761788 6.361496856187983 5.249983422049251 0.6935540493156055 0.2445533053991853 2.574716846779082
Ni 8.27525881719583 2.0958105871074117 1.9132295633532113 -0.5577566078666008 -0.29817880403412517 -1.3559031337833163
Ni 0.6779452082565683 2.298112468872895 10.671286319542792 0.42275389440474936 0.7617687586186299 -0.795969572870055
Ni 8.837072134273901 4.573941743015407 4.268871428012633 -0.879543281127653 -0.8740925424257269 1.0098380475908737
Ni 4.150791718031824 4.966301283189346 2.8104644752461145 -0.832130081951012 -1.2882571524995683 0.9107418182176443
Ni 4.495973628948436 7.037780282510415 8.546736408780424 0.6568847189190299 -0.32342729418826877 1.1241354101845737
Ni 4.350131734162337 7.518654392890798 10.950414013301696 0.5987240514178979 -0.4128260937680761 -0.4689275647473343
Ni 9.14234728858227 1.7575673769929732 6.027539585598291 -1.3232732635634372 -0.8724390659827039 -1.2948674587272344
Ni 6.444761265814059 6.3914107764016075 11.730670918506052 -0.885903676128042 -1.5631181077433596 -0.5850560670125021
Ni 6.748763094709265 4.887576555471075 2.860795891649962 -0.989032166589116 -0.908481561428558 0.8239251775427164
Ni 1.3965334873820352 8.328793846523233 6.774630054588004 0.1243992269143922 -0.1895882620172154 -3.0043124466960127
Ni 8.993082178373824 4.46450957344922 2.142443823615633 -0.19836575109952934 0.6267549894131851 -2.483256022463923
Ni 9.027074430707874 -0.3119130550491716 11.166352472082513 -1.3747616612507163 2.062259734180229 -1.0925676626806216
Ni 7.454065422657804 6.262075977007911 8.94970145786662 0.38003578671093263 -0.39202252675916355 1.3311513807599333
Ni 3.003257937893726 4.0051435901564245 8.46380417100126 -0.42854093340017163 -0.7625172067488803 -0.6168421011748473
Ni 0.935958767646307 7.9778542902601375 12.924481773116515 0.640410889633723 -1.1410514692136218 1.0369971245041687
P 8.415896686380298 0.6456885538226368 13.465517741170206 -0.13578638570541132 0.10435696355153641 0.10798196189863338
Ni 2.7960472943905357 8.391306742713024 8.454729420683524 -0.2947204131718795 1.7240349699678117 0.9176781403261616
P 0.6964776292155637 6.755609525553961 1.3802017049088353 0.49468641887899323 -1.4513663943896487 -0.32734334141322335
Ni 3.2718926920884934 6.837905100626543 12.964320249956224 -1.0847651359170674 1.0593718926549434 -0.4598726536339177
P 3.7811674953798984 6.7525646169572635 6.664148775605319 -0.009904146487589393 0.3560545933049868 -0.7194175473459288
P 4.681233249568156 1.3453328879787665 7.187035243023541 -1.0446839516254653 -0.30911859087508053 0.4317686963088499
P 3.853617865989822 9.056157921304216 12.316651582846161 0.1799435398385998 0.5548384057785412 0.5241096092361167
Ni 6.408942068321991 0.0570117613250885 11.570735710415113 -0.8897377051621514 0.8621983620913022 0.838130265398505
Ni 6.659399640894044 9.070819617547105 2.0423207700591712 -1.4356916639668693 0.17781929440674538 -0.09016755942503181
Ni 2.595369363876625 2.856982374307491 13.067117286880332 -0.5254401551220821 0.27752178990540594 -0.019147262352412184
Ni 0.8100398020783621 4.722856227385447 9.659046132652172 -0.5813783610505987 -0.15089444499144336 -0.8464716953846648
Ni 1.371620598863595 1.0865525652424048 0.8348475028452802 -1.9109834803693349 -2.0107068018036016 -1.3868836413252308
Ni 3.2235155533839808 7.3827868805078225 1.7050288632063069 -0.5435684892916768 -0.3077962725192312 0.5083145511853892
Ni 4.952968274334107 1.1348282069936937 4.803749299104397 0.5550050132633925 2.111696905765434 -1.385296499343769
Ni 5.752736584746274 1.3924459282658614 0.24484202296008178 1.8805719579570128 0.3340690901728311 0.7403905500531701
Ni 6.850075508017588 1.68712849145602 7.255638879106301 0.2130004702935687 -0.5124887371677368 0.3260765588856578
Ni 1.6490486800057966 2.9957932983339415 1.6721853718428297 2.3588971618691628 1.8788338922199834 2.759635214124454
Ni 6.989799904623048 6.3225404801417415 1.1381923696432579 0.947553073508723 0.9154988732866555 -0.5224371066297002
Ni 9.317512575854149 2.341756158758903 8.317846016068742 0.28351091760930525 0.06438350848239234 0.05304751464428284
Ni 8.425585031915247 0.24669849450449297 3.4718407672387706 0.5438533675219472 1.907760345446347 1.83845394574104
Ni 0.6180250978718457 7.549057343879043 3.4287340885052706 1.2924418800048774 0.8431223192964576 -0.06175892637535169
Ni 7.354782948413946 3.778270218715161 8.631099753600035 0.15782151112857984 0.8580540009056254 -0.446502917195231
Ni 8.186412075142474 4.195505739424551 11.060071321564124 0.21237980599043424 1.0116925843011093 -0.8834672987724076
Ni 1.8793452668694084 7.791653516074166 10.566814582890501 -0.055674667854484765 -0.10941226658725674 0.761972904209636
Ni 5.163528317293665 6.013989742342984 4.955419887104237 -0.25531285790853453 0.47318248336894636 -0.5708232112425718
Ni 7.666341686826412 7.031321385487115 3.3779837664944834 -0.7908026839571348 -0.30880105963466176 0.012024792375018
Ni 4.790508560206633 8.672148812281828 6.055669927533909 -1.3363581217718532 -1.8085198771857693 2.6205472748496352
Ni 0.25568005216517803 3.3018896552638446 13.5747303082376 -1.2156749102564677 0.686716714678798 -1.612447292995791
Ni 1.67763391283177 5.522956709644526 3.18937751451712 0.9375296278344498 -0.8277934022488712 0.773483733062713
Ni 4.948733083285973 0.2169552737121995 9.522406320725125 0.3241580017067062 0.36845759495502994 -0.972782280389157
Ni 8.674086481388818 9.18374881850162 7.601262763119221 -1.817199407237638 1.2840726821045756 0.29041998602431274
Ni 5.972108408644762 2.4628235699627754 2.541668248625765 -0.1254340959368098 -0.020972488486609042 0.16990646731757192
P -0.40319387858073685 8.541596049449453 5.377291050477205 0.8726298418372714 -0.39074803092211413 0.746267063438605
Ni 4.873966736743408 5.549475095423043 0.7060838544883593 -0.06176355436104202 0.6568188986781011 0.5397205763004962
P 4.171220286616945 3.4644508663445412 0.8377816874930075 1.008660739453321 -0.35883472715328524 1.2562083515941398
Ni 6.654537014135075 3.925016359084522 0.33801807141819806 0.36202829438991846 -0.5541238962100199 0.06045614840352814
P 7.047523990019849 8.582416278636703 9.740316588497198 0.40131423647373465 -0.7576709344001725 -1.7181378877570863
P 8.668125842135886 5.510998523155675 7.15000546368939 0.4532255806310453 -0.9395183761297046 0.6928613941239552
P 2.6539331058864555 3.4866879260961867 11.017748014769593 -0.1358321513416822 0.3393570780446478 -1.716331944896599
Ni 2.0292009048057005 0.9100622813811756 5.166538163306523 0.6149857646923989 -0.38498978828209823 -1.3767092718953902
Ni 5.541004713326774 3.6349288397766535 4.682140263250143 -0.7010138480277605 0.008576685925417486 -0.05970307228758749
Ni 3.5230884243203517 2.108673019179525 3.1821260185591043 -0.061582291588171356 0.10468477920460036 -0.7425911572489146
Ni 2.1094665408138162 1.472646975303744 7.311871881990295 0.5217729906831401 0.2649745493680146 0.9467136083265631
Ni 5.915786826601591 5.541908958910036 7.087667880418804 -0.6013879714033062 -1.6047602087641781 0.7617623308607268
Ni 2.7172210697190415 5.3547393501705685 5.579847597325321 0.15793541099862476 -0.6972153002172766 -0.9258300800093346
Ni 4.537209072944329 2.0655737220426236 11.989676379938654 -0.9126729738020862 -0.3935883285843867 -0.8621029741640185
Ni 7.577956294560434 1.7035525438866956 9.827813421072683 0.39913548365486096 -1.5915907612617557 -0.40222517832377824
Ni 5.302662186171281 7.041065092996551 2.7682897230831194 0.348169019909323 0.8689493076618906 0.2797599352073053
Ni 6.742876271422315 8.743464262414799 4.936296938417397 -0.28029498177516887 0.44310340459537884 -0.4427887015684374
Ni 0.3161187197109142 7.331632416083291 8.576702922869808 -1.2539748342779307 -0.0034442497948585843 2.4792520435108525
Ni 3.0020307474592993 7.728208693313872 4.777658123228991 -0.3709834467006772 0.0037152440680581172 -1.1543134764298506
Ni 7.417591108467658 6.717225223244069 5.8156794589379 0.9609629191567256 -1.18304426870564 -1.4181323149268672
Ni 3.5233744611885265 2.959014493284126 5.875329218347219 0.2968449157140501 -0.7458315185630833 1.0689358821942945
Ni 2.929469652900405 5.690279050530969 9.983710895824485 0.4690476352649664 0.3170743553870475 1.0398821593614478
Ni 8.895691238258216 8.51874078098272 1.5389890747287758 -0.2164156666227047 0.4027669097598612 -1.3337898468240448
Ni 0.7181804459134243 2.1713704552842668 3.511368294321788 0.037169924182077915 0.2841490654139364 1.6976477382235342
Ni 1.472324030452579 5.111700282179561 12.01445824511748 0.42953672165453766 -0.0547567840259057 -0.530884466066105
Ni 5.273624830553676 5.172220147287876 9.528725890112636 0.38538368128640726 -1.2281272770872074 1.1530186688778272
Ni 1.0161136797054517 3.75522118333773 6.2239241949908575 0.07697497199415776 0.6590462453467231 0.5763019749689559
Ni 8.60381368177532 5.520816046631089 12.997271697169948 -0.07633348175541692 -0.2693978752466909 2.0281401667887007
Ni 4.146030588226078 4.875738319926942 12.178742136304248 0.2045320278112413 -1.339080662909339 -1.8343931454081053
Ni 3.64823416764465 0.6699334078489529 1.0030427175294434 0.4829968983562069 -0.3097690799748859 -0.07329083827435119
Ni 6.387064861404502 7.654780261154705 7.492982122622332 0.6515831042004584 3.6870012711623406 1.0212383190080154
Ni 5.567246289232864 2.6676075135843544 10.050558634616484 -0.717936334814712 0.6578799929527638 -1.2885654277686065
P 6.188573728882766 3.9467182530828078 11.657219418857515 -0.6761263407574614 0.40770317071921397 0.22642240012642942
Ni 2.8335734860959048 1.7978708944183608 9.563594707042704 0.4158736223451483 -0.40996471305988097 0.5912567965065753
P 0.8794074334090224 0.27014244529992004 9.299903777169487 1.1888179379646235 1.006299438309996 -0.08913603283672392
Ni 8.15642433896287 2.1829687889389624 12.058861316753513 -2.0312229194790827 -1.1913736145069418 1.212250457955951
P 7.4966203270455996 2.5438458196221916 4.430143627787395 0.5598101479615198 -0.7645782030429671 -1.844334058670901
P 4.20219531134154 9.026428541005544 3.1379250181299425 0.08479883891395074 -0.2668324285123598 -0.10585463114298545
P 2.393897911728424 3.55093549748652 4.280606321204393 -1.6938684736867602 0.9567815340855264 -1.3352090957690745
Ni 5.082653699566209 3.456155797167476 7.600979494349771 0.7302380350002006 -0.42038770816541793 0.362307259082918
