# total energy = -340875.8776218608 ev
CRYSTAL
PRIMVEC
9.19932986562792 0.00000000000000 0.00000000000000
0.00000000000000 9.19932986562792 0.00000000000000
0.00000000000000 0.00000000000000 13.46414914085767
PRIMCOORD
 96 1
Ni 8.181856356317223 3.89072776264748 1.0359448119968957 1.2742551817935217 0.2398875244923998 -0.5078712930003835
Ni 9.057586559859194 1.4477537319462277 0.09456451102799188 -0.09861671863364951 0.8488450807128478 0.860114740089396
Ni 3.120044706479277 8.511909912099341 10.503894157155525 2.2286607594477035 -2.3468068063635323 -1.7450341979272979
Ni 9.095975363256228 0.03828853070184396 7.633391391684704 1.052255079104504 0.19072186140102637 1.0476618033068668
Ni 0.9586713613247786 4.875368832093473 2.2995555586571355 0.04440912224299448 0.9907134109462808 -0.10809431910678158
Ni 3.8557519106188383 3.630294735048623 11.90831260605301 -0.37371087293416927 1.2085724948837313 -0.5147453944123973
Ni 2.426304845042152 0.8407460721164781 2.15009036711317 -0.3414846659106119 -0.042522703853559024 -0.01979826567284977
Ni 7.705367868238438 3.090275675136645 9.64826080956878 0.1887390266430427 0.026772125887521633 1.5336956887171844
Ni 1.1695292004485298 7.113795763937056 12.377982550858878 -0.8306254723810276 -1.2779801960535926 -0.6926515921059943
Ni 3.8792010023655523 3.697771819380577 1.0493795132863826 -1.0959175529894611 -3.5750929776261073 1.5263261357259907
Ni 4.576574599087084 8.079569007893637 8.532433616958864 0.3090453144349839 0.0832219813451341 -0.5142345162142499
Ni 2.7737175362209165 6.796520077294281 1.2513737981151323 -2.007111885363492 -0.3896157170898838 0.7813711062305898
Ni 7.324911184296158 7.371119418052041 4.673163882611527 1.5116906452010028 0.1863586993363242 0.6437924045114461
Ni 8.995656671417105 5.5571403654166405 9.679215634527008 -0.004098081328773587 -1.9269875691070748 0.9692166745250858
Ni 2.6405388382149595 6.084096376964424 8.717659363366305 -0.4172044253414298 1.0187474342653615 0.2677631678567453
Ni 0.8212214144769225 1.8781443782271365 9.254919544261083 0.8059665361817667 0.5474457128588959 -0.7903717670673033
Ni 3.2454959674247243 1.8403719299289767 10.140321923190461 -0.35169425945376204 0.8456188604660664 0.9371408770364634
Ni 1.2993961397142688 0.23988080481685037 11.134366547592707 -2.1882031656532894 0.3115603675473537 -0.6327842263264005
Ni 7.320136732112344 3.536314381465086 5.248339101416891 -0.49893233863954073 -0.3880869391501833 -0.4328842979705319
Ni 1.7492433685939617 4.762079085188494 13.273766373505854 -0.00043554487552183055 -0.32413871843299663 0.7265263904765681
Ni 1.211432147842129 3.8350718171521394 11.110925735242843 1.0153260672886386 0.10459839013838114 -1.7306234218186065
Ni 7.050706759935893 8.253454740414782 7.152505623945295 -0.8431986810603478 0.28314402118818977 -0.5513653596282763
Ni 3.4462253444013067 7.420096650087941 12.799168347707946 0.6261582363694507 1.2455668127198936 -2.222747736397378
Ni 0.6596572643353583 6.935650741702798 4.1020547675927626 0.08681329824081824 -0.4687455306435153 -0.9087641256659834
P 5.974826737196877 3.2489457161124515 11.178892223921963 0.44211970052587085 -0.008831739359017047 0.8606965807347952
P 0.270179717557917 2.651624030664858 5.689127750209104 0.2047559708965893 0.9992710707083048 -0.9061701396865619
P 8.131158849602375 4.8851661183666195 3.448599691431447 0.5449591989916163 0.6603189414115597 0.34846315411097406
P 2.924844126732892 0.5244997904821205 8.574642902035933 -0.21087082554507552 1.6196610371354105 1.6638606144707602
P 4.157296743245576 6.497919030214405 7.089493894314736 -0.7990530968913852 0.30873009718741024 -1.058023349046849
P 8.931896116338065 5.802035724925972 -0.007885665533653838 -0.3500703506970939 -0.5394071588251356 0.7996202822487648
P 2.3708144874838224 5.3738069211560395 3.9387749424371683 0.4772535681145264 -0.49850579262508343 -0.8952043847036776
P 6.713100554360109 1.3643434083418888 8.004530994371168 -0.41602428899039967 -2.807554920623868 1.6329310147714395
Ni 1.5319919952356214 1.2762414265222402 4.512253804821155 -0.9444554084200056 0.004304798022940973 -0.4887214595448099
Ni 4.491434801473964 1.5205756269117012 7.498924787501995 0.20375349777400392 -0.08339527369820475 0.04054963928758822
Ni 8.297915101502216 2.60706247694925 7.498682845127362 2.1800897925175358 -0.3733236647980796 -1.1398674762078498
Ni 2.092221982792767 2.118826444672523 12.624147417885291 -0.4340356379661557 0.9230512317126168 0.7003055091068261
Ni 3.8380064033691665 1.74139634024561 4.769971190253033 -0.48952570061366013 -0.17587296931365196 0.2690988559490333
Ni 0.876585741216527 4.3417617050757515 7.814888649710451 0.772743769572895 -1.076166852725095 -0.27670854997549116
Ni 1.9199461329925622 1.962897803987231 6.9402163690993826 0.03512409739664273 -1.5375248326552875 1.402203816622069
Ni 2.29446924919195 8.3587594690239 7.351210228425428 -0.879191554215189 -2.2313755872757053 -2.3908929980494693
Ni 7.115957606448034 6.035312330855036 1.7271134607454341 0.5056871408648711 -0.4003567576564718 0.7679293789033871
Ni 6.110940021419862 3.391112159366169 7.660831152713381 -0.6457934941018749 1.4320155006668627 -0.8056657171118964
Ni 0.27328817110880543 6.668290618738984 7.7121836517124045 0.03916175780112611 1.0489962058475741 -0.5379462580088928
Ni 2.3078174767809974 6.31791574335369 5.850213535199302 -0.04787188398061433 0.07268148682512644 0.880357292388516
Ni 9.037568818140539 0.3752489433232855 2.6701422816205804 0.0978916675421669 0.22511345150701875 0.2832167834076542
Ni 3.183244102438448 7.758852771892968 3.36385638493417 0.1313275786031093 -0.3548366617374856 0.9578850515623504
Ni 6.405198984818118 3.8362125340515485 2.7480596853810733 -1.038412516794457 -0.21928373219911912 0.24052798628987607
Ni 4.494866151502023 0.2383316376728148 0.7943428125681152 -0.11484732155989898 -0.33265266944127875 0.39335744352050317
Ni 6.287088789080155 1.1998777895706998 5.786190799219993 -0.9939314036629463 0.6685966080393194 -0.2863933813634229
Ni 8.469960968056572 8.494228800158508 12.001579091641432 -0.6917802452446344 0.48718599673688995 -0.2047343736300345
Ni 7.177335535100084 1.5248993119336531 12.166056669541405 0.6925757445627363 0.42079599934743017 -1.3779233468081493
Ni 6.762399762940196 1.8942248067768646 1.3907390454344144 0.20286543874209578 -1.5713163272834358 -0.0831330211757536
Ni 4.5143227341008085 5.720318078011078 2.1910209453433214 1.2619761073158524 -0.07491037615564518 2.212920980114944
Ni 8.374931890871967 4.576169828574391 11.872242033774128 -0.41947496654316146 -1.927844003570099 -0.2380077909711836
Ni 2.3263633257262217 3.599311392167911 5.416600363677564 -1.5845477383720452 0.9309362908876484 -1.0441599608011953
Ni 1.5416144942419234 -0.07884745600670445 13.397636269652848 1.5520970740425075 -0.9065267516950324 2.1398355729831793
P 1.3376837504831294 2.8810277187338333 1.2224492652512562 -0.2964034573012573 -0.33673429570982005 0.03197629579628041
P 1.2517252125147886 7.926004594975669 2.3091421802770853 0.3487377479285994 1.5502685054742011 -1.307199497930026
P 7.861609286138084 4.893675498463015 7.528222813157129 0.13727016933978942 -0.018767510415490258 0.4926099959659387
P 9.03021855360322 7.732064323416534 5.872321364656228 0.47370904529637764 0.4784789558811954 2.060624769679967
P 7.1729014581201245 1.4510378926969447 3.674393562473584 0.24935329789098992 -0.46897307327328913 -0.30105098337559766
P 4.138870485588193 5.327469896782482 13.521910016379552 0.32178050261346514 3.576192381337873 -2.708615014322845
P 3.471109531602116 0.6160653199842476 12.104741296332225 0.45136898703828066 0.04078206701336848 1.6220076829907162
P 9.339067654118107 2.0484791694323796 11.283212624238848 -2.071270679429588 -0.3386428255864426 0.9472126594501686
Ni 2.7047593597856983 5.637708096102292 11.197944036008053 -1.4837291269910706 0.6380130788255077 -1.1491537866057822
Ni 4.273291093121732 4.138778492289854 4.136711402876166 0.6072169193802575 0.3326696387221432 -1.263093251639431
Ni 4.99687358054016 9.291599112174973 3.775778456640459 0.7712569006147233 0.2774369435010835 -1.957645146091932
Ni 5.455506169411266 8.874059929672079 12.056916740324517 0.5101783438670052 -0.49100485626234797 -0.0713113459504772
Ni 2.5770174657116 3.129612009506575 3.0949231765687517 -1.1302394661997825 -0.7732831870161329 -1.4052510880888252
Ni 5.485339596062735 7.189055481308524 0.5196342649329492 0.46297597514958977 0.11966428333256811 -0.22417062797777523
Ni 4.844091110658074 8.39443447011992 5.838202890168109 0.19439905314229744 -1.4657020942860306 1.4095512581260756
Ni 6.599838405444633 5.153639360240341 10.162658815960251 0.9689500511272603 -0.5547499598297929 0.013215984469641756
Ni 7.107650611607984 6.449006193487343 12.073181155470925 0.024894706359150677 1.7579017979185854 0.5846138372687608
Ni 5.164788947999076 2.199771347881366 13.030132242116757 -0.5527974640891125 -1.0551498841537958 0.5143774695500173
Ni 5.474677572785198 5.707291826966219 5.162585708503848 0.634844451289539 0.7207794606904618 1.7772143822042683
Ni 7.499192488000163 7.3463088254899045 9.273190333244274 0.8604978344604276 0.35433632506229945 0.49142703140143107
Ni 4.859490788800092 5.958074757569272 11.374634644195568 -0.025389900828014338 -0.56266587224276 1.4206712792986371
Ni 9.04364037583094 2.8381220443883346 3.072020525014173 -0.0695002608836674 -0.7532177837248254 0.6601232804609857
Ni 4.688714429762819 3.716418860953975 9.515437205694415 0.1622836606649915 0.3143723830748521 -0.13499165771825783
Ni 6.884732451071938 8.481009363187136 2.4163162127084594 0.029478726185407294 0.8053206750676518 -1.151984571186358
Ni 8.749206625165838 7.72696789468853 0.901863659734229 0.22862275021185788 0.5740414610695533 -0.10650357758089399
Ni 5.820655168509868 5.798815959484093 8.106346417174272 0.8587250588307211 0.5045604834595956 -0.5303311646657962
Ni 5.475376721852577 0.7894230109729238 9.919927138827862 0.41026141836469343 0.23853383867798272 -0.5317347298815422
Ni 6.223824997812147 4.413553275099823 13.32211621124708 -0.8381996851838598 0.0067152072366465 -0.5262667647884356
Ni 3.4634188918609414 4.31507444922749 7.22039207845486 1.5716613693276804 -0.06840625648854025 0.6175203581887945
Ni 8.482803232504754 0.6562351136371325 5.476677507091097 0.44404725656588684 -0.04861441857359369 -1.335195726032636
Ni 9.018930975896975 5.187713677945256 5.56116507221899 -0.09209511546504785 0.11349697817959163 0.16658665891571955
Ni 7.970050986220575 0.6031347419696608 9.935357174758332 0.0330553877930721 -0.09605564277469263 -0.6895354150745158
P 2.596372855682211 3.9607806593329373 9.257679343211269 -1.3578175771972099 -0.1973928456632988 0.7397799130523647
P 4.9381266602206155 3.110734984687329 5.8311074470671915 1.0211110494015316 1.0773356762222155 1.1950266378784968
P 5.647597375673778 7.160445565524969 3.5713113919523467 -2.6917457493713317 -0.6656256983364536 -1.6601294295631022
P 0.7578407917200224 7.334432490674287 10.1765001276284 0.5726126990428267 1.2005195426722681 -0.0793504142048698
P 2.891008991603659 8.969153402165523 5.224103466969375 -0.33697932184109064 0.058806528615247114 -0.37493317537704457
P 7.009677748876518 9.03570135418425 0.16105910693368097 -0.2787384359213264 0.21141127142957786 0.9064313637677486
P 5.73033614820024 7.514803750728359 10.353365523082758 -0.10026788108382732 0.9736209742403684 -0.653373877552294
P 4.602461513239792 1.9339475129998198 2.2171948785868496 -0.4007007712594518 -0.10404174630396275 0.7290054481446799
