# total energy = -340861.99611792626 ev
CRYSTAL
PRIMVEC
9.38826847530897 0.00000000000000 0.00000000000000

0.00000000000000 9.38826847530897 0.00000000000000

0.00000000000000 0.00000000000000 13.74067989433442

PRIMCOORD
 96 1
Ni 2.3100021973531004 4.028806361885011 2.612391748241552 -0.39004509131781856 0.4564643992833171 -2.159860867065171
Ni 1.3835772675309224 0.41473238611916036 13.061436753489014 -1.2623486601639227 -0.2656142398345426 0.05858849906717006
Ni 0.5216957436009246 9.042958425585878 10.264562716224622 1.6512580952154015 -0.740882144977608 2.3105349685156917
Ni 2.0828718218204347 0.8404969263444024 9.042673022228865 0.9409093429399601 -1.0844396342568485 1.1811658207360045
Ni 7.04477817230511 1.9661380934951682 8.95349573908458 0.026552039456915564 -2.0817836631457696 -3.3327150826116863
Ni 6.162252785160184 7.287812274376541 9.07688668847752 0.7065190941167058 -0.7381338928085094 -0.1629187231458291
Ni 6.54414876399364 7.494438671892287 1.1822120555832538 0.5640997764758092 -0.5390304922120072 -0.8897952978729643
Ni 8.673501902280085 5.623751102434676 1.2933034346465382 -1.4433460951883337 -0.7998951331767064 -0.7753521537300195
Ni 6.069355870106419 8.524594578412701 11.87971101020488 -0.11312673932436645 -1.1898936875273056 -0.14084194585144777
Ni 8.985981025135013 0.7052645541159589 3.755245366535276 0.7899619332233944 -1.5491269356705901 -0.8998012600457406
Ni 4.021380241641704 7.135769268889354 1.8754511768045825 2.382926177793909 -0.09554862123128706 1.442811305730786
Ni 1.98715842626984 6.347258000728601 1.5485742056498617 -1.7071034843197954 -1.4067544121072288 0.07054644275999464
Ni 8.684974366170506 9.544676873022789 8.334216456883166 -1.440731283273306 -1.1925432093350108 0.300313848099257
Ni 7.16213152633968 1.7150957985444182 4.538353686276277 -1.4144867477544802 -0.33993634758688546 1.2416381670894487
Ni 6.056043305624738 1.074825287200133 13.444622680390019 -0.2798334687577181 -0.08587613113852952 0.6809353321103305
Ni 9.03254683601593 3.131071980057204 8.425015093966794 0.48477918706761025 -1.0726120454943011 -0.5497059696479822
Ni 6.181911819028054 5.866409673773197 3.0773767182119793 0.5895318433956686 0.07045234038429157 -0.18224776249174418
Ni 0.8917850361916704 1.3000216794583093 7.331614179063236 0.2546664825737872 1.5974788446114165 -2.935521038953912
Ni 8.142172856553172 3.562810275416222 2.4376244392791104 -0.8877746678985098 -0.668467538660623 -1.5094882382330455
Ni 5.712855157086044 5.2045836983598415 11.427738180129806 0.32625062256967685 1.3451425528327028 -0.449364297903426
Ni 5.849454461182281 4.615460472837983 5.682801432531207 1.1740166112857329 -0.2057874974848972 -0.6604063589190433
Ni 3.264854803656613 1.6344411853835397 6.739336495384928 -1.3592993039490588 0.3623429974168599 -0.9758604050938483
Ni 1.706336544199278 6.3469481878739495 10.268217569082674 -1.9103178217608776 1.1360049079286498 -0.10014652501461463
Ni 5.013138130722007 3.1788301010151128 12.406446376241465 -0.7285884152119194 -0.5573449742504788 -0.4350615081275088
P 2.9622333625405894 8.910414853405074 7.386068951815773 -0.7961503214222934 1.6698998786863049 -0.6383889741076877
P 5.26748509612237 6.118381407287901 7.177828710975343 0.22890968532465739 -0.018677778915161383 1.3854888178602331
P 7.7603989252079115 9.21850965495327 10.23213469861096 -2.283184601527197 -1.7095902552973914 0.6625267476961558
P 4.705700507956405 2.728380986888823 5.492231790327886 0.024160142185971296 0.13807775284274929 -0.6958377031434596
P 7.018030995853551 6.521588755214033 12.73761003071236 -0.8388028659854972 0.9722904283544029 1.051695349946292
P 3.7578139967483843 0.6642584757357836 13.423132934199208 1.1080960973335237 0.18999321076511796 0.02436685888013868
P 1.3693258762169644 1.9785212194128958 4.648018048554501 1.2553472891454251 -3.9009345376828235 0.4134254179149719
P 3.693617017957314 9.081084183244629 3.1764745844929307 -2.357486654674882 -0.6433707435929952 2.2083318180823643
Ni 8.040695064252398 4.590750550612464 12.737624113114844 0.5987991276302075 0.7545061635189457 -1.045847118695631
Ni 3.8762845547133624 4.307891414315862 7.050933121017516 0.11656121892721216 -0.5894423690056558 -1.2624664166887098
Ni 0.1763191897161946 7.632633981603396 0.5417509623920164 0.16974757314220443 1.958629621492388 -0.8092526631322065
Ni 3.1810081792659943 8.405832984129718 12.155114922626373 0.3096754918198151 -0.7138886471078997 -0.8627966577969335
Ni 5.134274956890651 9.44168756952205 1.8611199852098808 0.593317792800662 -0.009013002131887703 -1.8762365638064527
Ni 2.887962771839191 4.084966982991794 13.642118048135043 -0.028364924295938246 -0.16108089860614194 0.8767832018840125
Ni 2.548680142922769 8.649374052690579 1.1735279073846958 -0.34966488772855914 1.4136400834834686 0.028722307635356988
Ni 8.303341258850086 4.1565337524162365 6.394238773069384 0.33122313608360376 0.11529803594407238 -0.5579921209161744
Ni 6.56068150451003 3.785969413448359 0.5305150828633306 -0.1129642456045732 0.15896565203535204 0.4823885753482467
Ni 4.065721032930125 4.744530385739363 3.7769285110535353 -0.8763692542750454 1.7735078798869583 0.9456306596750295
Ni 2.3649705083828927 5.698002916599429 8.12644375180521 -1.1646418549390523 -1.3102480549483626 1.2303919047516683
Ni 4.591736318786355 9.233493331196403 5.909811638229342 -0.869497723966193 0.06639616803704693 -1.1960954454626431
Ni 0.03177741061889672 4.465567380796709 10.228438537372286 0.6199161121144808 0.9959052395598654 1.2698819924264904
Ni 2.5006497621835 3.10308555218704 8.761277516963782 -0.5359870773999931 1.0781676852052076 0.10201983077792752
Ni 1.0606583903010796 5.676222134090613 12.799126658897281 -0.1650475965633738 -0.27887650416108745 0.3260631891492191
Ni 8.789362521651336 1.6156177073963947 10.778917772823977 -0.3688211489420357 0.955826883481741 0.27604212003608586
Ni 5.235377218458512 6.966001212808785 5.236132974058496 0.34379891586608535 0.06272514694336294 -1.1807037934979214
Ni 9.097494876272822 9.23674167203608 5.896400496930271 -0.5314573078504394 -1.288392392525852 0.012663968620913674
Ni 4.823701652505244 2.339931996766077 8.183124482977075 0.7580110913484107 0.5101166373911344 0.8865778193769313
Ni 1.0982490166654328 7.730478514063258 8.373735433561015 0.7358870057558616 1.2940081960507326 -0.9027742266311355
Ni 5.869413919636482 3.4751144610132694 3.551498350914122 0.8689205113064842 -1.125941610155377 -0.3969009378973874
Ni 2.1250439231262974 3.7257718369627857 5.341606413357437 1.357310041433172 1.8406452969654044 -1.114296312606965
Ni 0.7840846996465689 2.272956090551468 2.5786859873091594 0.42367332089522514 1.1202070216644449 -1.5444616689844368
Ni 3.3059378658370346 2.2389142296131204 3.7060536570044813 1.055388739637479 -1.3594720820814974 0.36512493103737115
P 7.85914473142676 4.684924270158125 4.233956923620418 -2.5338008252910105 2.136903744048365 0.4876349113488505
P 1.2270560580537757 4.070011471553629 7.119224323624144 -0.9207431524047305 0.635174323825132 1.936314502934956
P 0.7460706623808591 4.178877831024418 0.7826482945931857 1.0673808790023487 -0.9368117758318187 0.5746050468825072
P 0.6218000322460765 0.3484127198603124 1.73851201739506 0.2244367371549683 -0.9198394096435384 -1.1825195065504215
P 7.519402077362521 2.4188685568238895 12.381506441442038 0.027273748114288513 0.2903114854709065 2.1146475037533263
P 4.840835242194292 5.291453345150392 1.257746307200896 0.666148403609143 -2.0842691485717846 0.6173776619633431
P 1.02141542871192 7.681021116538929 12.170861865084149 -0.4457706670148968 1.6396385086986018 -0.6306972618903847
P 1.228999429596588 2.508883273502565 10.483959975139827 0.9257665737612507 0.34896503344805707 -2.1437737316953207
Ni 0.6788037198482442 3.3207994945919723 12.317928149533438 -0.6014918439710222 -0.7355568761099526 2.0502272284957272
Ni 0.864445460008945 6.871527068676795 6.1726296381373364 -0.5859752363926619 -0.3458681396902882 -0.8969676472516874
Ni 6.624916036374391 8.761976942953828 6.665370084577188 1.8976240283432932 -0.2078073561284034 0.2143317875104825
Ni 5.34950100819005 9.420282317746146 8.421703851729355 0.21974113145151186 0.850459219277503 0.08550409251109145
Ni 7.234533851644847 3.4317406613620927 10.536394392549305 -0.3999016723969242 3.050226692729624 0.22366694886847932
Ni 2.5566226179238276 4.454761483957205 11.213480059294483 1.632216762313234 -1.0212007809018606 -0.27455165153348843
Ni 6.645128978073306 4.156336598781458 8.010074288290866 -0.6451244930593082 0.47189898867083246 0.41382496734623564
Ni 4.023774250064009 0.5462075733648332 10.259588811667221 0.7624197619390676 -0.17531375437607227 0.2756435990460866
Ni 9.103071507656544 3.093302976594719 4.483775927208712 -0.2492211431884998 -0.823196526906808 1.1373313400495575
Ni 6.255797490728219 1.3806387395458968 10.956983180448207 -1.4404073242749837 -1.3746845281558777 0.6065196362029167
Ni 3.7724972484051897 7.7765279701864225 8.904043035694412 0.027488178117939757 -1.4319100854372502 1.4737339634515716
Ni 4.581259011338148 5.002275904272568 9.240112060363952 -0.2579793489971041 2.2108180748393282 -0.22269018677750682
Ni 0.5309384937646873 5.279220431525827 3.643396354218345 0.28338416222345386 0.775297132122368 0.15786213455852813
Ni 8.34160784053368 9.218434548806687 12.55800588591003 0.21573072474053814 -0.8103075867592819 -0.5322620631399221
Ni 8.853315405466015 7.000503098894948 10.04711633946689 -1.6984290964742492 0.20461224622987345 0.35322689404820456
Ni 1.6533022164439757 8.40607707910611 4.3845409922102485 0.5472356537306189 -0.2916554010933106 -0.6822105992783284
Ni 2.7741581832306275 1.8337259570708833 11.70454469983872 1.3297077063348712 0.6047802849143069 0.9820241107023989
Ni 4.734944963781819 2.815015926971303 1.4992454274015548 -0.9886886672067682 0.03961041530277049 0.3164153816468099
Ni 6.776959041861579 8.527176352201462 4.25602404831308 0.42927112669797685 0.1741341322456743 -0.6631186156438837
Ni 2.6169704067025648 1.8148743142787702 1.0689810901692114 -0.17732178594503656 0.11582922585719407 0.18760568436954786
Ni 3.315260416281541 6.949121106364452 6.584478887054575 -0.17990548751181276 0.4681271803332261 -1.3263621869014062
Ni 8.560823905870254 1.561034315367836 0.5141391264279307 -0.42171542583790594 0.6408379498688125 0.40276382443606773
Ni 9.241792560393728 5.600843727727129 8.097698751854567 -0.5935599907184551 0.7284490614205776 -0.1929903457202289
Ni 4.19086664967259 6.1421055613395295 13.190337677560585 -0.18777563428850888 0.785664334289305 -1.0679066695988317
P 2.4718277784326097 6.2845443683325275 4.591613332471327 -0.03649912336729843 -0.29478083409616973 -0.2925591438545026
P 8.028096008163248 7.136032140402391 6.46263981841539 1.1523249852449122 0.32954857659465825 -0.16081941741463918
P -0.1697727502147302 7.141956137714056 2.6108661546391025 0.28696442337554445 1.1379396630575178 1.3928468008872013
P 4.5047821775809 3.181289827315677 10.129986583951942 0.15524526576097136 -2.2704689537327414 2.2418068099113584
P 3.636930653824456 6.57901679254439 10.791696144838093 2.7167468994013597 -0.3316216570736031 1.7465156675688307
P 7.400950295934188 5.442745289171757 9.579809650740241 0.12479620524249474 -0.1399284328982429 0.5377613956915965
P 6.599999572245771 1.5480503402774515 1.98214790746598 1.3092270698830162 1.6629671561222135 0.4778878592644156
P 7.83042601862742 1.470550185273022 6.7992176872280226 -0.21159227709213235 0.5789340132751642 -0.33017206911127006
