# total energy = -340862.7281255132 ev
CRYSTAL
PRIMVEC
9.30471583834940 0.00000000000000 0.00000000000000
0.00000000000000 9.30471583834940 0.00000000000000
0.00000000000000 0.00000000000000 13.61839216451478
PRIMCOORD
 96 1
Ni 8.754723545871391 8.91112651718534 1.7082639768631902 -0.2163873844879306 0.7284030386739907 -1.370862840416942
Ni 4.522268767626502 0.8904408512230335 11.125313956399596 0.6263667528358309 -0.1191012117402465 -0.4599950381443949
Ni 0.7272761427888611 7.275869203034 11.674721148052909 0.5046031637720729 0.40499759886259284 1.3636205570322322
Ni 3.3574206757815452 2.9487947677427946 5.524804463023269 0.30321610934771653 -1.1416405089478725 0.6999165011985237
Ni 6.082799907548422 9.073065794521764 0.8109143740070668 0.23824176135886063 -3.0906305504679676 0.9248528036977297
Ni 0.7363073001425001 2.521010449451476 5.032022981556481 1.1863550782464278 2.9139047462357173 2.0234936691556245
Ni 8.750303805769414 0.5141078905483254 10.986160998085762 -0.17193841014593614 -0.17219449202080023 0.19815003554429744
Ni 3.8029676969248087 5.585751283322126 12.64844944270079 -2.4450391450745697 -1.8910160361084725 0.395356476228403
Ni 1.0435983375947304 1.5011577470993656 9.123382907257467 1.7608647372016513 -3.9748144156914256 -1.6600690086388121
Ni 6.217922993360854 4.093637720178805 2.3428809662678107 -1.812742914128181 -0.5015471505545684 -0.41058666291459606
Ni 6.96538013469114 2.347114612049704 11.778956298617924 -1.1884767525751208 -1.0185358324751879 0.6472525951459047
Ni 0.061508825145508705 0.4673926333778329 4.548229855749713 0.3105278125177814 -1.4073377954145245 -0.56339375154772
Ni 5.9883849542541965 3.7554019887115357 9.565558829792423 4.274421724641961 -0.9627976583726192 -1.06270069991786
Ni 3.337136394892474 3.1889960113902207 1.0146802107253974 1.4816452478788482 -0.4866558352650329 0.8198098698227624
Ni 5.502083277012707 3.8500216457578524 6.712151358166288 0.1452282478446015 -0.8617754156212707 -0.50648084041076
Ni 8.80174027584042 4.575566180898339 7.956994884913821 -2.198711007163149 0.14883936223462754 -0.13579049947046937
Ni 9.189793456793968 2.110076971843694 13.063034090868605 -0.6353913249319444 -2.421708440768429 0.32358618836363623
Ni 1.2249844713798521 7.475650760359349 0.6410521309930989 -1.4011465790021482 -0.5575465487383237 -1.5620207609141228
Ni 4.570495110676071 5.802458119059045 2.0261856523501747 -0.9702204331992517 0.03704162613432975 -0.2853762529528182
Ni 0.6165658403565478 5.4584999872492155 6.102211406076304 -0.6846608605910338 -0.4732709293176946 -0.7084299379861735
Ni 5.891969487019076 5.249664941251817 11.586664107204326 1.3087840688083268 0.3246819925309763 -1.1361542890223209
Ni 4.199413731714112 0.8593845006159442 2.2564587640211604 1.8440273260637596 0.10175037916662477 -3.2190170441648824
Ni 8.23588327676335 4.05147805196395 12.250138742824252 0.7350094882469147 2.6383074270465334 -0.32307968104086293
Ni 6.759066666730869 2.0505640082810777 7.800247639107719 -0.4633187032009892 -0.6091267348084606 0.3315913180562999
P 8.04891431337573 4.719175167706566 10.148507661697536 0.35048738362985443 -0.5142090622929532 0.41712317848153324
P 1.3418703138241272 3.538341573766459 7.003911894135973 0.3875002134087778 0.21387901624378008 -0.6740054377597167
P 7.558983796892619 0.18015698080097195 3.44986582069769 -0.390805623632927 -1.0049861188152112 1.3572989856895785
P 0.5841779848892631 9.11726319554153 6.576308087335135 -0.9083038982001131 0.6765778264725832 0.2816959758877536
P 6.431019599288157 1.4429195296293196 9.980565912066826 0.3694850077782798 -0.6787573506224053 -1.5856952217129272
P 0.6627600334308074 8.53827724218259 9.683916678308556 -0.45163920998053186 -0.09928751944842902 -0.3982019160969981
P 4.1168809007572005 2.8556731699731484 3.447210254750102 0.12430126788394723 0.19556299154341159 -0.9660699013659879
P 0.14276784048145033 8.828416896624349 13.027598940909957 -0.16624855885001047 1.659903172484909 -0.010713529762762193
Ni 1.7349294319879158 1.1595350990065811 1.0459310298969737 0.521922885997443 -1.1315998368824187 -0.0028179290647693403
Ni 2.572195692190368 4.839392098480331 4.606666263670648 -1.5835822891349824 0.2053288126809238 -1.7943279019561031
Ni 8.29940657292376 2.4459213912978943 3.334136554452732 1.1431001242125347 0.3303664445102633 1.552245940915546
Ni 5.127438191821154 1.6071849859667842 13.622749977382929 -1.8523769835800357 1.3627178427123048 -1.1617030840257023
Ni 7.062028219826364 0.8933811414803485 5.536911759487883 -0.027679982413771682 1.3282311217893448 -0.36400855804474086
Ni 3.84733258283265 9.384364373156986 8.910350503870593 0.5693229725479614 1.0644148543954894 -0.8835128072983622
Ni 1.2457246833531277 6.462739376146343 9.642774946024556 -0.03251391346730529 -0.5444426643665139 -2.4657900044686762
Ni 1.1681884848904511 5.0340560620033905 12.74591634284438 1.36399593809378 -0.8175745527343403 -0.7713926548616391
Ni 3.197407474657983 2.661232519634188 12.181706278500046 -1.0287613668579378 -0.08014925595708132 0.88948676549361
Ni 5.651517016039539 6.796052912847411 5.978651290842244 -0.6827975821300499 -0.4223492027671629 1.3686776598401653
Ni 0.7720662542180926 4.171834553477777 2.953951441352301 -0.87878969079108 -1.043335408017371 0.14322792958512107
Ni 6.789530306928494 8.974305538853596 11.823706399768339 -1.6089757895074226 0.8228841378727119 0.22086136109888413
Ni 7.887263482235436 3.902035008221114 5.57938685757528 0.5129204253885166 0.5653601312454715 0.32811750057508654
Ni 2.951772276864127 0.7513167375288129 3.847209760581395 -2.8870243769051056 0.26769529073328735 2.0498793582380053
Ni 1.8844934370388053 8.246965193524305 2.4849211779577356 0.7744157579586792 1.1413551164969697 2.511456139047223
Ni 4.065360688242159 6.993378025147662 8.747447257956138 1.3807669869045318 -2.1662017216815337 -1.7397801486172102
Ni 3.0518444974888816 2.2156575843429125 7.896788720008896 -0.47709338838757837 1.3061144923959636 -0.3975509127765605
Ni 0.7549046360200174 3.0425211720527128 11.13773389132195 1.0247872127015383 -0.612858433936751 1.9083182748323457
Ni 4.188583042285267 3.970843383071888 10.537067949673311 -3.5745797854351147 0.35329451406134643 0.29520763722094323
Ni 1.168625806542647 3.849026041145407 9.206060891784045 2.414197734213681 1.575053682838681 -0.921136274078091
Ni 3.347297144769018 7.358020540634741 0.6293021356230439 1.0966508316110597 1.2290767854846703 0.954383466166995
Ni 3.3660089286533865 7.828411153509115 10.600692667238167 -1.6665337904275492 0.16587780577415304 3.396340372771815
Ni 2.2377935037168126 5.220224819814651 1.3360557967931268 -0.26854709721062137 0.8169567166446834 -0.5524040853054358
Ni 4.974487270144749 7.365231695537966 12.755544862965486 2.370573826876143 2.094541219921754 -1.4885733424572494
P 2.797723398699231 2.0134847150044943 9.99058895214651 2.6445847754148133 1.1153867174576662 1.861623698989284
P 4.791240193158795 8.021912027531654 2.5684831105047072 -0.23623810066527057 -0.6959685722943691 -0.4680335921781552
P 1.2006712484609783 3.200133756447202 0.6317762596085504 0.1102555884241585 2.1034362084185387 0.4244179123707336
P 1.4693356183651336 6.189953017052344 3.0961963567943176 0.48808485440207555 1.126085334822093 0.9506227135729821
P 1.1920829955891377 1.797968882916109 3.1650782389015237 0.062346166337389396 -0.3257885953315938 -2.0596814319300916
P 3.9339780982634003 7.848741957978207 6.7929088493096055 0.11704432921121777 1.5334000118536366 -1.3041722810679282
P 3.2939159890531444 0.08071189803489692 12.740428421345126 0.5240311905896975 -0.4818730691644088 1.853103577333415
P 5.497328567134581 7.854948203552983 10.278836027353023 0.8100448200161985 -0.05181698467129141 -0.012968130124893796
Ni 7.504523294120262 8.831487452905723 8.864470810197274 0.624743101189479 1.4104110350232097 1.6513221156841176
Ni 7.9637110289256245 7.969219420800089 5.701231183178172 -0.27569219289583485 0.7447485699115496 -1.2914910860558337
Ni 3.4162543950758577 7.115790868898408 4.206953343092284 0.32592974889514836 0.11623031795035467 -0.07361222616951194
Ni 5.075862151010087 9.000368048381251 4.551607467659224 0.4376025293818076 -0.3486937820645414 0.2637159943705652
Ni 2.7715120137155083 6.046288201948093 6.504007652567999 1.3835604904892689 0.22652884379730664 0.9840863925480665
Ni 4.860318404773689 4.873800938263719 4.628442090535186 -1.9782458530614186 0.26532319095668494 0.5137262091192636
Ni 8.57411900823062 2.3889858340684302 9.505283809989066 -5.67721200989512 2.4184529099456094 0.5158396559178406
Ni 6.818356317109386 6.653011513715438 1.8245785097448097 1.2993972282767878 1.233978336551346 -1.4003747338331303
Ni 6.161387538919568 8.769676224490079 7.174278452757366 -2.046726671541636 0.6011640283179581 -0.7303791885637549
Ni 6.034992276719041 6.4527368064418695 3.8374584182090334 1.4994825331705852 1.5717081634052157 -0.033824661858928844
Ni 7.896065743575372 7.258739220870339 10.615496470400789 1.1135159827975145 -0.09333155897531023 1.6870902744226621
Ni 6.752730155132037 5.096239479059201 13.76764952830093 -1.7768107190079465 -0.3076931712824636 -0.2526733634031584
Ni 6.893175538498848 6.13446899551953 9.06697585789704 -2.1277699000678965 -0.25704809543208634 -2.5496588753691896
Ni 9.008760902217004 1.946099961702358 7.150963625865739 0.34567196451908205 -0.7393515672656944 -0.6890227371041553
Ni 8.934099860999615 7.2469408409770635 7.66003208222621 1.1909175008061295 0.16887365517768338 1.5240185706387366
Ni 2.0546301691748963 8.134778232662132 7.803734116194478 -1.1744770958619193 -0.12588403899003484 0.6806429976808923
Ni 6.477143076520785 1.6211141458250138 2.4204376351056966 -1.8499871431916206 0.06868444985059138 -1.3538699054033716
Ni 8.250156711113734 3.5799801778850813 1.2544636726242362 0.8073996690838676 0.09042055597610234 -0.8309471173865044
Ni 8.804736394393759 6.193795864762063 0.11536359090599428 -1.1088136922258387 -0.39631626903851097 0.15237000109570534
Ni 2.761072122358839 0.5150030042279258 6.051482094421616 0.23896218446465298 -0.7965843236359185 1.2403096780860123
Ni 1.0753739427489415 7.599868719014903 5.021823151872719 1.7825699900892267 -0.3094158104005252 0.9822123154538053
Ni 8.810775155080458 7.365827197362233 3.4701705719619707 -1.1836209671447162 -0.9111102573006565 -0.9948158631504287
Ni 6.0373649793001025 3.112520550552018 4.490296832964604 0.7727301427261402 -2.723792750504548 -0.38721224985471375
Ni 1.7307609192180515 0.6000723007675715 11.31810953294902 0.8804843048846835 -0.7340805486747422 0.5986618307213948
P 7.205655816066599 1.4489117667359994 0.31571645779399843 1.5379873741140029 1.5309821464407634 -0.19030431424763355
P 4.824774389637794 4.964726623056384 8.267698892196378 -0.850753096368838 1.2274312794614475 1.1996890763511725
P 4.803699207888367 1.4668419544760185 6.938053114258518 0.7835953675754183 -0.37381345995030457 -0.9492970527830232
P 7.843745325483973 4.975864368113365 3.175591637514626 1.3345732619572885 0.42382707286427007 0.6906453603092427
P 7.578542309933366 6.047665299916709 6.491860345824567 0.6417797449567915 -2.187034342156169 0.424836745075707
P 7.150143880385772 7.417282276865245 13.210208644849626 -0.3342254132450373 -0.80824427647235 0.8417187540807116
P 2.499674735653934 5.417317314214796 10.913656790038136 -0.2327365152699153 -0.21736131836542563 0.4083071228518001
P 4.992073183392614 3.8167758954749837 13.061223393134195 0.6465807658898607 -0.959538013784741 0.3030677566953103
