# total energy = -381164.60494799213 ev
CRYSTAL
PRIMVEC
9.30057733216103 0.00000000000000 0.00000000000000

0.00000000000000 9.30057733216103 0.00000000000000

0.00000000000000 0.00000000000000 13.61233504239247

PRIMCOORD
 96 1
Ni 9.071569194130037 1.0656043446259804 6.324113552946811 -0.584350042084413 0.29888791428600786 0.2714488442384486
Ni 2.108915205441773 0.7451018002617826 3.4910600484982255 0.33567140166294446 0.8632681981167133 -0.7400228823011061
Ni 5.01994940033947 0.4766564472127221 2.9540400643755063 -0.36943615681821534 0.6964437121585748 0.6035698095459735
Ni 8.187102893178325 0.739268478173443 8.753016980827582 -0.26589346163785815 -0.6212664554947882 0.02552745484714313
Ni 3.4503467713271374 5.514898223003955 3.66968135595262 -0.08146488944471131 0.6779937329835033 -0.8069093597110103
Ni 8.86034378286046 1.264552993847395 11.755871125210502 2.1637959404535185 -1.4288360744976167 2.178284106767365
Ni 7.754979470237585 2.7464697799884497 7.6451229111766015 2.1202270547236326 1.2253150044493928 -0.960057633733637
Ni 8.659925642424188 0.6378642837710737 1.2789846996581034 -3.655708631696646 1.8019000578764062 -0.7576544793399402
Ni 5.004231424686896 6.33643681788152 5.9444249247599625 -0.3520015062815357 -0.8591333500127334 -0.6664211976545555
Ni 2.1432343357127754 6.486808551816906 11.475348042467694 -1.9383094218777972 0.020798424802589987 0.6092619748347442
Ni 9.076079974125006 5.33977765284875 9.95534074195675 0.43110920834798017 -0.344970053356051 -1.721002868009707
Ni 1.229061990835431 8.663422659492454 5.359829697527417 -1.183948268577148 0.027426728752385023 -1.1736165476338367
Ni 1.0424087048167985 4.674749172930652 4.977322994415877 0.2980908723060092 0.6074133516617797 0.3612523354558424
Ni 2.198981996104209 1.863854293921271 12.233106068331857 -0.45337084795965793 2.6526912065720314 1.3032716236305295
Ni 2.8303609873175675 1.4787359887013032 10.001404641253831 -1.8237847737646398 -0.8016403980025872 -0.8338470646421188
Ni 2.6914940675136805 2.652208428959557 1.445929132300779 -0.26313235395295326 0.5584947715842059 -1.0442221814976984
Ni 7.227181008516952 6.362459833192703 4.617535741555286 -0.28645585917024213 0.7512213221200869 0.5349475803918851
Ni 5.5743661143190755 7.678565927065076 11.34642529992282 -1.3777659952946788 2.356375423888574 -0.9966914829065867
Ni 5.921100936983914 1.9407607676911685 8.698064519796086 -0.37836534098704516 0.2739896083824313 -0.15631561600701468
Ni 7.259816734294987 2.3097611724342673 4.837197706502052 0.36797217067817917 0.5040128384862416 -0.5324811211292636
Ni 8.108810633389353 4.5057390820676 5.973678030570635 -0.20542651460105266 0.14602554693491623 0.12256268792628569
Ni 8.987278061976623 0.732103313414424 3.6835661878175467 0.9746324462240182 1.9878630644362085 -0.884700142738244
Ni 7.172661024330335 1.8606455947495921 10.670437019703545 -2.3223556152997036 0.22646765154206805 0.2503349450779689
Ni 6.733515665521138 6.285897480783247 9.759308753779505 -0.5789026458165967 -0.002610955260285826 0.457220046502419
P 3.02056709386832 4.10809289921212 13.276546207172247 1.1415368934904728 -2.7642850541916393 -0.5501356009862332
Ni 3.619980000869907 5.435220177195912 7.636465933817184 -1.4594093192987834 1.9779141807536131 1.2651455061827694
P 0.8208931348123052 0.15880363732391958 9.47234781142326 1.2381296397155581 0.9938576130022173 0.07142241760704474
Ni 8.076119104147464 4.291081757770922 12.219167293118536 0.32507794241781435 -0.7302519189572714 0.12953012038305434
P 6.904367270691415 -0.0925147026102218 12.797405575760235 0.8099656300388308 0.9676056212842239 -1.285639255260747
P 0.9795461027838155 0.517262767744754 0.008914603350882419 1.5939350931242162 2.4628077819119003 -0.2737561522153866
P 7.533904747597548 5.37221806650329 7.95438198763169 0.3256209594054779 -0.39937536757980896 -0.8760211269070074
Ni 4.688672137162547 2.6109417674385713 12.279959586642489 -2.1449816359604927 -0.869669987877999 0.3351674654433324
Ni 0.9374051869957631 8.617942836450393 1.8240124808440565 3.724729381840734 -0.9880266081427372 1.357346293987746
Ni 6.757455351515057 2.4347981337793514 13.216964848813955 1.1409612234926607 -0.4699014986248294 0.4362329027277907
Ni 2.576343619848292 6.041394603901298 0.026663825087788005 -0.9243316410869372 1.7945801271762254 1.6362302543480016
Ni 9.16642578210672 6.745745924682756 6.029284322186969 -0.11444057303978356 0.1137386618767525 0.6534062734521263
Ni 7.272735236177487 3.868900651973733 9.581640755499306 -0.015589112687508639 0.6700834769974912 -0.13763475176805975
Ni 6.765202732413633 6.3049264619579 12.430131358165726 0.31540339544252777 -1.171220022377202 2.2127579721745176
Ni 3.5263324879434226 4.19373261507537 5.795751476241239 -0.46808527135169703 0.6533407103215135 -3.213031516005408
Ni 0.9328293029596294 1.9702901006479256 8.26131219952855 -0.17291157269248283 -0.11659567170957338 0.5195219898654343
Ni 1.9878030877211772 0.3619654480664084 7.178642225597891 0.9591443778907482 -0.37158277084757296 0.7292643582330215
Ni 9.10103342304563 2.893018976649748 0.28611086959018317 0.5822278535350877 -0.30425920590025024 0.1266283733552271
Ni 8.900299062980846 6.458851016425406 11.868907551653505 1.3346514234933917 -2.0451395295601746 -0.5512440035590636
Ni 5.788632814368767 4.164333490200941 7.020275715407505 0.7896341175703304 0.15968273270703465 -0.6266678290160175
Ni 6.139701706059699 8.766407952037389 9.067285348221413 -0.13693772570103513 -0.6742129257848324 0.21151565821792606
Ni 0.20767259073745803 6.522029838086903 3.7527029593033263 0.8959325211189538 0.5454171124646413 -0.8462091857518974
Ni 1.357809882526892 7.262802219611245 7.860565204198177 1.2647372150007572 -0.15666631447821405 -0.8974535857491706
Ni 3.8364137354326453 6.487301482414294 10.155673317081776 2.235387536648576 -0.6886512126973494 -4.305850375464887
Ni 6.320002697776138 5.807150263791414 2.5731944443713917 0.21918525894804186 -0.08166826370476903 -1.737330915745769
Ni 6.1107490088961125 8.2834661746791 0.9365151217472713 0.030051310859425664 -0.5275186349176657 0.44203511123186456
Ni 4.441723208448274 0.48251581091752743 7.637377390393487 -1.100412355536021 -1.1068213443861583 0.3706288915747359
Ni 1.8057628880479153 9.039370595485535 11.839178256284603 -0.8064038808295015 -2.080902288982081 -2.096208580321848
Ni 7.821032170287628 8.868900313984938 5.0739569227163495 -1.5443734801460047 -1.227442592315357 -0.36331461730150977
Ni 0.9310249909616417 4.205832666154659 2.0959185787098757 0.32690393988295957 0.8780325009100813 -0.5769838315273289
Ni 5.084793025339316 7.353064322397175 3.371543909843891 0.019375062092502116 0.63625033049813 1.0754353738757092
Ni 2.45791006839275 6.7313858333173275 5.504978227245947 0.24307260708860073 -0.9393571679614919 0.44649880343017295
P 1.9907978736147443 5.64691061733095 9.384738233285919 -0.6326055346566912 -0.618213013380445 -0.7975849969862908
Ni 6.803939636906513 2.1136119969829266 2.1480808665486073 0.6871476315686295 0.15287188043278835 0.8055788138250448
P 1.6411612708294312 6.4266896200901416 1.9504166270535956 -1.3909940639491787 -0.24323921457345204 1.0040836616055997
Ni 9.32373574671478 8.028639656983923 13.177557372697082 -0.8953617362171483 0.8023903887947342 0.7870087641323414
P 4.178265755010146 7.94966845505138 0.03990040671426256 0.1744568056924157 -0.5537454298246786 -2.674508559557439
P 7.099781700535328 9.018565204044823 2.7278983872174094 0.4690491779268632 0.6359345990299241 1.6638958385840699
P 6.945689735676256 4.4532559243117005 0.8209368475256585 0.14797547157243549 -0.3905773096722047 -0.14753966958659753
Ni 6.0190546172045645 4.223596768815259 11.4942282144054 -1.164007563789163 0.5193744085439764 -0.8986010690900523
Ni 3.602848337466333 1.426085420553838 5.663003406249086 0.12240739329534403 -0.9552404148506516 -0.7507644370883264
Ni 6.462878166400296 1.185023757276299 6.668914785589063 -0.012046132531256673 -1.7601862230773881 -1.283959553565479
Ni 4.846093708698317 1.8358502556432255 0.9509533379620964 2.1381108769825885 0.7428546953229465 0.08401131001564886
Ni 8.935027418653453 5.739200245970289 0.5313438417909053 0.5607807394049052 -2.182299398574345 -0.3513854699640916
Ni 5.62298953249165 4.5071527698186005 4.408272752097952 0.5614713377140267 -0.1368179122937192 0.2721317292380862
Ni 4.04069161545224 0.054322811947662 11.813397055983458 0.7847341091655518 0.34414190102780085 0.15198227873898343
Ni 4.838495137036689 3.81610127458932 2.032743477279303 -0.038103491739940834 0.4192633647529876 0.7980534519822772
Ni 4.400623957318854 5.894296673178756 12.068587226251426 -0.09152613033545529 -1.5814634430197667 2.360931932911005
Ni 8.33417292216894 7.4525153955646095 8.252628250494936 0.4404309999695382 -0.08796515245707431 0.9112254427222822
Ni 0.08251472188735401 3.0982920184414287 10.276645926142734 0.8309998250013109 -0.8410165858073644 0.18373206034675454
Ni 1.604563499117671 2.517433763171725 5.756874133030991 -1.1827815019625565 -0.20452122917796392 0.6128430073177833
Ni 1.2090285473113824 4.095016287515364 7.882345296140897 0.40622992860779716 1.9889514124043808 -0.36275900190835586
Ni 6.789886464592289 7.689866128495772 6.706062221419798 -0.4962344800924035 -0.26341388974911406 0.7719449278206834
Ni 7.765721637029729 8.229671635522601 11.016598926806134 0.3939814502577473 1.5103621561975666 -0.6339923877018888
Ni 2.568596238949716 3.352923224013112 3.6420623615751753 0.6691599367419572 -1.0118005706338833 0.4388160900739346
Ni 8.413599852389634 7.421674681207254 1.7547799134119921 -2.5231418029152675 0.44405034188968046 1.544923953332836
Ni 3.1645121288830382 8.491957216219769 9.569417006741805 -0.5006092121213315 0.6691591654110088 -0.8930654839838038
Ni 3.2752634034811683 0.6243821669036359 0.4274582533624374 -2.693765865125154 -2.356387250963116 -0.2748902658198298
Ni 4.949497527222167 4.461049808096822 9.2139033691548 0.3568032985455532 -0.35762785132937763 1.135592760091896
Ni 8.049472950156563 4.5830082783525565 3.1226288390864507 0.47212730263155467 -1.1029526054593715 0.21089962190048195
Ni 0.6424438880381311 7.505733298927937 10.043997565099112 0.18389275429433494 0.423926831666928 0.9215597347687549
Ni 1.103773913902998 4.330832425190506 12.242811220754023 -0.015896359515282298 0.4104730201548673 0.5176918786352309
Ni 3.3643164312169 7.7639266256090504 1.9173651654698387 -0.7564337195589618 0.10041006308864642 1.241802717691771
Ni 4.950567093612728 5.893906048931769 0.7589382691247015 0.03503822255105578 0.14299858718313438 -0.1668622811746094
P 4.989183090600587 2.514476179587395 4.5857919411412045 0.8082437622517177 0.005846431478447996 -0.924549156414382
Ni 3.7648085907290003 2.980835027603354 7.497088412319021 -0.5622871487471025 -2.017462118249564 2.838662954882582
P 4.566471851896773 2.499809169170763 10.10134585484546 0.7747654279886141 1.0749044410729036 0.9964744817997742
Ni 2.913517449039257 3.841175631014963 10.80752659918364 0.15351079956836788 0.8242326814808062 -0.5423135338386531
P 3.23923296698527 8.542849975255793 4.413459684063302 -0.36860671893838454 -0.6541184690278026 -0.6064831265380265
P 0.1538436394449153 3.085392117713547 3.7842700487485326 0.4087251842258251 -1.5603546860656095 0.7354167509876625
P 4.757189490199532 7.562736537256114 7.799227896843905 -0.2432001338054005 0.14321584540026303 0.24920777345206116
Ni 5.068730928326302 8.567654614939467 5.353677365637371 0.7889466045850025 1.7661462973155648 0.9457628143775195
