# total energy = -381162.73411092866 ev
CRYSTAL
PRIMVEC
9.30878680063524 0.00000000000000 0.00000000000000
0.00000000000000 9.30878680063524 0.00000000000000
0.00000000000000 0.00000000000000 13.62435042932801
PRIMCOORD
 96 1
Ni 9.091017202179467 5.746239722843979 0.958048252955591 -0.12114601008441718 -1.0971609384782588 0.22190985696805654
Ni 6.466069601229054 1.487525539341223 10.780444745506895 -0.601793434371841 1.369324549395545 0.3612903877826294
Ni 8.705791671230658 5.48346197562522 5.744366794906738 -1.7988723267936761 -1.3291317792267432 0.5508794211307931
Ni 6.95200689834598 6.945313880518557 1.2001865577168271 0.6214083803892911 -1.2473467874384518 -0.16466604485423897
Ni 8.832400482733805 1.8353855994148296 10.991527075197414 0.9159333897209129 0.9090847422301955 -0.4390063517078698
Ni 7.778450313834616 3.073491500831243 9.238958029890291 -0.3945257527969915 0.8633314472544809 1.3087683850790428
Ni 6.490514475797635 1.6535198284908539 5.3068891809692165 -0.6272481269995197 -0.5187195485687969 0.5211862649417347
Ni 0.9898684794360858 0.24391442131404856 9.723181579327067 -0.4238252730920572 0.7557243521967629 1.573262909486845
Ni 3.4916329024862596 2.907999886177691 7.5667740835357655 -1.3955307754772677 1.4992102533458052 -1.784367962529914
Ni 4.638633705881843 2.8731105526350253 10.980749361650005 0.992449419800781 -1.0703247921220211 1.6340203911808764
Ni 9.188945641045219 7.637552514341075 5.29665696233792 -0.2724037519525502 1.0163475665746176 0.700653122254232
Ni 4.5796253053143525 7.377055419928601 7.967547150472558 -1.2837937174115759 -0.7684970784813991 0.04823723773983305
Ni 4.037323303127831 5.438137491895433 12.985409666740727 -1.1638101030663763 -1.1257271801517257 3.355801789227821
Ni 3.131131509714964 8.812181797447074 3.319845755208667 -0.31662672632666766 0.35369894858861667 0.40303996091558975
Ni 8.618959306426499 6.270231341071476 3.2369956894678897 -0.10043371723773026 -0.08909798050993688 0.11396389051368114
Ni 5.528665445124468 2.449328026079567 8.365201773776267 2.264604781642481 0.20948680071335535 0.413125884396682
Ni 1.2372588018026507 5.104194068333642 12.670632104659992 0.27166327424209985 0.45365058398360575 0.3849069987603048
Ni 7.858915468355107 6.933808219830528 11.958474528490996 0.5606755812856086 -0.25043933186631706 0.8273437163059623
Ni 2.7846305325381637 1.8460907044239185 11.717159120497415 -1.0305683381596895 -0.47447034894243445 -1.0232684620641668
Ni 1.099153638398438 3.632875127097484 10.86615540148184 0.5187221196719584 0.2293593712675663 0.632175389097808
Ni 5.1614896520996805 8.563581332775133 4.384124954123583 -0.27185739253077695 1.1322122736554372 1.0956966952279066
Ni 6.032941052561312 0.5468949576747681 2.5769915231457836 -0.9104296862938642 0.27112977033613306 -0.35843723460455046
Ni 5.727380120454054 5.147033105943928 7.786847770555224 -0.7788177436811167 0.5894742506848557 0.806288695407876
Ni 5.950548979139185 6.628991990680425 5.731192068715987 -0.3231305888834564 -0.2923308298937804 0.682308044088141
P 2.898849348591661 8.816975822733752 11.092210915004637 0.5608820408694598 -0.007474454000174224 -0.855216017236198
Ni 6.606297168061156 4.009629661908666 6.189978426893773 0.8609092109662335 -0.8581283057869865 -0.9595362140125283
P 7.9900111151751085 0.11180504759362211 5.9158569918801645 0.26964418692954206 -0.004523341791650275 0.7764371592640821
Ni 7.816011269236072 2.050074153175369 3.2841493498361856 -0.1516745176905775 -0.7961824602118095 0.6287200835593559
P 0.7009637598442736 3.1848897544345194 6.702635666113386 1.0801687747956366 0.15476369813886248 0.6840887901376476
P 7.6316135082577725 3.956578884998407 1.7566016118201129 -0.42889908807053867 1.5253223770518245 0.14298470322606344
P 2.015501318389493 2.977350349062659 13.428909134965537 -2.232666795283303 0.7407636171218727 0.8234387248246012
Ni 3.6423887073751264 5.802920926670365 6.187716391661418 0.5601922138912869 -0.2040499459685002 1.0023440532066739
Ni 1.4834110555029472 7.217028063223166 11.694188757784001 -2.1178657535803076 1.5851804868600377 -2.4252403651810877
Ni 0.04780248281971645 8.015619588114243 0.16469757512548627 0.48200496675658283 0.4866818034069619 -0.5818776692845204
Ni 2.223115194057069 5.167344879100304 1.1333876333388082 0.6978444491608433 -0.4478041525051578 -1.906013023737937
Ni 3.964119002439591 1.629335599957277 3.7001143570989203 0.8233952731811756 0.24277050246714962 0.9735996340841298
Ni 7.904928802320262 4.199975737757233 4.058871283193083 -2.2194973477808806 0.6275098653013387 -1.2548698352883745
Ni 3.281784917947222 6.322621194107261 2.8325838177067038 -0.720495868011772 0.798149097019877 -0.041420471928315765
Ni 6.309374790256884 8.450833305062016 11.238563663659331 -0.36317192107605845 -0.32312030447081125 -0.5840237690932458
Ni 6.295420918597211 8.863808329951775 7.445353059007892 -0.8175136175894179 4.218554995381328 -2.631836474610209
Ni 4.329702992893463 7.042888585479663 10.85625085215169 0.23064080908315115 2.2628957693711738 -0.8881024835515736
Ni 2.8886655356525797 0.19143706568079774 8.663711299757972 1.3561286195305613 -0.027486121235410728 -1.187562725401284
Ni 7.694857406894077 0.3040817658586111 9.302502602345546 0.7809941825071454 -0.1191534051344206 -0.776218872605689
Ni 5.395987304520516 5.104761904338472 11.326331561553415 2.8894728384455974 -0.18009189249100596 -1.3455441591464956
Ni 0.8964799359728824 0.056748227092529094 7.280199353321148 -0.9282880546315238 0.11494579481097623 -0.7168826967392169
Ni 4.67205225108413 0.15454820469817346 12.71083768643804 0.1402189675554682 -0.38405776338613207 -0.3745745064860453
Ni 5.381074627803507 3.859823353290171 4.046431951172521 0.6740843706267682 -1.0995456366603515 -0.21933438293139645
Ni 0.5201843243590463 3.265876201025019 4.544034089234568 -0.07772573411725324 -0.4457647534776259 1.770843188570602
Ni 7.772017942042198 0.516302560194881 12.46508198706243 -1.7270884120821546 0.3174854747825371 2.693416709315852
Ni 5.382666430374424 7.051555066143543 13.11891442762712 1.5669014860451917 1.5134490226530064 -0.3539208347914356
Ni 1.5315374841090257 5.698420484207727 5.240307151327468 0.3732668434182152 0.7346906714549153 -0.4488192240332335
Ni 1.8789321048344108 4.854634798604366 7.765144333747666 -0.7984200912930766 -0.7552636105102606 0.27320233659444565
Ni 7.413992686603439 7.137531022546974 7.320417967400948 2.1084673430845426 -2.216540836255718 0.4876145996338763
Ni 0.030245179726114017 5.787486957883348 10.551296852954513 1.7237292658019345 -1.918076125550058 0.655339228808781
Ni 3.1525044845852843 3.239392702111229 2.215823621227835 -0.6279960609091378 0.35058894220472525 -0.803835605881693
Ni 8.026101282236185 8.749384720585061 2.1309712354110095 0.642676545739448 -0.15153105013417772 1.3826158671878126
P 1.757508287670448 1.9163161932835424 3.5858061766905642 1.4622347045627204 -0.9033460399742054 -0.9783811146331729
Ni 8.339677079919813 2.0359341057764064 7.3623130940130395 -0.4669293033703829 -1.0395098636236935 -1.459072761894971
P 3.0701961902458366 2.3968264676002082 9.492575930736056 0.2308480399979508 -0.5655892165371421 1.8973748884469646
Ni 2.5547034945168603 7.113467808243936 13.468597148188364 1.667544748190567 -2.121886444703926 0.32457169220535714
P -0.10183254411863338 6.117055251571859 7.697158539031683 1.9849178657649558 -0.2652308883531948 1.3298617154142323
P 6.699412964066301 8.940093839125241 0.44408312916747716 -1.5585343450274192 0.17508826862882748 0.4262863330380401
P 4.59302064975616 5.769269661793968 4.326521249509023 0.40979836268534586 -0.08211666409609729 -0.41240289018772847
Ni 7.478400183610298 5.575386246898919 9.384002893976483 -1.1122707975365038 0.4042350096649554 -0.36680026185726505
Ni 4.327366487365392 4.240832003744096 9.427955262507714 -1.0716391400580707 2.413234856079779 -2.3796907015757465
Ni 6.410468216690542 6.929572721761715 3.540764680084496 0.2337706129613845 -0.5017844633763551 -1.488856935135939
Ni 2.36910490002015 0.11124558949706016 13.139623685986878 -0.6191393818494563 -0.36861263247565546 0.46397716272059447
Ni 3.121850649111432 8.737376385400953 5.948555036971404 0.7634001235744658 0.43258527867287433 0.32599016981943857
Ni 6.03847047201818 2.0061180611293525 13.175496027432988 -0.01932132603643124 -1.2152005417232103 -1.044898895849749
Ni 8.865763175214305 3.691045736838177 13.082932242494833 -1.4416008303624528 -0.6866830332273851 -0.5229968357879121
Ni 5.317877273102024 5.2378589403558244 1.8647510987728053 -0.1933119907257058 0.3484888651425869 0.24307414975049751
Ni 0.17227027332104622 0.5053926618725746 4.275429972254775 -0.03391799290368352 0.2476861946012121 0.6146373802140447
Ni 3.018150762327735 5.263458104507993 11.185483098630785 -2.3039282618324513 -1.3579042233737453 -2.548994245201997
Ni 1.0287885177343477 7.752832532108518 3.280403493961701 0.5702976777564049 -0.43991523667538435 -0.8979896607582986
Ni 6.038833514709793 4.270620122030256 -0.2408639318258064 2.4140704646071973 1.341503927638851 0.6965673822206326
Ni 0.42200547912394987 2.865793846080987 1.8990986609141416 1.4929172212482418 1.322933106615199 -0.0030783818150076016
Ni 7.849662534112469 2.0297158360841703 0.9859848535145275 -1.1276578215155353 -1.9663172199446326 -0.9048485926616608
Ni 4.061116562608903 3.1509499171622255 13.321277216568065 -0.6074169512062055 -0.3743567340482843 0.5951288778674718
Ni 1.0691328004381666 2.5486714005639124 8.930870693000887 -1.0806308020337194 -0.4325328281683841 -2.1421053428539625
Ni 5.131096462660831 0.2466893707081437 9.237800016791917 -0.6021608450135887 0.02620725452298712 1.2453559822606681
Ni 2.3372316134539584 7.064475662450166 9.477847568000945 0.20769962690594554 0.048336482321858686 0.3229087026806374
Ni 9.14685130639209 7.664296659289869 9.290757705832533 -0.5315958903108329 -0.45995338627318205 -0.8598648288621192
Ni 1.984019000875807 7.125792642184835 7.25963996643152 -1.089103615391421 0.9391139416024342 -0.6716680478757917
Ni 3.748564731491361 1.1425698208005173 1.227221136818911 0.1966269140315517 -0.7781052909951244 0.06514172680465555
Ni 0.7140602922245235 0.5529251898703227 1.9518925153041828 1.375123158355193 -0.47405742977473203 -0.16235539444319136
Ni 0.4769114972762192 1.3705792487071489 13.32968305119694 0.25128625324764464 0.8296991039120163 -0.2961792571055931
Ni 2.3214532195492574 1.734785538690286 5.847884229465931 -0.604740689925623 -0.14595175627418736 -0.5838183379506591
Ni 4.605205851892593 8.033362136068437 1.5627535703155293 0.8315605826007871 -0.10912353170224433 -0.17759869375550705
P 7.082925678213655 3.5875971873025194 11.420816680121026 0.43811006514584544 -0.12222870162563466 0.06695229765083308
Ni 2.9437549369080487 3.9194275162233856 4.554933747891214 1.0821662648416397 -0.41484543819095004 0.5720110609030858
P 4.617903037312069 1.2109056259063629 6.855201099188136 -0.1124112013145806 -1.5835650627438016 -1.1978908468001692
Ni 1.4458128649536337 4.692224392436039 3.0440748031449627 -1.5563478788990615 1.71389119666559 0.6541207830206477
P 2.4348714799238143 8.308185453619163 1.3616111633456216 -1.241460246750688 1.8995801236283996 3.023673110610812
P 9.114884931956253 8.846950116759201 11.414793894955045 1.4450774760571434 -2.175283629378144 -0.8994857856878508
P 6.278050722121593 7.573666309404225 9.289041165516291 0.260556365695661 -0.7059053717921069 0.19088538356208418
Ni 5.443908939813376 2.809224347698175 1.7072808658464986 1.115150433077144 0.023675232129752775 1.1355307965057089
