# total energy = -340861.25848275307 ev
CRYSTAL
PRIMVEC
9.39213230458659 0.00000000000000 0.00000000000000
0.00000000000000 9.39213230458659 0.00000000000000
0.00000000000000 0.00000000000000 13.74633499904845
PRIMCOORD
 96 1
Ni 1.3607415305848383 3.5862730417063204 11.144456323572873 0.04446440096096213 1.0688839459104367 -0.9129524527157179
Ni 4.214616089708862 4.507566090609406 5.163205492932657 -0.6855867148394128 -1.8741166892499725 0.31347044008587305
Ni 6.502727378843243 6.765584987615117 7.67538958019742 1.510114816073451 0.6666487402843293 0.00016429349200616864
Ni 4.647574607919669 7.874082019011538 8.396633027158236 -0.16852655625090973 1.096783243423866 1.5996902504404384
Ni 7.768345392736705 8.322669045493914 6.160062942856721 0.7457204469065157 0.6754735376648109 0.34416504095625244
Ni -0.01574590992625314 6.7500879691967945 7.514489203632783 0.45492945069602936 -0.3739548706241753 0.6927626637625618
Ni 2.467980016243044 3.591936497528289 3.42731871496973 0.01618895105503664 0.11045896268421622 -0.7232011827580771
Ni 8.080192363975229 4.538456813989929 8.057029487112642 -1.0066429376923438 1.1722415216631812 -0.09284870580162075
Ni 9.67464771657312 2.0989631352394738 12.329239071756653 -1.2611325283686343 -2.3492619527722445 0.8594678505340168
Ni 4.83532333409074 5.422566410821415 2.8065072179184933 0.6351642965228029 0.7836879272892245 0.4373839856130983
Ni 1.4870844952898528 9.133942655759284 11.334334246153297 -0.026086155564090555 -0.037518051550116026 0.5152508732939062
Ni 3.18807480541443 3.6915776298919156 8.001150995549121 0.2300877647931586 -0.41254867173697335 -0.41681875986723704
Ni 3.741571950522661 6.354876431000072 0.567304518912338 1.1302991157931244 -0.9717181007907006 -0.1351001582716641
Ni 1.671771386306758 5.097701944111502 1.6760767397873393 0.9621973057844591 -0.9344432755996422 1.1664683666248299
Ni 1.4654450222984499 0.12088707500852776 4.4851132589543505 -1.2503652625498016 1.1939624582800406 0.05237979915329689
Ni 2.173555450559666 1.6467413535280735 14.195427598220547 -1.6479503709984071 -0.809228237652174 -0.894793265308188
Ni 6.962265631674567 3.3247491157316595 11.915034763471729 -2.1554136299270943 -0.4377279992160784 0.22444805000887796
Ni 8.406860120101092 8.36010608513963 0.2352607062151727 -0.10389853585787914 0.3186864370691737 -0.27165453249135146
Ni 9.361354356948887 5.883532267773699 0.3698743826893843 -0.880442910123787 0.31338405101965383 0.9935519088363405
Ni 8.549582963667655 8.928010761310714 11.482094090312435 0.3079734215270438 1.532621224706083 -0.2136635577988643
Ni 5.32524513515435 3.9852414328529395 0.9127030046331475 -0.13874726810594815 1.407356564467602 -1.0392396406814426
Ni 7.6333616662469295 -0.13159504512896986 2.51153790855738 -1.2159065666512994 1.8607276695375763 -1.8389511970924328
Ni 0.25097656131782664 9.229009819656412 7.771861807097808 0.1537745947527158 -0.25846811570806455 0.2073527850894881
Ni 6.44501272540046 0.6041132249021851 10.2263115174418 0.47114231301046605 -0.4876125427513473 -1.2276611360840664
P 6.304046210587974 1.6616184912096632 3.6683743668601183 -0.2958563265485356 0.09633717857085343 0.17734544009412037
P 6.033740640842931 4.203129511814554 8.067490444151629 -1.7694110841097657 0.04926850721782483 0.06786992436909602
P 7.443819042792283 8.929438365431675 8.268489590676984 -0.3343069172152501 0.034275633353418385 0.22350548358995057
P 1.6121970906537766 7.08503958607718 0.9922947520164145 1.2936382143058238 1.3577322165722554 -1.2196513784057124
P 0.9126119009491125 1.832367457782453 3.1603511090706697 0.09788549689457982 0.365324448642687 -0.5532250385448344
P 2.1721841992329542 2.3952849116625496 9.474001714225054 -0.5504898990018584 -0.6328392479340521 -0.11969050858481321
P 0.6905706210513877 0.17881117300326738 13.374249045152776 0.1312203636012837 0.2755217287562416 0.38190369315760675
P 8.4745680023906 8.161049231589372 3.9589030760344537 1.531397379601311 -0.15583147728174454 1.402741948513726
Ni 4.677394628209472 3.2524015200490304 3.145340603109359 2.277671899239084 -1.2027219496402253 0.28688394784659627
Ni 3.441568458208687 0.8901600085072945 12.052676463423557 0.6751081839055922 -0.09652204088814989 -0.9323354852280202
Ni 2.9355109737252723 7.964274666206175 5.251113973533758 1.7503029025254049 -0.6575521772996998 -1.2108294092387082
Ni 1.4471867169619534 -0.19796642698155148 1.9715410145246013 -0.5700922466138182 0.3713518857836895 -0.3147444217022902
Ni 3.535029567469734 3.7601589804922737 10.360819062820179 1.2712364495718558 0.9071322464895152 0.45101237502981034
Ni 1.90770175156025 6.055286192510587 12.613362346651416 -0.8425541054978135 -0.2748445001835589 -0.4354605433381403
Ni 6.492677797202271 5.157144749911237 5.9981444591426625 -1.220376172386879 -2.0902253661552193 0.7663473791282479
Ni 5.3466310205716345 6.194421241509999 9.925844053788513 1.0417773195016318 -0.259124775455457 -0.18131599470609416
Ni 6.0792267379338005 1.5088178896050035 6.356525689445076 -2.0565099761806453 -1.0427260565681462 -0.30642356054142067
Ni 5.361329707738104 8.547892379840201 5.763728105627979 0.6274656423269646 -0.8860268319694675 -0.7270691503539155
Ni 2.3076844930033413 5.247910317180733 6.468186872821896 -1.4078407031928721 1.2932983144679018 -0.31298347314712555
Ni 6.905781347572875 6.8446385658133115 4.557940792601329 -0.06541889172544217 -0.21739808514063202 -0.29312632921188225
Ni 1.5973481293693113 3.7785863442115155 13.446555315452956 -0.02734676744406903 0.6306777215063589 0.3081685682569854
Ni 2.2798931733064824 8.54507474012778 9.190332079323992 0.09609652331495709 0.10133720288860613 -0.34575938202656586
Ni 5.753479410780662 7.551002057452826 2.6683423761933924 -0.11055615038371283 0.5197762719680855 -1.1710631850843638
Ni 3.868581756626283 1.2011598094056153 8.900284247327242 0.8955465985344448 0.4048929549639285 1.9113547476658244
Ni 5.923636673013843 2.735768494511657 9.804958857206461 -0.7709789643629883 1.5561535035000684 -0.6520536160789738
Ni 5.972062507538007 8.988514878068797 0.34162566614587603 -0.8118800734527243 3.3662715784108928 0.17247114272095457
Ni 0.7826276065224107 7.01599802099046 2.952244935977348 -1.2459805032185445 0.05781845367036494 -0.016409037485642708
Ni 1.2325483158019992 3.0902557467315033 5.2749361780890505 -0.49880481192274095 -0.41919008831289095 2.0810688964669324
Ni 7.288388644122695 1.2361548946339 12.874583845963608 0.17899068900702722 -0.532302172349238 0.48680084548332936
Ni 6.980232780907445 5.470203306226102 13.337546470258763 0.11086493987338326 -0.1387974046175932 0.4090995368461083
Ni 8.008135924396216 6.8752287409578425 2.070871267306624 -1.2696624202165165 -1.007645153704613 0.23710687642346903
Ni 7.700731431770945 2.936525324021744 5.952946700515697 1.293328910595521 1.9589882903833875 -0.6595779494804769
P 3.1679756421324847 3.560191090101665 1.158716763204161 0.7351609262231146 0.16323625438624792 0.7711638266802848
P 0.5624309414230849 7.236797660988244 10.451709545450257 1.4545381072494112 1.203970734445662 -0.9163411666822927
P 0.11647465121887449 1.665938872102044 10.173209340208254 0.010258444503214592 -0.6099646573287237 -0.3477226764005237
P 7.907264422691497 3.65028042384018 0.5902344708920305 -1.4389551652094896 0.5605601387536668 -0.11056000703845476
P 0.5088854555414496 4.297905519608064 7.30733163590931 2.4327896382832552 0.23909511049809143 -0.5949884956348657
P 4.804366865783593 6.454677229614069 5.3360798990618505 0.13555318664868266 1.2652223821672919 -0.26574202366165844
P 7.148201676297313 5.461196251278724 10.96424196599282 -0.015749292414456748 -0.2686584259775051 0.5216642330194177
P 1.357266441606184 5.349955835432294 4.396421474513197 0.7783117505789757 -0.07641498572562967 -0.48044687824084353
Ni 3.6695342952083987 7.251120662859724 11.821944643439483 0.21809228299417927 1.8495114891067825 0.15656038502796907
Ni 8.117967520386436 1.119711237451862 4.603812906332801 1.0579531579305457 -1.2646929920263832 -0.43646507334325474
Ni 3.036288554106242 6.329160772558032 9.768269431297773 -0.5859330703008166 -0.6617096511114992 -0.4745299985357762
Ni 2.034655204869623 1.675218298888288 7.33009534714597 -1.1432024541183539 -0.34582828759128825 -0.04685115602558383
Ni 8.252124739227234 3.456079302727662 10.009105307290593 0.7984784553348376 -0.19192436634955978 0.8407209089438166
Ni 7.847474107993897 7.230241952590674 9.595423201565705 0.4677001200981365 -0.23213616268175508 0.773205796810978
Ni 4.314125732219242 1.163178026082163 4.422828393898018 0.16744643581285357 -0.07578223723763722 1.9621522899336659
Ni 6.3819915171659485 8.208319833831442 11.582194497949185 -0.920692501672453 -1.7967807343719702 1.6015494151363643
Ni 3.7032802268308425 -0.05468944760487886 7.062853490981567 -0.822200481542126 1.6577529589111257 -1.7055916756609595
Ni 7.813164648428969 1.7419306151460727 7.903331936866194 0.3272579807882686 -0.5985906111638272 1.8262103524869966
Ni 3.026520736436512 6.959297717844149 2.9551179892707813 1.139490295374089 0.5782549849302687 0.05422816521594531
Ni 0.902095530329115 5.298355460165467 9.63290908029977 -0.69921741824897 -0.2268952259977899 -0.9538126812651894
Ni 3.5109857085903973 1.4929451858916911 2.311831119446789 -1.2472657976888712 -1.5616798326349361 -0.161856857540218
Ni 4.36022231791447 5.7352211054441655 7.5668212260116015 0.3263303267676767 -0.6304082698950563 -0.36098288384453964
Ni 9.403215090943107 4.0189122274163855 3.446893797265165 -1.5621557438300901 -0.6471896031184531 -1.477523769511307
Ni 6.453005430051365 2.0713784424548596 1.5676182735503061 0.8730036802369223 -0.6409922160584896 -0.3371898951899999
Ni 8.810317950522837 4.329829377549809 12.546596495239093 2.4036101885058216 -0.3859264411637547 -1.5395549757114388
Ni 8.731940605855623 6.675627143729848 12.056085807475588 -0.7114368431332974 -0.20963618180702606 -0.5494401175811054
Ni 4.924370141135658 5.426191773918065 12.127786285237597 0.4195150757524775 -1.302656358644034 0.6104413398548261
Ni 8.931363752568497 1.980490777464492 1.1727974480603727 1.363104279517446 -1.4556660502062673 0.4675034307062981
Ni 0.7148483440268554 7.2259591402277925 5.221023459831563 -0.61531178057325 0.6964149158031683 1.592221195756903
Ni 8.73367815034495 5.199831991554435 5.623543016229071 0.7761499670409666 -0.011489745807154405 -0.49985356490222943
Ni 3.1646320430070767 8.638075634902464 14.01823750726516 0.0005990670365796135 0.8125878981530265 -0.2971161670975657
Ni 4.460755702853697 1.8808214687037412 13.955966730407392 0.9677210638161658 -0.17934601546391693 -1.369486528894706
P 4.175263055058698 8.867497252420259 3.099193299899307 -1.216909553994517 0.1129588462879345 -0.005859544104570554
P 7.1976136847208245 4.955730471134918 3.4378623227736145 0.000635062480837616 0.3861601544411156 0.27526924642580336
P 4.510609141498822 8.767330160643647 10.545775508036238 -0.1352791070516896 0.9959142384209301 -0.6294873007426836
P 2.525009044022471 7.537712190142568 7.267041266448146 -1.1144631772021323 -1.1221497472131126 0.8893003605144169
P 3.863538181541047 2.2516322469908876 6.348360169558476 0.8743334547919394 0.22185354980882435 -0.11856925049617645
P 6.058009910899262 7.072069051267663 0.46295041452306673 -0.8891566358477009 -2.088109091143165 0.9678370205687397
P 0.12096972577342548 1.3606945699229644 6.247846508097237 -0.3562962770021477 0.031127060422107684 0.2887279430338705
P 4.781111946023735 3.2126540158391266 12.00837189658543 0.20036966890343555 -1.176722183142354 0.529582716535546
