# total energy = -340873.7511458189 ev
CRYSTAL
PRIMVEC
9.19413852919307 0.00000000000000 0.00000000000000

0.00000000000000 9.19413852919307 0.00000000000000

0.00000000000000 0.00000000000000 13.45655109523647

PRIMCOORD
 96 1
Ni 5.165193515475999 8.18704943923164 12.945363706030944 0.34737326348090497 2.5050736325596468 0.18989242352119554
Ni 8.156993800130172 1.0430198599653597 8.748359875823782 -1.3963931234775628 -0.6269758471747396 -0.7014141687899726
Ni 1.5683545516079387 8.880002471791574 2.537125306436647 2.435683672001599 -0.40966929330664925 0.4023421635176167
Ni 7.8964135237723365 2.9547387119352946 1.1705784195645752 0.18143915054751977 -0.2644197053058091 -0.9504206248645051
Ni 1.1242408804065815 4.4102719887148165 10.39385325033209 1.294052676135423 -0.09901292563080366 0.6049561483705387
Ni 5.751531316766248 3.2541642239014794 12.759582344298371 0.05961719744200055 -0.2889616563112314 1.0500776118372108
Ni 0.7783895655517903 1.1213079501914187 4.2049567601009405 -0.20070828318977693 -0.9998757941718392 0.4978635310553941
Ni 0.6712824478667081 8.514627403607946 8.086607152621703 -0.35576688686123886 1.5609393549244859 -0.03404937627522523
Ni -0.17110200003498946 7.536435414950154 5.764476663922829 0.335546446049306 1.0441121382823955 -1.5806797707762066
Ni 6.725236565784542 8.92964162612281 4.308208775468726 -0.21600686122006027 0.210741756166379 0.03540177653806161
Ni 4.355879464724521 7.215753054527991 5.163466856245882 -0.7228697675605873 1.60092875083323 1.7751446441594332
Ni 1.6000467473811886 1.8378807248289506 11.966090486673142 -0.24592601737699585 0.4022148939111331 0.3112523493886317
Ni 1.2175154165596491 2.264672638897496 6.154757734174967 -0.6045378298861975 1.0008499851596506 0.8156171718976534
Ni 6.086124408898572 1.921951928237886 4.507971663778723 -5.16189634480155 0.6890487052460843 -0.2828524580897
Ni 5.2020344288683456 6.820855607282019 9.168392259189543 0.15374065619098684 -0.2523720301126557 0.15841749284136586
Ni 2.368354939952019 0.6329484063648255 10.021833578178247 -1.4612126910561094 0.04687275329213863 -0.8122829653180978
Ni 7.704173279669382 7.745896280661261 12.350355832035683 -1.1288179032619075 1.4503582648401085 0.005405487286287465
Ni 6.625139978786174 4.336222396385905 2.818918299385153 -0.6622470116722078 -1.2899774776247848 1.7437039091516486
Ni 1.3484399503023476 4.233045772954686 1.4087525801407417 -0.04258261055721699 0.4682536786087613 -0.7198356087199538
Ni 0.2970819260356361 3.213498548849235 3.2849995259566946 -1.6250899214604657 -2.6806756076000995 -0.7084355944131283
Ni 6.358822559938491 3.270309131292784 8.818037655245766 0.9378430453098107 -2.802450252407451 -0.4894506244013506
Ni 2.0026948534716205 6.918157176144307 6.432097086382956 -0.17128303595012437 -1.2026602431643545 -0.04082680420837485
Ni 2.945204390201363 8.211662148278633 8.28129579583531 0.7308882669896896 0.6734253968865306 0.7729540858114882
Ni 1.2489869530063664 6.505349546894768 2.4880626245959756 -1.8121536172836143 -0.3418135100049403 -0.7705038244987827
P 8.967346788544075 5.105422420401471 3.5097778265846085 0.4440238595271191 1.821212127941457 0.10636319534828778
P 6.452207425754825 4.609040071227696 0.750703255968968 -0.7671786167802916 0.4494128917531744 0.20880597259624684
P 2.1881130467292755 2.049051700320686 2.5906149660158797 1.9388588666233644 0.09906280503213262 1.1271245747198848
P 5.921126397483791 7.042020611437961 11.251170818156883 -0.035773558055183556 -0.6954762060389829 -0.25133201888391554
P 4.603027104579681 7.505248896800208 1.7286286146071992 0.11324449584915337 0.4737159872749131 0.023618153639572228
P 8.13546112751603 4.234139875448743 9.658197121604925 0.24230641834653754 -0.7137451795514997 0.12867240036844937
P 6.800315901637272 3.6578788500701522 6.420672449751729 -2.2393359797733625 -0.1557106354331641 1.3704617483237818
P 5.86785555840337 1.0169912535731138 9.128237778243767 0.678475043495296 -0.3539126072613195 -0.47722297198690716
Ni 7.55041969976916 5.579812390030827 12.676030609720646 -0.24857193964027516 -1.216671984062414 -0.9238423601553444
Ni 4.57158315054878 3.016891088908654 6.845172265065916 1.071840200325283 -1.0811367951358608 -0.6865717044605014
Ni 3.2999602282956073 4.748542736289351 5.731818164182138 -3.142957127785826 -0.014000942264782337 0.7973993633380461
Ni 6.943744463883488 0.8652328017502917 12.504325474193136 -1.2599475069215977 -0.6022500622932855 0.18046727355255368
Ni 5.14642827858212 8.271653902679693 7.242948397109278 -0.0830188641953925 0.9213571318396454 -0.4604133566287361
Ni 0.655303034970303 2.3212901444303284 9.501913314760463 0.4333596949450536 -0.09253888787068579 0.18755734763011567
Ni 2.5172907912229445 0.05150740329588112 6.057735667126287 0.3899527887143284 0.42340258373234185 -0.6124982223838548
Ni 2.98251420466259 2.6704007814207786 0.43038590284944517 0.7230633716286321 -0.23833226419013798 0.4412732933651755
Ni 3.8791541838893613 2.055781809779931 8.949911943506416 0.47361082915561664 -0.02760619175304278 -1.1648087195342196
Ni 5.087098502160656 1.9322217810602593 10.974624920110552 0.11639743965583825 1.105484884962922 0.0847679856760153
Ni 6.965185195111576 5.492881809515573 8.187665446518208 0.1655139946768311 0.30936773077140917 -0.2960702423315546
Ni 6.107188180443833 0.7351348210682298 1.3110492274213923 -0.5740021231911856 1.1833108921034652 0.819985219058362
Ni 4.610207726830597 8.92037393440844 10.390637140647875 0.712154180915296 -1.5695749191122967 -0.9128038429529958
Ni 0.6893535272958707 7.187720125919742 12.069867487355303 1.6326417656657948 -0.7089942951300758 -0.18719559341532277
Ni 4.554564799989951 2.473526691460638 2.500738583491415 -0.7467504308329268 0.33598121959387944 0.0939473381824382
Ni 7.973607511504339 5.291732445103863 5.401540800711248 0.3786003398159867 -0.34680273568941566 0.8637230262659448
Ni 3.243609352782335 6.336968092473153 3.424113278955336 1.0232039273748186 0.3420431095172432 -0.029395422442981635
Ni 8.768725812248883 6.084460269810972 10.477311204696035 -0.9921881957195946 0.02016670475586204 -0.1335659810153248
Ni 8.617188019752595 9.074734327456627 2.6315095751194018 -2.5152577721815006 2.136365869267024 -0.08489885482692475
Ni 3.38625641324708 0.38599752107582325 1.1414504690484064 0.7205706871137655 -0.09726097593670346 -0.3078782907100762
Ni 3.04466658163595 7.127572071162386 0.3250789975033251 -0.5397647992748703 0.3244315670830671 0.18837213022192717
Ni 1.326024640382074 8.79650130497618 0.04916933384849571 -0.2851507672055735 1.011158051953878 0.3958133612601635
Ni 2.342390692530012 4.067542083916601 3.655027747688578 0.3443151933808715 1.3248601484345828 -1.1250602359916881
Ni 8.826823574097208 0.20413378180306488 10.795490920589774 1.0303680492234257 -0.5056457461039743 0.6511249336171173
P 6.600582434570812 7.072204968479905 5.3553843860837835 0.3285651296354664 0.003776436323296722 1.1216982614979907
P 1.6774889768555392 7.631135042587077 4.446273477252476 0.09030897009890253 0.7324255295698224 -0.9895330174849346
P 8.80313947304937 1.755023147715945 12.641393531352046 0.3117241468187277 0.24453890722148205 1.4263927551634468
P 4.630122231050168 1.2817548629964635 13.016495078766459 0.6140102881530072 -0.03942838119895145 0.5077810472794222
P 8.03012388151251 7.712273315780851 9.405658038871485 0.35552854559818775 1.1131483150454506 -0.05841263561093811
P -0.2424733397881108 7.802872357599709 0.9929982294681315 0.49500909232573453 -1.6530318992863726 -0.5762855199087237
P 0.9658166780947528 4.6321725239592 6.452403260907122 0.0802353879129844 0.5799840518062334 -0.151273682707733
P 2.9100460041738296 2.993032299227313 10.615751946748754 -0.17348415736650125 0.7556292213797954 0.15781919713573464
Ni 6.551191521981923 1.1533311349544677 7.034129282272837 -0.6627563472084586 1.0582058973713 -1.4749760633887887
Ni 3.761027891085555 4.927092908008677 1.5462113881903883 0.5567356228012541 -0.39153478848946766 -0.1697102921463658
Ni 5.391948555904102 5.151843626220774 5.80833178565733 2.968612165080926 0.8237778533315749 0.15663237591648507
Ni 4.497266928200308 4.371941624868375 8.729264569353964 -2.0827205731377423 2.561786254760343 -0.20214270164345832
Ni 3.4800458211620566 4.3515030547482905 12.38325705703556 -0.009309964547016224 -0.3950921668234228 -1.114006806391004
Ni 8.542016742513809 3.4206424916317495 7.621130900370405 1.2000870831205397 0.36754099667803153 -0.208502325312899
Ni 9.241672302117172 6.324013551177966 7.824163224368528 0.30863548059107493 -2.0206518288314554 0.4086161694517866
Ni 3.766194996981861 6.402071787938888 11.12734324000379 -0.4271188562416644 0.31085871349463884 -0.25742141961110504
Ni 5.676773775764711 4.569045568293655 10.755565373695275 0.3987397908783391 1.1232218972313688 0.558621269859741
Ni 6.87875109808102 7.769175839610455 1.2827551852767447 -0.8797448556154978 -1.0408272968835366 0.3032469625856519
Ni 7.956690296470169 2.554122510476684 5.117916335352522 4.576451012770428 0.33744340596170275 1.0202800688598042
Ni 5.687328646883855 6.544755624958055 3.345634870060142 -0.1851320260180747 -0.5702477983550759 -0.43280485088284815
Ni 0.825499412352648 1.6491066709802786 1.0920678311842624 -0.8787043301661254 0.17474065548142162 -0.7824558546543363
Ni 7.6853344896666576 2.510202110358083 11.029649081423047 -0.27771128020839264 1.4580594901391084 -1.4182181897724542
Ni 0.198775437823764 4.164668964145384 12.688074931293887 0.06818051363097936 -0.6767192371464539 -0.19569334647368877
Ni 2.081507009598195 3.7162248536608242 8.06219671462403 0.418396388767002 -0.6076311240995406 -0.00600789675697675
Ni 8.243188849556983 5.559116384029787 1.5787898989252114 0.6454515373814239 1.0637941900923549 -1.1608996142878008
Ni 2.453106509617763 5.928683979417534 8.913323868925723 -0.6781418285255933 0.2296362790780368 1.1218784958295969
Ni 3.0509185958877083 9.168477764678576 12.066718494882908 0.37871295413445105 -0.5802930984062199 1.260647618312416
Ni 7.537033033959513 8.020304541481808 7.407629210742169 -1.4846745216234754 0.484762732007378 -0.2143713824991663
Ni 7.979445789518848 7.130771631397109 3.5407280553723925 0.8930634271012747 -1.6678342544065279 0.13382540532429857
Ni 4.232163135648555 9.115721797360063 3.318587553110404 0.36553579332254466 0.024038014785810215 0.8069481833687457
Ni 3.191184374453622 2.3274410231574256 4.7988080114596245 0.8406782286313392 -1.522832006529803 -0.060026259954961136
Ni 5.112667401622626 5.988289579997163 13.106801746977665 0.6354957117202926 -2.0302770106260453 0.5091244486811941
P 2.0421193198121186 1.345111672127147 7.925666514573542 -0.1234494614066132 -0.5005297650336478 0.05984114052734855
P 4.592839999004758 0.7419302089115746 5.539725945710731 -0.0250451158940859 -0.9665406703548194 0.7318334045117784
P 4.583949266973214 4.304171629207039 3.9055082627882425 -0.6090030647464028 0.13001760154243414 -0.8449992246041962
P 1.8585215659983578 5.571142317325815 13.020357536394643 -0.5551464239372633 -0.998041826286894 0.39813198209101114
P 8.622943550519654 0.6222344766478053 6.147612049650752 0.2149272550026363 -0.1558970404123573 0.47240498177297346
P 7.500946039932821 1.9021109771271598 3.018439381849825 0.8607037798236468 -1.0413055220715357 -1.5597988135621395
P 2.1586090559441407 7.712935293760449 10.407431154224732 -0.07637539073694588 -0.19042232788273655 -0.1313211508452061
P 3.8535301195957583 6.4141620802051555 7.375522359317809 1.6514339586716336 -0.7838761320406307 -0.43506022257592813
