# total energy = -340856.38988562644 ev
CRYSTAL
PRIMVEC
9.44226080913489 0.00000000000000 0.00000000000000
0.00000000000000 9.44226080913489 0.00000000000000
0.00000000000000 0.00000000000000 13.81970313251951
PRIMCOORD
 96 1
Ni 4.665770426170395 6.916106674189639 2.2203287431888645 2.44691065106567 -0.8849968480430564 1.5161728493420727
Ni 1.881578194637979 2.9874274530456635 1.0022355537174104 -1.0867209740918573 -1.2621877091060263 1.9716067504783463
Ni 4.627604808006645 2.46044543539672 4.349889977509271 0.25396611407265296 -0.2771322677764711 0.12715442106202618
Ni 4.265371356839915 3.0872510342498103 7.009975021505643 0.13274965576161654 -0.19881209460832858 -0.43693558522177006
Ni 2.293166343019435 5.163160398464269 7.754857035920214 -2.599532363160865 0.6800375028864095 -2.891274667541027
Ni 2.68440641937148 0.7670042872487738 9.7982387558961 -0.9980096874973781 -1.1288035050842042 0.5076208675524742
Ni 1.460217306325924 5.6759884671702485 3.8596081391475274 -1.5072680906532752 -0.8821601499252097 -1.0774233508400155
Ni 5.210324491172812 4.762496945831318 10.409953733534618 0.575292559867835 -1.0447343452474265 -0.4259122375280729
Ni 8.375238120523274 0.14318905239183907 5.824093160535874 1.4078162777128398 0.08205110096548449 -0.17612210920998053
Ni 4.620107652929452 5.544042314715959 7.357236823943912 -0.21734512041550955 0.7571464293552701 0.8123230745274138
Ni 4.13773087531157 9.341030324447313 1.058710659803309 1.9846149898125562 -0.47513934998500107 1.9255899174285998
Ni 8.78865806750042 9.17579076040337 3.2638543591695752 -1.2014613377602468 -1.2094844651750396 0.3644448742512111
Ni 7.144061734483861 3.104615351865628 4.903908020514044 0.6106704251464966 -0.6711157749167475 -1.2594065468164632
Ni 8.94020635338072 4.4732616129288 0.27803870004290043 -0.1204240443167281 -0.5710309563780037 -0.04544321993446367
Ni -0.0367133984523234 8.46674306996041 0.8008500710953746 -1.083035040599838 0.5488382223310483 -0.8252225561979014
Ni 6.439093100707585 4.525515084209896 12.527505356340312 0.49469361796784483 1.7171248731115394 -0.5994876690567998
Ni 6.6358698158319145 8.264017730530497 6.137206082555783 -1.2480898362520632 -1.260987261040022 0.6072053494160317
Ni 0.09809942438160814 3.928027705148603 7.990095856197492 -0.4002328304840978 -0.3806790767218863 -2.036303162215467
Ni 4.38185108609969 7.666615331816427 5.201487479287741 2.6982496119281207 0.35900030619687207 1.0411797951269488
Ni 7.185324414190834 5.650144999353775 1.9752501429292897 0.4720789658921225 0.9217844491850512 -0.05805345249930648
Ni 5.111539558656942 0.26290464442863576 12.621825043722675 0.14355394546597214 0.5473852919346057 3.4356952204203535
Ni 5.337388994792203 4.689168348439018 0.9375173539509194 0.19355110331970538 1.0800260785701852 -0.24007341525096074
Ni 2.515087798660852 3.8169395068070604 11.915099205211051 -0.9503859149718276 -0.7299724400436396 0.10635316804595876
Ni 8.504408248301626 2.294431605966971 6.561732960914919 -1.3804563976426485 1.0648637690074498 0.2884140113378775
P 4.189786059115813 4.525562295513908 13.008873700504484 -0.050580026940396754 -0.18499370066799753 -0.943891822607052
P 6.841135123417702 8.127293794110138 2.752386920245238 -0.0697915668718411 -0.3062065594346081 -0.31103560539213526
P 6.018676438475781 2.459463440273259 10.36649100706066 -0.7145810451892338 0.8917873886023288 0.3127854982037065
P 7.3470608994770465 6.781554457753858 9.556365803178979 0.1467246298844699 0.38309282836970154 -1.0267096265352318
P 0.231871710075103 4.188974024686798 2.6587999523011496 0.37833037398405167 -0.6375669924270245 -0.46580855950237837
P 1.178337494588562 6.485010814990195 9.341027491769072 0.8447755386291643 0.17245854431546428 0.713109859960346
P 9.180889581236727 4.544078568947633 11.734254416738798 -0.0577793729023134 -0.060624555660592355 1.0234471537338763
P 0.9084776808527967 8.570088614443893 6.668200116819712 -1.0554201070960467 -0.357094861644043 3.252980031373888
Ni 3.912098611174767 1.710153949768391 11.573462157532838 -0.5022727158666833 1.6368853714334972 -1.0483907110530912
Ni 0.8014421008476921 3.7548849688129584 9.9917418392002 0.12435603238128262 -0.27591999263592476 2.1490552918092343
Ni 5.327663466165616 9.668025258299075 9.85512082342259 0.5084073680095115 0.9192120604721846 -0.23530581865898834
Ni 5.464321306760358 4.473223843885591 5.517889140745163 -0.16165271194921194 1.1398427936175013 0.6874715905669516
Ni 2.323098309763395 7.024286656204009 5.624992705028046 -2.2459521995382996 -0.2021056777579358 1.8810329567538313
Ni 6.265601000722247 6.402778165661127 4.111790152208831 0.6896305458914832 0.6386890218466097 0.7241355216468883
Ni 8.319236071703582 9.331436987471962 11.148602911593454 -0.7460791157975151 0.5353062492828846 -1.3559334728006198
Ni 7.699068382194658 1.934199914090373 8.866113877089496 -1.2762308174626535 0.9675814529145078 -0.2881011080831489
Ni 1.5359914492660751 8.368241405268614 2.4416789420517295 0.22992192863925565 -0.3732041085010799 0.18250821524198246
Ni 7.188421475734057 5.87630603009552 7.250300387677234 -2.0239083880955406 -0.5330994714395528 0.8394520695337221
Ni 0.280473859103868 8.594723472877645 9.193958614413482 1.0942255099990188 0.14104069212581516 -0.11106471458901518
Ni 2.770906970583283 9.011740921220543 13.436994303325058 -3.215186614675199 -0.826677286366557 -2.9491262884421725
Ni 2.3846712924565696 4.990367025778317 0.5444143195425392 1.6559588431251806 2.424716374356817 0.45456024028206876
Ni 7.98847367579162 2.5696357393169578 11.360528789949331 0.400459087562291 -0.006155220968118431 -0.1830736008271492
Ni 3.979903485997599 0.8311663378539969 7.8874018277093825 -0.6786902448298957 -0.2612248525175953 0.7307759097815414
Ni 6.671637099751827 8.802519306358505 0.3732676771405452 0.4176291715836743 -2.12439661272029 1.4141535327847774
Ni 0.13651903936094528 7.573155834393173 4.881810297557928 -1.8806817440619998 -1.6110288153817092 -0.41420086262841566
Ni 0.4293679254725843 5.285277157423144 6.136473363117508 1.7238629631663214 0.10552373016612794 0.06514018414275878
Ni 1.8144437203321255 7.779601424579274 11.3444703370025 0.7762990910243212 0.9063794274838907 -1.8108801498878297
Ni 3.6059899582181614 8.800300375069915 3.307372794982269 0.13636796924049416 0.971214678791721 0.557633194914859
Ni 1.2905587642264056 0.7537690702818942 11.869701759498657 -0.12465865122336595 -0.8353593875215871 -1.0940265066143353
Ni 0.630779846424867 3.348707235871341 5.018611660516868 0.40598001738052014 -1.044675209874717 -1.0790788841655672
Ni 2.70843697311387 2.8499953470651156 8.752833185789612 -0.07198214676525667 0.5071737527127266 0.15993701480968583
Ni 7.682516099007856 4.641664334341584 9.313595835685618 -0.6553528556555358 -0.6934242086059607 0.401716871228792
P 3.2722343656318045 5.025501678224461 9.376640866837905 2.7020314475680562 -1.0059538820451193 3.8251710694982637
P 6.656661674119044 3.6141763983339388 7.333908774405228 0.04043111143185295 -0.7057449349548426 -0.26480922743474394
P -0.03017935397698577 8.149162070128753 12.435038240527401 3.0902399998977685 1.4470214871573917 0.4621357386364815
P 7.416027172378587 1.639516396704806 3.2843081845199746 1.0644904448284314 -0.1575137500801739 1.2800314221556663
P 1.1739185165329868 1.0146653458378359 0.6523771295584504 -0.2611371778997954 -2.2549693154352455 1.0381728899798248
P 5.619098845835119 4.431328532704849 3.3990250436879226 1.1841405870936124 -0.5365817735611984 -1.4462912938595867
P 3.949102831259808 1.6957167330013516 2.204546948483548 -1.028155614953139 0.16983061977431396 1.624052995555519
P 6.222147716509092 6.73061346072431 13.249170739893668 -0.1091502711751217 -0.6318131206623828 1.075216830107
Ni 2.889133518091524 7.71216479792774 7.771731300200381 -0.32650619022390864 0.6887697405530847 0.4305242823787876
Ni 0.2118730016953846 1.7394627272993852 2.8028435292956164 1.5388132124494078 1.9427093507177056 0.745824833694864
Ni 6.074423546253806 7.459433245287729 11.175026134223199 0.503549525696578 -0.12173325004645486 0.6706987419839868
Ni 3.5010203448766464 6.032726522549917 11.546610256262657 0.46398744713323964 0.36124950724236493 -0.3257106909058068
Ni 9.208715923821726 6.836470646581263 7.777175707779109 -0.11130099896953735 0.40383211779958195 -0.26559058568545874
Ni 2.327073501561252 1.761869212183744 3.67438308588899 0.8230196350093116 0.3708492351156581 0.25786956289211715
Ni 6.651949985978591 2.5751122505824147 13.517673700752113 -0.5361272025222832 -0.6270072146333072 -0.3445208816337744
Ni 5.903858547117247 0.9296661140936315 1.9957728967835473 0.9250425511110327 0.6522387355065864 -0.6642599283371786
Ni 0.9027150690850242 1.4038281248133282 7.459447408678933 1.2112202169192237 -0.9395083488273754 0.575670512032544
Ni 5.780051623474722 9.540365892249124 4.203359309019423 1.3203689454324485 -0.26034887767054515 0.5806553668416451
Ni 8.27290289794566 1.5249723309095446 1.155546709689541 -0.12974506460733784 -2.380642009745423 -2.832969504042231
Ni 1.5500226488186064 -0.13955378198287233 4.935887069399989 1.537219899820359 2.300658075721612 -2.195298381937174
Ni 3.979374719392658 0.4219906871075824 5.71446095881008 -0.8098188200483215 0.8571366312976787 -0.7970386375645176
Ni 8.317725309975181 6.529767131194099 12.701550772808677 -1.2229845565440036 -2.326674297279715 0.4064225042345775
Ni 0.39337591574557274 2.3183394103189294 13.132186793907037 -1.496926342407635 2.46479755864842 -1.1763879397313868
Ni 3.757000035232721 3.876992285511031 2.4426741563403143 -1.0948407749855145 0.29543749384356216 0.9262432562873533
Ni 4.476160386995171 6.904653211836194 9.431422031335833 0.333543042466032 1.1193068784476787 -0.1022424883116949
Ni 2.9104824697660012 4.544003030861212 5.519146849884058 -0.006877958066755896 -0.6141874371608197 -0.41032312484056427
Ni 7.30108653162962 8.96799492692251 8.49743136179465 0.45160681408069964 -0.8138459389298435 -0.17820033189524795
Ni 7.037326418372277 3.207101650616083 1.7691435299059983 -0.3552542088908785 2.1002058744066994 2.429839811626312
Ni 0.23417939861523665 6.191724752203402 1.7466303474745715 0.3799730517937972 0.49226263992884894 0.07827954973819422
Ni 6.024861119301426 1.3658135828224187 6.852499828519605 1.2200774101995375 0.07698448507585452 -0.24012740841734778
Ni 1.392223586287042 5.98524139297409 12.656775572083168 -2.146849799517483 -0.3157726058564884 -0.08974846960974221
Ni 4.1107165671555865 2.6118898564081947 14.115306490629765 0.6142116055305357 -0.7881171667051717 -1.4213775613370423
P 7.049450281242701 0.7330470847247035 12.66937910180236 3.1389580339287617 0.9960422793583619 -0.6874083414291839
P 3.415832267916392 6.230730731578574 4.104479009669448 1.9946664605112874 -1.1728945818661478 -2.3174512360195507
P 2.4521173613689053 2.2175716030345316 5.912345251126544 0.2078196974235776 -0.04685861222475156 -0.07875931758809017
P 3.053409971533611 7.258870183581593 1.1309826682118087 -3.1526226759000475 0.8035185888619064 -1.4115965706908786
P 5.208143328927432 8.409645718887624 7.908062438571357 -0.4153010376711299 0.009319477628712982 -0.7549350235262482
P 0.036500947584266905 1.1978074363633398 9.656987255420937 1.8213460824161598 1.0002468043580128 1.0181573660898466
P 4.16269621287341 8.675105439089421 11.301214396040116 -4.226906195559501 -2.991794002514028 -2.2313311071910156
P 8.13817127855463 5.928786115635876 5.433437560127506 -1.7595673585464664 1.3513728500131308 -2.053958670513701
