# total energy = -340892.763759454 ev
CRYSTAL
PRIMVEC
9.04704302830926 0.00000000000000 0.00000000000000

0.00000000000000 9.04704302830926 0.00000000000000

0.00000000000000 0.00000000000000 13.24126196105785

PRIMCOORD
 96 1
Ni 6.154821112032882 1.9043935501185625 11.391656842931267 2.3916910684707324 1.3977673781172701 0.12373511096783207
Ni 4.573678416054891 0.34805241841543794 6.253596729875221 -0.0820133057490136 -0.011484603600831835 -1.1898003564825508
Ni 2.691006816700155 1.6824333918346333 4.728057161508423 0.6792823698879398 -0.9390661190836342 0.44321473336226247
Ni 3.607608000222462 4.271733348690168 5.002814054597658 -0.6009745380149715 0.25848919875398707 -0.32013036860455185
Ni 5.124552877533184 4.491359369824131 2.658196809769671 -0.004320481752224817 0.19538455698401833 -0.025783793832323335
Ni 7.1869530374352655 6.067779509242889 2.6350508544035014 -0.05611895448075497 0.6307147453918815 -1.2368122064557152
Ni 5.086835754361843 4.65691121365056 11.460020824999928 0.7985440184654505 -0.7426135258464178 0.10805498122841391
Ni 5.476265729634188 7.889582601834184 12.43902670322391 -0.9258740458733925 -0.739476522879333 1.047486196960951
Ni 1.898295842990358 6.332125064998091 0.4497592782600589 0.3966170881083815 0.7711139472789559 -1.0227308443931418
Ni 2.7860550527371224 1.6773941887628083 0.4121516243116418 -0.20472846009276355 -0.9795175422304615 0.3307929905247206
Ni 0.5564637247777069 0.006608865069960474 4.7525674109917055 0.497239267207834 0.16560038374305028 -0.17730507377448818
Ni 8.508735098470577 2.3029881801696486 1.0237100328717514 0.2771186409297163 0.6741527619708583 1.1030744757492164
Ni 6.711512822299655 0.7736796135986829 4.837721800566649 0.5645342929100665 -1.054534876277616 -0.8344831555642209
Ni 0.9918363949142187 7.281232274798794 2.4145970288151895 -1.767466044568253 -0.3410015556266063 1.530433215915829
Ni 7.587185182308613 4.091760517975967 3.763537408883375 1.0105312170031562 -1.6381243860469208 0.3712274443906832
Ni 7.506919814888095 3.939290698641204 12.498506488853554 0.43252331508668734 -0.48765368040192797 0.22791055463618168
Ni 7.967884760876631 8.932996190128067 6.809571009614892 -0.28621854634845545 0.36774154272461185 0.5956220154538066
Ni 6.7796280106798505 0.8320212811916385 0.46490583801382734 0.3552943181001946 -1.225045038617458 -0.7525055881491491
Ni 2.0178253779723128 6.5230991002640675 9.273583893185222 -0.8208935898052443 0.6297253848954187 -0.17607582935307742
Ni 0.11164503681840826 4.8893568950229005 1.2223432949251727 -0.9851323173140775 -0.2860858774253331 0.32292464352023736
Ni 6.399914559822477 2.0323277882490363 6.698317709767776 -0.03635025649425998 0.500732625073073 2.789026008581745
Ni 3.2833348301983785 4.316199566101332 0.46344293112565127 0.8668777698448424 -0.7155472657572451 0.11805914362897733
Ni 6.011389288871824 5.63834350886532 4.729659392862141 -0.06215410493124134 1.0046289925861085 0.9297188735407794
Ni 5.300128845243962 2.8290104139310612 9.271544689644129 0.34829860350865177 0.699127429638325 0.10584511806128868
P 0.28027649415587746 5.67835858101376 12.224041815260227 -0.2392126099125622 -0.27374663913368985 0.5413100322748032
P 4.021003592976431 6.082245731346744 12.717345417227644 -0.7854450191896473 1.3769116177141836 -0.4235195689261803
P 2.213196276241712 8.532203128575269 1.355561006294328 1.2859233621600692 1.183890161645703 -1.4009246927993293
P 6.400565946934095 7.744612781326248 5.685189098642535 -0.2252443206579282 0.2678588128943451 -0.6965684106618971
P 4.791241711335396 0.922906972644501 12.684030585285656 -1.3206846769006546 -0.2951418169800143 -0.1839313208417542
P 3.997499374698871 6.282194433483907 8.229007759837966 0.23250640153698024 -0.34445171895873583 -0.053406183535282224
P 4.710062592549969 1.1605094686504858 3.782260264820792 -0.4988860587826376 0.46616414306958426 0.5986970548347045
P 0.3559712953432085 5.413877319610305 3.4362398123118747 -0.5351740945803944 0.6140357420743038 0.872487402722136
Ni 1.316073376765435 1.2002169413295503 2.525929942642614 0.04693703087117077 0.6240093083472479 -0.11681627236081173
Ni 1.9453676088479956 6.358090079030653 4.869381928304262 0.7132065334392105 0.637743884324521 -0.6034787924940639
Ni 5.969239114524191 5.469109518449605 9.013631581616158 -0.20547870799522677 1.0081794289415282 0.6920496968559372
Ni 8.541729665082686 2.2448066452416326 10.120919104430143 0.4593360644041573 1.2986948028931247 0.35467468223832466
Ni 2.518371138034877 5.104685570628827 7.128168969429002 -0.43021060779311066 0.3657635930626346 -0.1537439986250965
Ni 0.17354762062154386 -0.1860506343473281 9.142032647176626 1.6511889325403628 1.3044648726076824 0.08355493920452062
Ni 1.5654279819101995 1.2695353864575956 11.469766299953195 -0.7056292353125848 -0.30719566282075483 -0.1869963329203231
Ni 4.025490926412023 6.998711209220799 1.7909734834209945 0.42864840551231337 -0.20819096472006723 -1.889438150098391
Ni 5.719821180076907 7.782999385695642 7.808650467328577 -0.1951187049171414 0.35427384725548017 1.1069288164983002
Ni 5.554215053991176 3.012321603592306 4.738081285392772 -0.31818532906303915 0.007833122891173607 -0.37825195533763245
Ni 0.7684449943933727 7.508521141537489 6.6391292389297165 0.46478731732671563 -0.507556589973442 0.5408634316556878
Ni 5.043636123001048 4.409727898877857 7.028700348076247 0.07412824657398201 0.048269890749981385 -0.03481222258317876
Ni 8.201768922120461 6.897547171969193 9.317240400228474 0.3779794184025361 -0.7448334163158721 -0.5012612438830335
Ni 4.777381641127074 0.2287608206700884 10.547936830155829 -1.3093738798735255 -0.6953077987819186 -1.0893208736085498
Ni 8.347643446950089 7.120240140753692 4.434458896215631 -0.38155659423083316 -0.31675708125694485 0.9312957311095961
Ni 7.473255767077933 6.315749916775465 6.957581541348034 0.34643146839292593 -0.9470164842789625 -0.34724162299904715
Ni 2.5168964699905185 5.213919570429926 2.7523023439034353 -1.206750096963012 -0.8889938850175916 -1.0772531438107384
Ni 2.3733470352676402 5.076513078051336 11.49773251994534 -0.6391621048282864 0.35038968170972556 0.24389433165894772
Ni 1.1492911350615043 3.3778583377287643 3.9158778555001352 -0.752227394787098 -0.1453730009525819 -0.9434148829706334
Ni 3.6080513053400916 2.7731992043258784 2.5739950738454693 -0.8605016911151696 -0.8128540073302195 0.49838546499713526
Ni 1.071088493494443 3.4428251550694715 8.183841301281813 0.5681819169649828 -0.7781461715353889 -0.20259624424110914
Ni 3.5904638533263977 2.3816431738975563 7.253801639765091 -0.04074375757626531 0.7707205684952791 -0.5945843182179116
Ni 4.1348968200342435 6.8688680449715545 6.112642891851277 -0.013981144770440438 0.2144138057013275 -0.8771912359557086
Ni 0.7014869228406219 7.675267195068553 11.325397203114862 -0.5004708867712542 -0.8738238621453724 0.06305707636148494
P 0.4400481820710164 5.7810063333529405 7.871797924278361 0.1423018182264259 -0.9607060659509131 0.5777173672592437
P 8.495852108929682 1.741456301781823 8.065438123180364 -0.4599688128921498 -1.0903662841539288 -0.8102142557145273
P 2.034625737226134 3.174155112656581 10.41304812990451 -0.9771804094568526 0.8557487498112165 -0.3800527559917971
P 4.123398028105537 6.059818111211999 3.7319306587007413 0.017031501560990023 1.4261970942128728 1.7398518823954099
P 7.040589972271924 4.0228582368359 10.277523422515038 -0.8048519629613493 -0.2082038202358737 1.0667902966062015
P 6.363129282102478 7.5457678184615515 10.060684795396208 -1.8646833117512145 0.48800129354933375 0.32806505007059633
P 2.5074875450449214 8.63478755161193 5.657210212789887 0.16706462699340258 -0.910287247178729 0.5511684131261217
P 6.766401233496713 3.7410609347152577 1.5787687518378708 1.9592903950048386 0.9716167993261459 -1.1940863854524146
Ni 5.120834542771031 2.76291271618824 0.5542291051031275 0.4788787624227752 0.8560729659198548 -0.12710171344721982
Ni 1.3178375501927344 0.8169570495311442 7.172579999876543 0.23136971682937568 0.9426327533889701 -0.8702106908728173
Ni 6.910602055331209 0.535005042971493 9.359282010057502 0.029525006042310443 0.13842253777667776 -0.8402874209508238
Ni 2.5162812710517684 1.497493734394343 9.173493739963465 0.3866350371950051 0.6985201350716292 0.7162522622440696
Ni 6.4552100879642955 1.8880726841552378 2.6729344431700346 1.00260399173628 0.38310902631961763 -0.18121109369711372
Ni 4.082704427715829 6.805801106706402 10.482736599100127 0.6508886492365952 0.9280013766290406 0.35908412415992996
Ni 8.13435035606797 7.0334699492602075 0.4932873172896289 0.2753543499404419 -0.022153910389219912 -0.6822550793630185
Ni 7.791847393961791 4.03322614836249 8.244328022821499 -0.254312184558162 -0.4314712196730892 -1.1745516578535966
Ni 2.737707653785899 8.357640429704785 12.377190162836259 1.7838167180121345 -0.2837451451072984 0.981398304192942
Ni 0.2283754166290476 4.838557747359892 10.057678462935225 0.19651584237498412 -0.3344822664508498 1.1066395673926555
Ni 8.723747127563911 2.4063325548365326 5.959282843463969 0.07373358223872462 -0.19725889118859577 -0.5787041566525453
Ni 3.8068872211615714 2.602644345600492 11.602603130802917 -0.5393583078650711 0.4565659578581879 -0.4622133859519523
Ni 1.093271843462332 3.1851834583380074 12.711956093583327 -0.39222332991606 1.3164757810256293 -0.8505147551057868
Ni 3.150207589261392 8.549510122249238 8.16507863835424 0.930727517310952 -1.130370335350692 -0.6070770513682836
Ni 5.377200606408908 8.113288839458978 3.5207989064431446 1.7949922750129794 -1.210165036181832 0.942744596376486
Ni 3.104809526398885 8.595514337007279 3.335685545773089 -1.3106314064297104 0.2649056438032922 1.537215528944985
Ni 3.6377798893508926 4.539453451565281 9.568414365764161 -0.3499333108985973 -0.7881729596437715 -1.4092702365505472
Ni 7.184157501081237 6.093482159022161 11.406606177142907 0.5812780880273086 -0.6010282740710422 0.48117141511169387
Ni 0.376917009799023 9.048490743835274 0.286803031132564 0.11311002715381811 0.5458043206007309 -0.44727707635709424
Ni 4.679049328402365 0.5005918999829705 1.6188236309764648 -0.7219765663223565 -0.883636220250104 -0.15312410565291049
Ni 5.926672776188579 5.652547366715885 0.41650144269033723 0.19316698050740924 -0.3060666914226342 0.5549021691369411
Ni 7.5382859137211575 8.56560481213214 11.620703550167011 1.0466228205193908 1.0665110748028857 -0.08266945127577376
Ni 0.25184977966399136 4.755035444381281 5.807180334083815 -0.8849942769398952 1.0425013421518499 0.41016551621677744
Ni 8.058825639293117 -0.11677471032240222 2.5151377247891493 -0.13046548771313016 -0.5719442122208923 -0.11858082046040223
P 8.568925076992748 1.605452101101856 3.7856239554888433 -0.7673076861589881 1.0625078671807635 -0.5138061704275797
P 1.675982850020969 3.4001050169991722 1.5676200804816594 0.006616476875253121 -1.6604621303121727 0.5491927774569897
P 5.038913566441814 0.9756150464262802 8.359367510254897 -1.123574138364465 -0.5301509303341901 -1.084911945907577
P 8.440466110355695 1.5908230322200956 12.140966436216532 -0.39814818004092717 -0.6488826745501598 1.6075159171324442
P 6.3223904464966845 7.749063926588973 1.4204961589837755 -0.30901343275578397 0.32223918741743857 0.2604362951780289
P 1.8585250410087752 3.265928319049023 6.004541581860936 0.6795137691724555 -0.5554081622390822 0.8890771887600173
P 7.007070677153233 4.1415283027122465 6.108948984105808 0.08726169863214649 -0.0974844048014192 -0.5955155717829292
P 2.3153102530310945 8.680764625240322 10.24304333140671 0.18879764779512 -1.2326436769003224 -0.6796981172691197
