# total energy = -381177.81572396815 ev
CRYSTAL
PRIMVEC
9.13994309508813 0.00000000000000 0.00000000000000

0.00000000000000 9.13994309508813 0.00000000000000

0.00000000000000 0.00000000000000 13.37723059927024

PRIMCOORD
 96 1
Ni 8.108683161873932 0.7508709888662608 2.842727897374725 -0.10506581669310294 -1.529375464075276 0.6848022712649046
Ni 0.2527834013863717 4.812828884239908 1.0618849666069938 0.9007610528558487 2.921880308242026 -0.43432797239559384
Ni 8.41439597272006 4.708185677728985 9.715681636287425 0.7548249803109451 1.0893650965829238 1.3152010280782638
Ni 7.1477918225692125 0.6353137765124974 11.684395179817086 0.21078803602328214 0.059193222530704505 0.5026414120600118
Ni 3.4981760541495084 5.517417944133388 1.1288505864116556 -1.4730850170136631 1.97694410353086 0.5105357272064239
Ni 8.09532970526528 2.289391182921544 10.119767652800165 -0.3538696698385261 0.9669016532386638 -0.7532486369627608
Ni 5.558584247052874 0.6917392141398165 4.625524947939123 -0.5728682666970586 -1.2556632777239471 -0.4718447383941293
Ni 4.770227610281709 4.357988764682783 2.505301312578768 0.49803296675372294 -2.1974285409062992 0.3988014973542099
Ni 5.361984074806395 5.9370327236701534 4.112106934196611 0.25069695640307793 0.41416101052941573 0.08675904796411511
Ni 1.129185108322591 8.347107712930262 3.260111616844296 0.47983804101225097 -0.5125064777795495 -1.1294599077212806
Ni 4.081057634097192 0.42800981711037733 8.79223847112163 -0.49434549059980676 -0.27892689778304863 -1.2513659359001739
Ni 4.13241497337441 8.568404010951262 10.963429170196443 -1.0365068151313117 1.69690288963771 -0.1614457381447284
Ni 0.3663206863544321 6.991526218436342 8.889704994450407 -1.080175716774172 0.26836454888617 0.24859405112746222
Ni 1.4999743127714584 5.022334655891873 8.459613098342459 -0.600925944165223 -0.6816837802405807 -0.5720385717069116
Ni 4.449863470932043 7.854199731104118 5.660695689374476 0.5462946299735881 0.33945220886161537 0.937355564150431
Ni 2.711501166875943 6.523442321585626 6.816915834865262 0.5819062085296107 1.1077294580227246 0.8806342001989866
Ni 1.3238933123842709 3.5946024519737922 10.485594782236824 0.24868146863494595 0.18332376916474236 -0.42603899291392433
Ni 0.47519477244382435 0.6705126106983836 0.6780813974318708 0.9268718910102876 0.7724408936204955 0.31206867464233995
Ni 5.683408447534982 6.552818098136076 1.716298481843037 -0.12007128896299968 0.9398287082812717 0.9757287646119905
Ni 4.505516583382476 1.7330428572756518 6.536302221276505 -0.8453882325124988 0.16941795771692758 0.401468759773728
Ni 4.869322871439139 7.411186697687716 8.054577441760149 -1.0844103236808098 1.6443158595696132 1.9661254156488006
Ni 2.2104494959065355 4.52673953084674 12.799280847438627 -1.2989395719140793 -0.02580333421634911 -0.003232390894368627
Ni 6.3617841511289335 2.3644026944802077 3.2674820668163815 -0.48929661532198954 1.5332676000408303 -0.14784794485563568
Ni 1.961331211631779 1.1642367894274372 9.749164903186902 -0.5098222460791672 -0.20784463712424206 0.4340045276179042
P 1.571823404079202 2.5823354935060108 0.32839266521211635 -0.5397277753893479 -0.22958254302196587 -0.10902557267179934
Ni 3.087052281587033 5.093096093991931 4.068510320454237 -1.018402392221117 1.3778331010871885 -0.1220078438640802
P 1.509945990499069 5.384404354793407 5.646341409015894 -0.23047471581893209 -1.8626338854213536 -2.3290913913616405
Ni 0.7024082695123555 4.0628508677971 3.7483801636433673 -0.876220387402007 -0.003663564894516271 0.4462146965308509
P 5.009986593004611 3.853134877457934 7.426730998614708 1.4405001410991063 -1.5249397969014253 1.1204602753258317
P 8.707678461192632 8.320812097144437 12.321806573230122 -0.21898985510778415 0.4636652879071305 0.977329790550523
P 1.664557264963106 6.410198428785353 2.2866501140393165 -0.48719576692890293 -0.30501022513366177 0.2036128584310816
Ni 5.938339735507961 1.901263506750149 8.769711253802434 0.708139146218632 0.3313961713263583 -0.6114101315259987
Ni 9.004854565349861 5.975100585939171 6.717630462895059 -0.9160143794704934 -0.9208431683177045 0.7732798445820231
Ni 1.2327406616258267 1.5235553655095297 3.011401888018141 0.5354165496085037 0.24482995609933966 0.27447271866643697
Ni 1.1435256787667902 8.964949574553573 7.847470905125138 -1.0775935578692926 -1.4695314953344498 0.6329153525876261
Ni 7.542783595874829 8.86056228644446 0.8021981663318372 -0.5719809789960988 -2.631537712422868 -1.2551675690344513
Ni 3.0293701018079755 3.9246914905921826 6.716372806749029 -1.281872074908831 0.586493313679661 -0.20217149799886475
Ni 7.053942888648857 6.9322079888742945 5.349835262674827 0.1570388673262844 0.2795539898440863 -0.008141141049895656
Ni 2.3683420098794747 3.573836501655615 2.182575411978126 0.7729384020822043 -0.5017024451855101 -1.104247155901079
Ni 5.263236131479991 5.830067971657111 6.7564779622953015 0.7244360836064426 -2.0166969579487657 -2.0091430568609074
Ni 6.963046156292222 4.982813542698299 11.539559988302136 0.8521798015130355 0.2107240155545661 -1.5351455337898336
Ni 8.976063745146401 2.851525092436894 1.8262062954768772 -0.9422452881425644 -1.07454937172633 0.11741173985296552
Ni 6.905574195200365 6.3896609770402195 8.699333693305089 0.38841578324451176 -0.437729284767659 -0.46412320138015556
Ni 7.051886401491466 4.455585075201048 4.915075597716751 0.7119587770750384 0.8168119635367029 0.3232915399413529
Ni 0.47965232260675356 1.5463960828709409 11.66542614227732 0.5478763726384114 -1.2414931568711522 1.0027975958043247
Ni 5.283453685222865 6.660843083528039 10.57269386830948 -0.15277083607854983 -2.1512810958159596 -1.7798083681836898
Ni 8.436085057273333 7.079863766774893 2.1205718671856735 -0.823590162800801 0.8182723501323135 -0.8807249601405799
Ni -0.2571440681543305 3.677986151248763 6.06118331035893 2.6782942518521162 -1.0684607423300887 -0.5076841166902418
Ni 8.304405899599924 1.1019206585870613 7.9966804733224315 -0.6719876359987395 1.0475059944552927 -1.1073677038079315
Ni 7.5784293732695875 3.990563059229113 7.832101177107952 -1.7457595061290967 -0.7867696515383419 -0.1092600572801086
Ni 4.813916537447593 0.9089252798289144 12.937828672217718 0.7469743739182749 0.35324874842507553 -0.2189687720618616
Ni 0.42006812070568345 5.908342442838833 11.926884263490711 0.3355639295508027 -0.020080829910275093 -0.871259443852306
Ni 8.716891523657738 3.648866293100122 12.258078321208338 0.06375667353167083 -0.37648329347298387 0.7634834273168917
Ni 2.0887328760178163 1.776823183870753 7.315097563757244 0.49101385512341245 1.0280010916531457 -0.5366277963077856
Ni 1.0509197770837908 7.506945879678714 0.34697873914346056 0.19267487136233913 -1.2379725453124033 0.6060858910996078
Ni 5.805253026624607 4.067841276632366 9.654895531892146 0.29899744328067857 0.8948400593857234 -0.5123249578963628
P 4.572631184256762 1.6325217650224315 10.564507221434484 0.3449772524449027 0.23198935269124563 0.7996709329810422
Ni 7.137884124442054 1.8591283698809598 0.8309697926551608 -0.9242784192514986 2.336658662185937 -1.3851566313317951
P 8.303254266791786 2.333811305521167 4.335453321414958 0.7616756846841914 0.21115056156902343 0.261010422513944
Ni 4.857769983586068 3.8635361325028663 5.0872538424763585 -0.21444645871147583 -1.2934024441459337 0.21971644886116354
P 2.752384131564855 8.7888320143947 6.571150081654197 0.5711908789946356 0.6590624432966391 -0.778142571990963
P 2.4015291426282874 5.712784224085433 10.479802800407322 -0.768893028368237 -0.010363345512195055 1.220144258881731
P 4.079759762202306 2.036379282962129 2.652303584560462 0.25621788622130715 1.4078635860110076 0.7809738707921712
Ni 3.1365816322799045 0.26684703156004236 2.0471040919864905 -0.7355003118404042 -0.4731634572055528 -0.8035232168475969
Ni 2.8248455990483547 2.2357122981422055 11.937840313070993 0.19676421094036434 -0.6187012658707732 -0.6170184788517116
Ni 7.863942910258685 7.16640074635786 10.747962327770924 -1.1064493057587204 -1.5824952267183907 0.6932632575480641
Ni 5.864214798412706 7.8586051835923945 12.31933239068121 1.4925642087841973 0.14371772473734604 0.4804921296564822
Ni 2.6861104054393685 9.095623338505591 12.999590922517037 -0.3659222301276859 -0.28949464599656594 -0.3055840953592608
Ni 2.727313268130541 7.600602874797713 9.236763251097285 0.0706945383020847 -0.4286820869637262 -0.35922759171632973
Ni 2.464274850785985 2.869887237766655 4.60921837577246 0.9891074999117417 -0.012823891237545657 0.5941459451289122
Ni 7.7047982241054696 0.23466346454403583 5.592926668586993 0.6514846309493811 -0.3404145727748847 -1.206894078740044
Ni 4.002655203714565 7.720153328213981 3.5197764812564403 -0.36280348199304613 -0.0580249132542162 -1.9219857450171092
Ni 7.125865099499975 4.620944922541043 2.6065938160145827 0.8900899462952477 0.80279379488074 -0.42269424481140755
Ni 3.5059815654046687 6.672121773093457 12.377723830030993 -0.7682942184419737 0.14070336339105444 -0.5636292645972939
Ni 3.5721638921009378 2.8847853447290803 9.024346407624748 0.07946945628123732 0.49359987068303374 -0.026924078084353632
Ni 4.021419506532884 4.297582881913049 11.320414318850618 0.017239246696421923 0.3642854658552113 -1.518460874045301
Ni 6.359307226597144 8.738827386669898 9.515919957784318 -0.5094286101851743 -0.21282254995480768 0.730001236399046
Ni 4.164560152630146 3.3989893935628612 0.1792991742899299 -0.11322238436196631 -1.8013601262125363 1.4119917492467682
Ni 8.859282694435418 6.114365896237619 3.976663034033741 0.604910639844584 -0.4709178557044857 1.6257046722263293
Ni 3.728219277546608 5.4316852795275326 8.799274399182778 1.7621549167679844 -0.6497938735105196 0.20369281973939757
Ni 0.4744151353126005 7.971053901358475 5.385725990539889 0.3697300339095503 -2.083338409227399 1.5718493169687704
Ni 2.8722087832687757 0.625602587158156 4.531831393048438 1.7465022978323923 -1.15609139426588 0.2280126274316847
Ni 6.150953087753316 -0.05823606032011446 7.192214687151711 -0.28379168207451777 0.5705730429049787 -0.023819213906784785
Ni 6.793874952753864 2.333975824493758 5.962766232966293 -0.4361102611069973 0.22129947707756728 0.7537898541782114
Ni 5.566490297680174 0.5330113093838312 1.885092205738727 -0.3783314024253162 -1.2595921804647081 0.7776761738775059
Ni 6.045277067692239 2.7071505540451977 11.892304203440625 -0.10495860169127731 0.7665990901277377 -0.20234221924877407
Ni 0.7833141302612445 0.9845912113007738 5.37522511011711 -0.4611306944107349 2.1328419152741653 0.09000403726397403
Ni 8.643634881140047 -0.07180156360455069 9.954010217943075 0.47646243967179874 1.7389504536270632 -1.1216686938116358
P 7.224549063225926 4.0952519654546435 0.5483298537206559 -0.07146715480205111 -0.1298839041780473 -1.1981775248026527
Ni 1.2612024438841036 8.198373421764899 10.988338256641043 1.6128702394658225 -0.5897102779550618 1.2115156366724555
P 4.540833322832053 7.998016732977589 0.5060685856391465 -1.72000116621807 0.6567330238325141 1.206766294912928
Ni 7.285996899488738 6.344601058436075 0.060042113041448915 2.6336627291856707 0.5629162976906693 0.024854854260150744
P 6.443175342846966 7.968266218767347 3.5110012220572844 -0.316691518126332 0.19627518711908779 -0.5149731941524873
P 0.5546108224964709 3.0434181940786793 8.291795520350808 -0.8591338642333655 -0.4882424630258624 0.659269931321755
P 7.890000887528547 7.679252083639225 7.187358635477395 0.25077280394633583 1.9839048511194088 1.1110266407167575
Ni 5.391844268331698 5.186067593391799 13.001142884825146 -0.7029614586724345 0.34092905051745803 1.043123292006565
