# total energy = -340870.3413912542 ev
CRYSTAL
PRIMVEC
9.24893979224004 0.00000000000000 0.00000000000000
0.00000000000000 9.24893979224004 0.00000000000000
0.00000000000000 0.00000000000000 13.53675828310476
PRIMCOORD
 96 1
Ni 1.4582525706418852 4.461457272373924 12.877978496886723 -0.817387890644831 -0.01230195729580462 1.10981179447305
Ni 5.284492666614376 0.8039418831897375 3.8497046559103247 0.7674406121924267 0.4691589640318501 0.8306835793124727
Ni 2.505297283642424 1.6896055474984002 6.945318288547716 0.9877728402607181 -1.011931439784793 -0.4317578976755725
Ni 3.896291565018275 7.730790964114331 3.6794529491828256 0.003714472737109732 0.055825848720368366 -0.13428768967269775
Ni 4.237669928165871 3.340522780365361 6.3912587079454575 -4.485379196363572 0.1259046078153251 1.1969277115559513
Ni 1.9761931920524884 6.919936423416696 11.260660812045842 -0.3090615123849 0.08526472280677573 -0.16444415865142
Ni 7.434112726382405 8.746047071475795 11.891161954110538 -0.9054949679964082 -0.6736657950321109 -1.1281856689945473
Ni 5.290976173321677 6.589037108912997 6.652436740549522 0.536716756477166 0.7440690273460218 0.558614842101838
Ni 1.0141924792996375 1.9693859724568064 4.859506663549541 0.8541870617510516 1.8626436556133663 -0.9313342976570155
Ni 0.8351367069021246 1.3518620176403464 8.44112987828757 -1.1651131381485158 -1.3507383017529255 0.7300110065910589
Ni 3.419545720889151 6.069718395491854 13.049231863780271 0.9060372136531235 -1.176088149102781 -0.8460389787226203
Ni 4.556897080808495 3.9724103384862977 0.9994163732859663 -1.6080147111457337 0.8563383037660993 -0.5462195537612786
Ni 4.321548562015384 6.568661694824291 9.930348823832043 -1.016970801980913 1.5959135570068257 1.3851939123276338
Ni 8.097594662409387 9.218815871547658 9.383003973428787 -0.9193174757017973 -0.34183253616833387 -0.6734986733266272
Ni 1.8071410727999349 4.353448154930477 5.850397364249502 -0.5328906978628564 -1.0613215601821462 0.25027118171956897
Ni 0.7863994193213537 5.932131168989995 3.081561718599728 -1.9288840147988393 1.4653313412101732 -3.025517105798086
Ni 7.570775058917459 6.471954781655197 7.95506572744289 -2.118782351857306 -0.5166891484023295 -1.0300890845304258
Ni 4.474932977470267 0.6928463945790635 8.30088913099495 -0.801798006626374 -0.05293670009803141 -0.4328210488327643
Ni 2.7832834143052287 4.629935957367058 11.068695369659668 1.3533343446148758 -0.18473916145503022 -1.509643018643355
Ni 7.540568021961619 3.6414092856462497 8.644695340805407 -0.37297836564351894 1.3932856881968327 0.892593686553708
Ni 8.853565995116835 8.307379111960017 0.24821656855326396 0.8055752142806192 0.5209705493865028 -1.2094027040945108
Ni 4.803695786910648 5.287535567765163 4.768607159598013 0.8598082645925709 -0.14405428214115834 0.21395563511798638
Ni 3.3462941187182227 8.849255989231525 12.280533065195625 0.13796385297270433 -0.2497759872507053 1.0781843973757559
Ni 1.2996795000332284 6.926604908917358 13.759708587154567 1.3796267026525015 -2.2112513057220045 -0.5003505591433061
P 1.1801184569443912 4.021420469787276 3.65289461892603 0.575344496151693 -2.882402818972694 0.3851674515105431
P 3.153731194829495 6.897664976696039 5.769258266329664 0.0522422451341681 -0.43345354021044064 -1.3769136745967123
P 6.62017828877531 0.9677997979247162 5.593943690027876 0.7338859161654329 -1.0380255657686832 -0.745630972516503
P 7.427573726037096 6.298342935146296 5.349943713069274 0.25350640082741505 -0.6289838787437038 1.2171340113004974
P 2.099120849180494 5.852923249672845 9.309188185938106 -0.5462190395406463 0.12515873078823606 -0.4877323561586633
P 0.05038452373565004 3.012092932753031 7.339413758015243 0.9629593807614641 0.8115666559773637 -0.6986695161653
P 6.331056434752177 4.471057671749356 3.421185557892296 -2.1103226511257267 -1.2747169519212886 0.09995960581478913
P 2.697934199048496 1.7683417708924798 9.598373857644951 0.9198594642481964 -0.10536560732170885 0.5402965034086242
Ni 2.67286957254809 2.3934036115383974 11.88477278658785 -0.34126509370063807 -0.01579145850630184 -0.3619758438854282
Ni 0.5359529314141237 3.5549686955086877 10.048538249168107 0.3589856509088527 0.45324049302938074 -0.2496327768046217
Ni 5.957695238232476 4.6598470282535205 10.517032189325402 -1.3931851580632266 -0.2642926928096416 0.06270534944902104
Ni 6.058638165769534 5.68449080937805 12.983551443621607 -1.0390110696104042 0.10453179856650384 -2.2086578339632155
Ni 2.64176538844445 8.724256569617877 9.724549742384372 -0.9729357752478858 1.2734427131945554 0.5560727924062746
Ni 0.7911570738865968 1.3564217448966935 1.7764290437382197 -1.4224677090774276 -0.5692111295604454 0.17587682596839388
Ni 1.0311920304095068 6.589111100430341 6.047018722864568 0.7830358955275224 1.559509821566811 0.21760557316574783
Ni 6.373592308285522 3.034410624172027 12.932964368107227 -1.736192945486584 -1.0291825135557566 1.0804973617796487
Ni 8.034479898114638 1.357522368717191 13.274226194615006 1.598403927528847 0.5211996346781733 0.8064468182522949
Ni 6.589998998638474 7.011417685673344 10.076586583605426 0.6479753322445421 1.079805477918947 1.100764596669117
Ni 6.832126990208263 7.285056814692167 0.8346659358730212 -0.9986776600986801 0.6778199264098004 -1.3047523219411143
Ni 7.943572070117409 8.804666851091872 2.0579390204145502 -0.47472694503793084 2.158721868364721 3.662020432847287
Ni 8.845038472742896 6.3935422711494985 11.831586759026749 -1.0385667829841339 -1.3519068681397297 0.09944050008652551
Ni 8.825264239732613 0.54866374919992 5.921925888960272 -0.09153050121082947 -1.4697816636720429 1.0178953706777114
Ni 8.278133964729655 4.222510916049942 4.193646825133904 0.9676267043301463 -0.3560376240241223 -0.7118585040517482
Ni 6.7324419184660576 4.535458038657963 1.2895075161863108 0.6273154899023454 -1.5183076362968884 1.3012137126602366
Ni 7.51561438273723 6.114400023028187 2.7488015174348184 2.104254590554776 1.624564902194931 1.454991906957378
Ni 9.072173933110781 7.4959048923046225 4.377720147301331 -1.236357892527116 0.7998218567366097 0.3368183707831941
Ni -0.039636330947413215 7.110686555130487 9.420622185740632 1.6993716628931763 0.4562520261621949 1.6660159702508661
Ni 1.9146692453806433 9.136907261847439 5.572975418906447 -0.6284830278478853 -1.8213422257614182 -0.8531815033046726
Ni 4.987351981899047 2.875005148993246 8.800490029937782 -0.04849151984248423 1.3290425619470465 -1.0348291703185726
Ni 8.126701075544728 4.436771852399907 13.031647779683382 2.0358673602296293 0.1673477054514602 -0.2184113568964948
Ni 2.7143510669592783 5.5369887195520455 3.9587977490828665 1.5581869889903293 0.004054629685347856 -0.12510782294564263
Ni 2.1894552429183043 3.430302237723089 8.180492908654088 -0.40403369228742675 1.968958257111906 1.5296523718857462
P 5.6122935863292795 4.530167645167841 7.282613244831869 3.389114287337021 0.1435500888112302 0.22806919170123302
P 5.295295428146654 7.661932608285726 12.231164999929495 0.4128700596321341 0.10524013748743812 0.4063016623859971
P 5.380663141282724 8.033018565647087 8.467404266096558 0.13551616276316017 -1.307753056440651 0.06010493571169647
P 6.7023273709068985 1.6757413869359985 9.554271213731838 -0.546826076997026 -0.018672893819154938 1.4509956413137914
P 3.036167922708956 5.64297231920819 1.6489398095659333 0.08862309775604738 0.4280310836432887 0.21337070914879383
P 0.2991560286689968 8.317377215741176 11.773784585677324 1.6713432960010506 1.6835475513767262 -1.6580422080167705
P 5.672781651758304 8.49580775981713 2.403572820703414 0.23411565500562903 -0.34277253148410003 -0.31929553140808237
P 7.972974449322129 5.303295760959514 10.020476966215254 0.9437573539117166 -0.24809654266575337 0.2737877767842704
Ni 0.27267261482351246 5.464125572847175 7.782552654966553 1.7019875032494687 -3.121541381114211 1.1181694224091259
Ni 4.937046999044543 1.7842406981818517 1.6708283501843322 0.23890279198162728 -0.7007400255410835 -0.6757000518533202
Ni 8.138234503310782 1.4942401948902542 3.7465688047779717 -0.4003300181835944 0.016023114901133693 0.1593225211541385
Ni 6.0244170889977635 3.0305353184511157 5.393761489640611 2.4052963179589932 -0.8402429408661336 -2.8123266309808983
Ni 4.846906833039761 8.956303216949495 10.552403834191878 1.7693267519260756 0.09284870580162075 -0.4888775255067
Ni 5.882371873575906 0.6413936183117541 13.22718608746332 -1.901290678561603 -0.9759485939322803 0.15115438352104937
Ni 6.8955654673913935 8.438862038280966 6.870527662816025 -0.07497568217594185 0.9845409635869817 0.03881671575688153
Ni 2.984669826637273 0.8454992189062039 3.2394679406583187 -1.0102424821181442 0.32002392493367465 -0.20995139905459972
Ni 1.9646505153467664 8.530287806899606 1.6545169201857652 0.011889552348734362 -0.48061862793201743 0.5818221334562367
Ni 3.964502495070118 5.0266137307899035 8.405839624090174 -1.2122075205331575 -0.34725550695611807 -0.3087288116358296
Ni 4.24530030339201 -0.456018970333032 5.847027050634465 1.267190047416624 1.1909807499438974 0.340503018723633
Ni 0.21290874137049648 1.1693711890501213 10.864073678231742 0.05135675720542123 -0.5339749320659707 -0.04292251039513898
Ni 4.307471675840618 7.64728228785154 0.9054970905328215 -0.7973183735884655 2.0459607399098894 -0.7031707464697632
Ni 7.398902013066151 1.6616922475802356 7.537171811315512 0.11500595862495033 -0.7505363802379204 -1.0762504135778368
Ni 7.732307790219891 4.1475112642817535 6.3333344485924155 0.5487477194997711 1.432513523349204 1.7762666735790182
Ni 7.677517071626383 3.0791754921653722 11.04312482615942 -0.470944338067047 -0.6932190345736899 -0.8431439165630125
Ni 1.4101950801267156 0.7210260639596676 12.886452375410588 -1.7407821075191634 -0.03355341047541318 1.036191340773422
Ni 4.820094156942094 2.1410740395147534 10.970229308165713 0.8747677141158805 -0.0654389463301002 0.31539285391956645
Ni 5.264662939966085 6.217775421697943 2.3226908433063476 -1.3814645271921886 -1.5709016083435203 1.2829635082007969
Ni 3.2145337242072323 7.610036807808316 7.799879618540672 -0.044369270143994555 -0.770362413824912 0.03605972183703468
Ni 6.606952305050003 8.007315762309586 4.359526558080317 -0.5369157598618495 0.47622204152621855 -0.040678965776600906
Ni 9.040533310506394 3.772161545733423 1.8579334747749456 0.14343001829359814 -0.3978355338965149 -0.19205137884572732
Ni 2.3713541393697746 2.989784490273703 1.870468562707049 0.6127455625079705 1.193115536898713 0.21334936899255513
Ni 4.354280559500601 3.1520756346289143 3.5444239793931476 -0.29104245009966007 0.5517723652587078 0.26668459008058587
P 4.631193813161913 4.033351601959056 12.299836527176806 -1.6186552215787156 0.15369206234123853 -0.6177286175448587
P 3.508594512013102 1.7557262171852643 5.14587695802143 0.0019334695772869927 -1.0118553351312185 -1.4257672057643056
P 0.27794266064636536 8.433534649032172 7.723085672476882 -0.2236666917581632 0.5211317575547154 -1.2057275692357687
P 7.297080436260628 1.8996027226613956 1.8237123980031735 -0.23796613909997083 0.34425605800816195 -1.3264658023588058
P 3.0621204474174943 0.8756997816042762 0.7216882880398996 0.8280643965220706 0.727583885206805 0.28759254387784666
P 0.1945495961294242 2.8106325289036427 12.245338075076809 1.3258253405613294 0.14528275523162076 0.7115571707612455
P 8.692218242607764 6.029762976125894 0.8963138183364181 0.2738525685839348 -0.46191693775745607 -0.06800336462316675
P 0.71903106767327 9.13391985433466 3.4524284760909567 0.43687670695937664 1.5733030186961614 0.45047835690321125
