# total energy = -340896.3710882578 ev
CRYSTAL
PRIMVEC
9.03416886879342 0.00000000000000 0.00000000000000
0.00000000000000 9.03416886879342 0.00000000000000
0.00000000000000 0.00000000000000 13.22241932726957
PRIMCOORD
 96 1
Ni 6.534333032258805 2.0913649213148675 11.445246698134047 -0.21061345811863086 -0.18190400599908027 0.1758572855843681
Ni 4.583675291010371 0.3909193277746815 6.066485949768123 0.024934815568466735 -0.20372315875670075 -0.6777795600901682
Ni 2.6669408538485793 1.5484384750578875 4.7041134098121455 0.9547187380192268 -0.08236246155831621 0.6659190612071564
Ni 3.214601204590619 4.105388322979736 4.877115936735818 1.4389109422351154 1.421500974288784 -0.9322634943395041
Ni 4.908643379239564 4.366954614117036 2.5592391063121425 0.8242535074164127 0.8122544260730077 0.20556432573049757
Ni 7.231770868607355 6.118300521874255 2.6166376981934967 -0.4597749517137888 -0.030265483752760777 -0.28607893544679763
Ni 5.223710018393135 4.711960488887954 11.39009580746621 0.17517954279105313 0.2933415305464819 0.28005355518832414
Ni 5.645822524423571 7.681690546403087 12.31251877838545 0.5419530651754408 0.5606557837912666 -0.02684745921014731
Ni 1.9021894252897553 6.617655171697181 0.4231514354498675 0.10089831557897463 0.13042126473875604 -0.39854592969997815
Ni 2.926673208706362 1.7622682179145435 0.3421167475680122 -0.22433646413167815 -0.16960333425485627 0.7666150309673377
Ni 0.7497267023200765 0.008930275922675422 4.611358694662221 -2.0681812418709864 -0.3059335082788796 -0.23256785090253496
Ni 8.572676416507226 2.3405815036142346 1.5756493916781187 0.414977335783124 -0.20473257385782162 -1.0441198515918793
Ni 6.97244505134848 0.6663277724463504 4.965904651754175 -0.4780827488840411 -0.4500554104331798 -0.3686727962896296
Ni 0.6268574886768321 7.392741689437128 2.511069821342883 0.560772254764473 -0.1605975312118202 -0.2018233706308266
Ni 7.5077737615903155 3.8348691704975986 3.805914659286496 1.0465341174603269 -0.18905861476599053 -0.1600264891996986
Ni 7.642283501815621 4.0959837531916685 12.548935750237424 -0.2206901256283425 -0.7102597921060607 0.20223834668105817
Ni 7.7635762529919905 8.746258937072007 7.182391908427123 -0.1593279204707772 0.13448900705022643 -0.5024704336997863
Ni 6.996692760581116 0.411474772192348 0.40106740966030757 -0.9318323203393564 0.9828211526823978 -0.49224747042019745
Ni 1.7569019216089603 6.603028852305363 9.184821761188028 0.3357711604656024 0.09896407467073924 -0.18557142754833847
Ni -0.0013451877439416996 4.762335014477067 1.3658624393883794 -0.6651469589278222 0.7201670239174436 -0.28328646030332505
Ni 6.410546850475801 2.1206627309428256 7.009112032519308 -0.0021574126626349942 -1.1416615919937951 0.2773394986912707
Ni 3.3642522118330254 4.486756727430743 0.5721555962015669 -0.6426595764585835 0.3000757639465219 -0.6452543337689534
Ni 5.752371512012883 5.437828854653459 4.63523780980518 0.5801701996751104 1.176080435793297 0.7720058629656059
Ni 5.363215654000575 2.9351472591013743 9.122808515850625 0.8509801247779796 -0.43227237541814584 0.49221636007194575
P 0.24900879641548065 5.5795026907884075 12.458176682989691 0.9408630630830571 0.20608445990002575 -0.5227469245606352
P 4.078737524829111 6.281394372387215 12.667937436189725 -1.575025657814223 -1.0445512827023429 -0.6979313524476948
P 2.3736465616587386 8.680219162671644 1.3121398508180389 0.8313356110741746 -1.010104928099015 0.20174778019788478
P 6.2983244048395095 7.643412772923699 5.726934002740776 0.11729578310039153 0.5799812235927561 0.1334453962770605
P 4.871793004440785 1.0050693545265412 12.526298833313348 0.5760921729509949 -0.005997355234015477 0.43232765413611346
P 3.95988399924619 6.123233178074338 8.086448414044591 -1.0062863256838734 0.575868486975963 0.6093601909755054
P 4.78000584877626 1.183638736304591 3.8470101900347595 -0.609269431033912 -1.0309722584663277 0.06342243012070367
P 0.08959275604730847 5.444197943703015 3.5163704505923588 0.7913783539549467 0.3066040519833429 0.31557977311939195
Ni 1.5236487156933742 1.1230555998984593 2.5686400624326646 -0.6420427688101911 0.4937945031923431 -0.4291238024868351
Ni 1.7175671503724113 6.471256465246038 4.789186371176486 1.1115061514563371 -0.37659976444619014 -0.35333128083655274
Ni 5.923099235216443 5.61174563946623 9.121842763198996 0.2605342542084739 -0.05792592578250669 0.3665128125238333
Ni 8.660452401195858 2.259436598872231 10.318035380557863 0.8584653774114313 0.12049732075682472 -0.5990899193977489
Ni 2.216903731857607 5.143513701381916 7.007313329498362 0.10440324340843955 0.5973837353399195 0.4808903935361653
Ni 0.3755513031190789 8.809416811604555 9.27774812554638 0.9039451070107851 1.358705379118802 -0.10771251028733062
Ni 1.693509158685932 1.1957987275963677 11.709431091408314 -0.9021949570888977 0.06369393861453546 -1.9924473413727815
Ni 3.9592425732568017 6.862463079590614 1.822340020362938 0.5593550627019721 0.3242397627872351 -0.8865467090286796
Ni 5.380335403999027 7.820961293620046 8.105528578686666 1.392530298088047 0.560404587012409 -0.22983913911746223
Ni 5.348408651231464 3.0170058631836825 4.8110960375069585 -0.23532690170491083 -0.7014239389819856 0.08302734883582476
Ni 0.7916687346909544 7.550631858684066 6.830358353696419 -0.4521827411888277 -0.7962673066161319 0.680556608614673
Ni 5.0956506747371675 4.610380294174183 6.998983825805183 -0.33040321128546973 -0.7573775715294698 -0.3985582709951523
Ni 8.070313388452384 7.026984328784183 9.00836818175807 0.010976553616161741 0.39118357579763596 0.10484187360775492
Ni 4.622982959740326 0.28811319634598204 10.359144462559422 0.08326054789255338 -0.23946483513268432 -0.09255097205554384
Ni 8.297052958616579 7.058025733003012 4.722611773979339 -1.0042063032263933 0.9538491909300799 0.26325525268406275
Ni 7.26505274670461 6.11633107306177 6.908436158108884 -0.4551027430491001 -0.389453994701039 -0.3304867721382115
Ni 2.1828720177445886 5.346421134081249 2.503360965050704 -0.2674649198900362 -0.5566857433999252 0.9713339779784047
Ni 2.336046350844196 5.302722859283089 11.315786154887178 0.17276013471628313 0.12640854403493712 0.9966529163591674
Ni 1.225873475746683 3.3279529213349877 3.7165576950465544 -1.6290028833616268 0.16826610350067148 0.3062939769420918
Ni 3.4892218697372934 2.607252100160044 2.6470096704994575 -0.12585010042830586 -0.04833519677027805 -0.16413254094827218
Ni 1.1628782162536977 3.1198508415385002 8.312088525857963 -0.3442090068203104 0.722359146472756 -0.11345892585280459
Ni 3.488923742164761 2.6296297364377046 7.132926220225791 1.5806841416515809 0.00043348799299280184 0.1620949416929531
Ni 4.139889813873714 6.889493312833553 6.0535408892020115 -0.12450669902653395 -0.004157988032431548 -1.1418842495275623
Ni 0.9508462730011007 7.522905994438553 11.53786951441855 -0.0953213357118294 -0.1233702714292456 -0.4136406192495715
P 0.15872763670068826 5.5635393144046255 8.000687952429654 1.4765475216409667 -0.3315779483198612 -0.8425026834345878
P 8.65912437837276 1.5434425796757534 8.0900846670126 -0.9230846560537135 -0.1548770837882752 -0.06276114238762094
P 2.0063985631431303 3.3334276276669463 10.497053760528486 0.002182352363299467 -0.8504944433908126 -0.16631977840757808
P 3.8505163509711178 6.044527498925781 3.857032696973167 -0.6570826938624491 0.11402148322449393 -0.010669821009020334
P 7.100359848302614 3.9933104240452786 10.22365361159542 -1.1072568892616803 -0.09776928303168969 1.444214613836216
P 6.344769066972514 7.677851024635624 10.13109674474363 -0.8931112496200747 0.2055075043506332 0.5179343336633403
P 2.411310011655333 8.422763418367746 5.674176263405177 1.3065500372714853 0.3265586407283989 1.7881058323057915
P 6.844575425238669 3.767944047548504 1.5731107902271608 -0.4264197732921108 0.5591863983345918 -0.38731303709863624
Ni 5.056090049279003 3.0141691341601926 0.33784990961325284 1.919291486014398 -0.611304973406702 0.4677847093921428
Ni 1.4997352707087288 1.0455966360532198 6.927978872196827 -0.2392090103681364 0.020645444164493477 0.3327231176678979
Ni 6.885364697662422 0.668576377076754 9.33071726443341 -0.12700092620329742 0.32806659273249306 -0.5906682709929568
Ni 2.8566493658367036 1.6667499505089318 9.29351003996448 0.12103673820006253 -0.5879161621691165 0.03500994041628164
Ni 6.5094348628679155 1.8150096957461865 2.693856353146937 -0.6361472292613625 0.4045142314682711 -0.3270229819593271
Ni 4.048482093301503 6.86932001375886 10.275313699413969 0.020823621613570587 0.31284411935578377 0.31601557510522993
Ni 8.073936090167095 7.112510805425527 0.2371550634482147 -0.2590232168805862 -0.16620099344152667 0.7390957425011465
Ni 7.647216158015703 3.9345883264252577 8.162517019301566 0.8245473845077478 -0.4464334974098763 -0.5857325242542364
Ni 3.2220814964105235 8.505543507674245 12.380958028036252 0.396494189377272 -0.8027377448318239 0.3433129773686023
Ni 0.21013838145857297 4.700487094429888 10.068726649736076 0.09458394332517257 0.0890434731229176 0.41898337161872357
Ni 8.587429214263148 2.293576723011624 5.857677397966421 0.8835398038815558 0.7175151881168933 -0.09327705158829096
Ni 4.089668869155299 2.665188225088843 11.348762678076808 -1.4466394212276248 0.09892653656458446 -0.5190031412474868
Ni 1.0778124822244495 3.271335785060424 12.61618429643187 -0.6683209857804296 1.1714329097189569 -0.3566138082425665
Ni 3.086839988507184 8.386229239479228 7.918893490946285 -0.43730608118731135 0.07559840336160528 0.5023089684212575
Ni 5.5664483167790335 8.018366917480826 3.605198012536834 -0.5405561848279142 -0.02958285586343937 0.6609704589526294
Ni 2.946512243533064 8.305301154789976 3.5760962443732383 0.784560559702165 -0.11490182894691825 -0.5396025626653933
Ni 3.584911786351333 4.347025237601688 9.193587615237366 -1.0814201307042344 0.18308568501200728 0.5778500361823661
Ni 7.540504555386828 6.113891847468323 11.13629167421739 -0.4125563850464572 -0.28485149079759975 0.9076081576846692
Ni 0.49058066502160735 9.093794379125017 0.36999619268422496 -0.15355373699116134 -0.38856156479375664 0.3911663494064554
Ni 4.6622183551193634 0.46352061902141545 1.5825776957803945 -0.5492038332005831 -0.2684187991628732 0.033397087403206994
Ni 5.944998060544279 5.547557869683116 0.546398277351653 -0.23702948621831435 0.5153007526952351 -0.3408837991018194
Ni 7.915386426593039 8.663867317026686 11.42225293153982 -0.13540663376848935 0.6675666241129083 -0.20797524916483537
Ni 0.09550471615231483 4.952739157467767 5.754502672448046 -0.42155833143475135 -1.476078552424348 0.10413199202492389
Ni 7.770595802199798 -0.29828476707065604 2.562597106879122 0.2874238795104663 0.17721482805352706 0.46032233957682656
P 8.572929373235436 1.584304125450423 3.6613670540357135 -0.34917149303190836 0.11223996584403896 0.19473689609769043
P 1.611496973732925 3.300913653923185 1.4977829868170849 1.750237082284476 -0.6334959076814444 0.47812440075525403
P 4.859732389006519 1.0291273462130204 8.173557677071017 -0.38340521740379774 -0.03355341047541318 0.345093980528425
P 8.55257539078345 1.610828445236943 12.426667308823674 -0.4418173387941036 0.02676004170266359 0.12869194075247514
P 6.01412752069634 7.723039937296447 1.449151152401957 1.7489106501635685 -0.7955137162795589 -0.25346166363240863
P 1.8104474404695543 3.1937322745133505 6.056806741246571 -2.462796469057991 -0.7522754744162141 -0.11850163048303464
P 6.950510089345186 3.9389789324934625 6.007341956462125 0.44224105659508356 0.9771459566744913 -0.6216228103929423
P 2.3429755583633587 8.714133432589422 10.224394413442317 0.6458649707697587 -1.0320400376092096 -0.26176606973304595
