# total energy = -340875.0304781468 ev
CRYSTAL
PRIMVEC
9.18981415023619 0.00000000000000 0.00000000000000

0.00000000000000 9.18981415023619 0.00000000000000

0.00000000000000 0.00000000000000 13.45022192952318

PRIMCOORD
 96 1
Ni 4.250877201445061 2.529321743652609 3.3126817210417276 2.996566227091691 0.06748245912269023 0.5607455152915957
Ni 0.17186514765149277 2.871844497373738 12.390344317279967 -0.3740086066802462 0.19715913238593785 0.18725395745708395
Ni 0.5898583312572375 4.768456725278709 0.850606442573556 0.6650963081955449 -0.4134763257575653 0.4455685783064197
Ni 9.630465758801703 6.0207159428834345 5.875662078071108 -0.8935843326017514 0.7653549333079915 0.4011154901993673
Ni 4.835275864104269 -0.12297257932614067 2.2618163619775458 1.1946327448741878 0.20772328105502938 1.8010634209077239
Ni 5.722625940671257 6.710907746260545 7.1905020922064775 1.5052834561230786 -0.8939010925112219 0.4442400893029833
Ni 6.306638631135352 6.998319184407903 3.137196705588916 -0.07663430082528737 -0.03406351734261231 -0.2440102884115217
Ni 7.937665229545242 2.9250627112286174 3.094290382213498 -0.7164697775715145 0.3719949186843271 1.414788852375931
Ni 1.6820300670499484 0.22326837320791942 0.5957021340875462 0.3529211898823277 0.14376451881488142 0.08258151954765777
Ni 6.523306879806824 7.46151338798716 0.832481372087288 0.10849849652373572 1.3960015444660991 0.9526443719887011
Ni 2.5194426934205256 7.480306557963542 5.535183139021249 -0.8327021524043982 -1.2448384191943014 0.006505148108369442
Ni 8.415553945981337 6.384182283096581 8.132259544581862 -0.15928935392335794 -0.9133825982746012 -0.2517912179085212
Ni 5.01327337475099 5.6191486331240394 0.38736628992345223 -0.5224278506583196 -1.5891106751523791 1.3268283279045472
Ni 5.462094708969336 4.577345349812283 10.647814027627323 -0.34436610122346495 -0.723686864145244 1.029937132333594
Ni 4.686042471807708 5.145331004364979 2.9358745275988927 -0.8248152934571537 1.118537604381822 0.10055018821093652
Ni 7.433429315885534 4.556024980939322 12.614720982076713 -0.05405744396603594 0.7071009347621049 0.6807540693374599
Ni 4.134056283723902 4.549481833250724 8.409912319062755 -0.11203119226734252 0.4458508854335289 -0.6618811436923568
Ni 1.436055500992325 6.851521092866228 8.125198091374111 1.3868869837593405 -0.11499747398451807 -0.5131466824667098
Ni 2.9640826621918044 4.328374904335441 12.760064326035378 0.8798258453650782 -0.943962527943987 0.6471556645567241
Ni 3.8391367674001624 1.8178555204733837 1.1219825739767626 0.8069998625422876 0.7544575696691974 -2.4550001129420234
Ni 1.5138197084936182 7.123631490421568 13.730659415274276 -1.6176578906624526 0.5267645303604606 -1.8784176306181712
Ni 3.9253096548664375 6.689872261626834 12.12136672737497 -0.8139330993270111 -3.366328399790757 -0.289334723379934
Ni 5.6765482124259865 2.501246861365153 8.208670092456005 -0.8602790335814023 -0.3490113133049602 -0.6376220140346761
Ni 3.7154970075653244 1.7843494580118247 12.022480650986774 0.2644371888073059 -0.14926385136655584 -0.5898933405001454
P 7.228487270094193 3.1183428828390163 11.074226918975054 -0.8953702208575806 -1.1586123609155208 -0.4336016357525307
P 6.044489992139621 1.0951317749366682 3.632501038857403 0.6728594970807316 0.8510562294315538 0.2647207814859957
P 0.7026504344465392 1.716078328547501 8.645789117311063 0.019527528509966367 1.4791985861105688 0.3792140621405856
P 6.788589245434314 7.323574277304767 9.014002915524111 -0.3042759180707985 0.24901622626654532 -0.9576693360071185
P 8.071422974780567 3.460929965259331 0.9428326606332024 -1.2082385085830805 -1.0696095112225517 -0.967695609894869
P 5.538958314682031 4.209651695081222 6.67179405919283 0.7486872428443235 0.34948028252157876 -0.16003548806076306
P 0.5974270622071388 5.191895792761227 2.974705168390191 0.6721038498616295 -0.9254927512745738 1.5334866580301718
P 2.796589109140686 5.852661811167984 1.1153842874031477 2.1485942930124162 -1.5421037102752213 0.1762799749440835
Ni 8.003666474909728 2.0167139092845963 7.361575077876569 0.07626714729385575 0.9882405239257561 0.975847292467726
Ni 8.877967015356196 8.991222285179635 8.325364190741626 -0.6942009388709851 -1.0830101008991737 -0.3906765542542304
Ni 0.9550606273669793 5.266360856975713 12.167460997285746 -0.29923167077867174 0.5636464909884744 -3.0855713907775058
Ni 2.322569304469899 8.189732642397164 11.59606867862046 -0.29423935977040294 1.2483844846743468 1.372464123465791
Ni 8.408266423345019 6.770191237467215 12.969524084472384 0.22559347646723082 0.43989235385724884 -0.46304025272862187
Ni 6.770613968919006 4.533868338976947 8.627188014450821 0.0654263479246099 0.6410433810113991 -0.693710886608444
Ni 7.786456027202266 1.2051246607299766 9.823437152656012 0.20754844604006192 1.263860983043391 0.4607555704595032
Ni 3.682376917298879 7.646513537030947 7.600693123582419 0.6422111760672552 0.6883910170574273 -0.32127888038669833
Ni 0.9090766352262359 0.7547833312480146 4.94536432396494 0.3390364614804355 0.11205124687200058 0.2406763389422823
Ni 8.773919939330478 3.572999749054919 9.606162376249362 -0.1161866091966128 -0.42739010762518015 0.007426888591690436
Ni 3.306798402010491 0.669053392824703 9.73750320035814 0.24896197598984224 0.7127013116680178 0.889980674410893
Ni 5.869038060017819 2.8381638284429607 13.264931579928522 -0.35062262365613805 -0.4325351421612293 -0.40455768311169676
Ni 6.258621852100342 0.02551643802270033 7.857324198150855 0.05234611770188404 0.08132322166052446 0.7210648531413646
Ni 7.385596333133912 0.9221335231980909 12.279017070469266 -0.6120971302906943 0.8193247026562276 0.39406475400017293
Ni 2.147071423277251 3.3530966857958266 2.860122889400694 -0.38505200897860137 1.750772643072972 -0.05777911579199727
Ni 7.98481816604833 5.2041182456065025 4.179333579155021 0.5865059120851512 1.8924841360135667 -1.3926953629110015
Ni 2.544025446323617 5.707187052866699 3.805121589233619 -0.21441817657670167 -0.3597348703700514 0.8320735176814638
Ni 2.940409700891482 5.344612124627983 10.39786854286711 -0.6270810052940361 0.24448208584161762 -0.12785658933537336
Ni 2.0888447607000593 0.25377488032459306 7.8878830872082935 -0.4381943973295357 -0.4372965681056146 -1.9806526627306984
Ni 1.9101488241764668 3.138652372153346 10.328694054669938 -0.853400047073382 0.16838077470166485 0.18078583323423703
Ni 7.597449119180628 5.9381914116424035 10.651378756543625 0.6356036980530667 -1.0512407789073765 -0.6108982248865865
Ni 0.4665383769554942 7.64143156979528 4.050453787280803 -0.16398933050218853 0.3278938146000547 0.9729167490844921
Ni 0.5479950517900442 7.643977148320198 10.207144977558634 -0.9176028070035359 -0.7452139395837424 0.5849845903446184
Ni 7.14257169742466 1.415203812642002 1.4140220025398196 -1.3621352307359573 0.3586946020309952 0.09030177101005094
P 3.940913959326045 2.987507498509554 10.007502697598774 1.7683085950742063 -0.03463893023010809 0.06988926879196997
P 4.388117886250581 0.8985184577270352 7.245863370725656 -1.3102693951046014 -0.6216294952611617 -0.1502573256280767
P 4.244141067658905 7.497712066000347 3.762807089890709 -1.9037339978957728 0.10960252822119189 0.14297133348962474
P 5.0308259198145056 3.71244598926109 1.6058354798087855 0.46929034740339176 -1.4455389890745944 -1.7108989468064857
P 8.506422828488166 2.305375162158989 5.140311527865664 -0.9549259689340264 0.6412922637974118 0.8087232729912976
P 2.2811416221943346 5.395293949772114 6.60830898494792 1.3931715312164716 -1.1487310972460667 0.10754281747868576
P 5.388585385428466 0.2536930909784856 0.10384673807682715 0.7790907948368453 1.450960674310798 -0.6843291882832279
P 0.1367407589147057 8.318527887981025 6.355807812867202 1.1065050986973202 -0.912812584703744 -0.4372351187400599
Ni 9.059291238732234 6.8522195187431 1.9830874602574182 -1.6188688802514184 0.45859507247307474 -0.8436835911165663
Ni 0.5843766071052023 3.7340144831166246 7.355859013463215 0.771816115552303 0.5815318559093275 0.6811312501712204
Ni 4.767519364233431 8.54758400615282 11.579027087224762 1.7194067271671805 2.413576041469282 -0.3299201010014641
Ni 5.223766068300637 6.0397756174707276 5.004800366086821 -1.3493589049068955 -0.8750767607158672 1.4783789184227507
Ni 4.775909664570076 6.752969525713797 9.62019062757892 0.5780348984996625 -0.05586132994399411 0.4612114270499992
Ni 7.529609910982265 0.4351193212918012 5.785922623725696 2.5623069031505037 -1.9288462195823686 -1.000438865764161
Ni 0.49208054645786886 2.2917374779316297 1.6954269781460707 0.7330428514388472 -1.6764754750212936 -1.4698050607108106
Ni 0.8343377145495028 3.7992345942767143 4.942889507009125 0.7379999383338065 -0.0993361132981773 -0.5995848567562965
Ni 7.089978390933298 5.10945396984772 1.8991045055077058 -0.5521829704335651 -0.13351353051083456 -0.533313644332888
Ni 2.360661084201979 7.622197288738768 2.4631661094100767 0.21151257289413247 0.9760606940301125 0.7070502840298275
Ni 2.8265846625895423 2.649303957448034 7.32637625164501 0.3110787999252449 -0.5633546707796685 0.11441023402248038
Ni 3.7711597119892586 8.053824480646204 0.58962950488442 -0.513148996459555 -0.4546965087496169 -1.343677795361718
Ni 3.4768926724715437 0.2629665324568069 5.2188881149395305 -0.0615421823788553 1.5350205781761952 0.16809538225076212
Ni 5.878770073223191 1.943370002398775 5.718576908548228 -1.5879336241251427 0.3933039645747484 0.16666019246613234
Ni 5.572721691940332 8.56536629657057 5.248074964741481 -0.3436400216907179 0.04659404570945524 -0.011503886874541479
Ni 8.53022444718686 8.926287058258797 0.8500284032623021 0.7705372488398794 -0.40388071164933026 -0.8605947650496082
Ni 7.320771383983106 8.21721018676361 10.813359340074534 -0.5364637599260954 1.1113901947037634 1.1545222500065473
Ni 5.488864637644739 1.301378774340062 10.249257300989818 0.5977213211849963 0.6098942091021045 0.9477885865582966
Ni 2.6542296978428213 0.999732314044335 2.7937862158190248 -2.1293066484273973 -1.7652402405615275 1.467054237438551
Ni 7.833480306306981 4.417810175831847 6.218858445170852 -1.3430956976060031 -1.1077662247979307 1.5199194608686986
Ni 6.068787860803461 3.903419517514975 4.415263678325512 0.47546459453490375 -0.494973868212425 0.016504939633558674
Ni 3.7672908002239494 3.8498612805358285 5.248936050329151 0.14892060909452415 2.2715256771320296 1.3182377580220588
Ni 7.704317468156347 8.779755471328034 3.02951413907779 -0.20460453292038958 0.9654536079382275 1.057347663136063
Ni 1.0137651602809783 0.9758387972039473 10.854382670526645 -0.3571822791515268 0.11233098289594846 -0.358262399589583
P 6.171851626713057 6.673643049803709 12.382422697465962 0.601085609671539 -0.4330591329854993 -2.472757179815128
P 0.8222622987309375 5.311951525070008 9.727873194090046 -0.2555252310296567 0.5749416042863196 0.4908102237530385
P 2.855633665178952 7.757682719037937 9.622975141272244 -0.32224587228565793 -0.38107399816745985 -0.5202077030785492
P -0.0006147985679315177 8.793301257413699 12.2164730331953 0.4206216785530949 -0.8025901635103662 -0.20385325657666184
P 2.0428865000389904 2.148936955553635 -0.16913944876885467 -0.3570876625551915 1.6408199306012128 -0.2675579938244747
P 0.6039986983196625 0.2660267405752104 2.6893182463043477 0.07208884754645004 -0.8830620929141888 -0.35627519395622514
P 7.090731955695187 7.087956631816034 5.207347546305623 1.8494361557841568 -0.7702014627670155 0.6056917409849827
P 2.664117937889074 2.2122363955523237 4.7622931169153055 -1.9401534170650716 -0.8647825778787106 0.08025672806922307
