# total energy = -340865.8617309271 ev
CRYSTAL
PRIMVEC
9.28486507141060 0.00000000000000 0.00000000000000
0.00000000000000 9.28486507141060 0.00000000000000
0.00000000000000 0.00000000000000 13.58933856055125
PRIMCOORD
 96 1
Ni 8.596420095906122 7.705008063815002 3.388556041636631 0.40557532574293376 -0.2792629409662287 -0.48775421053553414
Ni 4.59658382650321 9.104673604886383 5.783771731923202 1.6182698132148388 -0.06367516956145808 -0.8910479393331429
Ni 1.3867595787498128 4.037950640143942 2.7446933656841326 -0.43329361759380863 -1.9206364300780667 -1.1207616086163343
Ni 5.672356137628163 5.253998691379851 2.1999642646317317 0.09998505973608587 -0.5754794790676605 -0.6466779535893572
Ni 0.4966687829452829 3.2353854810420826 12.33595331863451 -1.1456933388610073 -0.7197633607211217 -0.9915616178791891
Ni 7.400278795186355 7.073228711146883 5.871925953984988 1.1522992742132991 -0.9820400515419989 1.3376855823340252
Ni 4.430718998508628 5.329856038262729 11.007147081627519 -1.4512499234164427 0.7138547085461706 0.3708165821055098
Ni 2.759006913536598 5.330830949085581 3.9449580749413142 1.3889623782311304 0.3529376449425599 0.6554307600813228
Ni 8.112595066687042 2.7921353117836127 7.0773549051437925 -0.5293099224901335 0.07569610528173416 1.1994823596570052
Ni 5.946352503174517 0.9476690290021788 9.570073748040054 2.9444383960482003 0.33101539094817184 3.1962290997360894
Ni 8.046542537222564 2.2006429882617367 0.6755342788842221 0.9252919481176773 -0.05981362972352278 -0.13618490669541064
Ni 4.586630451245138 0.30882760803061815 8.133640141649677 -3.439399151634502 0.9382821897297582 -0.6093360226057893
Ni 5.445016218604017 3.0865955197448836 10.797735308392376 0.9884927491458783 0.8753829791023763 -0.018330937098703915
Ni 2.061481431948325 5.776420904318897 12.634959396489766 0.10272585570601662 1.2165951080778918 0.8490561682823894
Ni 2.7344205910707644 4.070726213521733 0.7399656709232726 1.90042421679625 2.1161721679279686 1.1793570496620398
Ni 1.1540715774974508 5.20144635559563 8.738352255929428 -0.011965914112624553 -1.8037664216611842 -0.6632384290511997
Ni 6.374022668997313 3.5056864703265793 3.894786378537848 0.05853939099678951 -0.8813376540239145 -0.6806267997309762
Ni 6.933491493204739 0.4720091100461109 7.3331055825188445 0.8639929920978797 -0.9469498927070852 -0.037984963884205546
Ni 3.5466234400213903 1.8374840643168162 10.6184779911513 -0.04980638199916584 -1.3737170220362855 -0.9240321075686473
Ni 1.3686912314996194 2.3118292463917807 0.5784860846585301 -1.7262600026435884 -2.0200201087847276 -0.3468418164574672
Ni 0.6769130813336844 8.130338443662952 11.385678028032574 0.39022686831132153 -1.0316525723628038 -0.8189611486692219
Ni 7.8643456317289635 1.8556452602168052 11.748676323813347 0.8431287470543609 -0.3197354471589784 -1.3004835193624313
Ni 5.747090015848515 2.7371689111047095 1.3182382036872733 -0.08136410220078891 2.9452452082202116 1.080307614366346
Ni 4.453959015552428 9.219740936577876 0.45360279371066214 -0.4074049227525048 -2.665136888534552 1.6211381359015693
P 6.607629871882649 8.122919836544295 10.896379570908053 -0.6931205613226127 1.9066313740482261 0.39541201205668675
P 4.960699091541024 8.866442539241232 2.922672157017525 0.8131602257167286 -0.9119913743540293 0.023702485823262405
P 2.7943265399187847 9.011611403196408 9.714773726313762 0.7422034348921928 -0.08944507943671047 -0.04382033961906001
P 4.100242799291705 5.396539938545817 5.685439440870838 -0.6128982860357509 0.49897784716549554 0.22913259996874089
P 0.674213971084131 4.509315380560472 0.4953791151996242 -1.6333002251853999 0.39009857026357336 0.5015888024257813
P 6.155939760357774 3.9386025848628163 8.1453409284969 0.2692184122460331 -0.5097592540517156 0.07279718646738431
P 8.308552142080327 7.379684964661725 1.2622458254281308 0.7539621180900177 0.37763411924797546 -0.0014331329021007575
P 5.464774411280488 7.9481693927642905 7.461620184160213 0.3072404000157612 -1.0880522913087713 -2.562640889451154
Ni 8.22531332753871 4.224938535966986 2.2140289781027453 0.21333239971169066 -0.9882209835417304 -0.4525403816385625
Ni 3.866812008840979 2.120291766728759 0.10123938227745828 -0.10012544196869208 0.2581019906178974 -0.12402924516948317
Ni 5.876548888258303 2.3814100245484866 6.348667559711172 -0.06909814034924229 0.3765601694575063 -0.6612339970266613
Ni 0.3012251605853672 0.6983258369495098 6.949872780488151 -2.7766698010092377 1.8571934311320724 -0.9625518609104005
Ni 4.915398235305825 4.536436471165722 13.179130477156896 0.6780724087402388 0.7159090199720379 0.9143282500173222
Ni 2.379989440206616 6.823382279412323 10.060011003875166 0.5344822107196924 -0.30262012763493046 1.974349089110174
Ni 0.3592472103290381 5.618671048316437 6.4167358333627105 0.2699858865396769 0.0834675216970369 0.34786691528787184
Ni 4.020550803172275 3.3078167127475084 5.031696740093607 0.02576168234513628 0.6763168595017127 -0.5434265643971739
Ni 7.572726592451433 5.361972386226973 0.31460000858840087 -0.6585816470054787 -0.8056418058524963 -0.4353222179880632
Ni 3.8920389869904013 7.498958340188953 11.986176670584607 -0.5007812189228215 0.8954483823936836 1.1332826239014806
Ni 6.400373115809259 5.512080798351268 9.945139582834742 1.1698131147273467 -1.1077870507335374 0.21377205835227056
Ni 6.744906600605214 8.612510766915673 4.489305568043056 -1.072091654214457 2.0683193101107475 -0.6782521288512126
Ni 4.615562090521398 7.710513988747873 9.794461080000703 0.3628703306752396 0.06840188561316608 -0.6210556250355628
Ni 3.01268799450771 7.303809048048889 5.502255554229913 -0.2666545081735988 -1.070308337061789 -1.1563737013929891
Ni 2.5591501948519046 1.5436180877142363 2.3132591155986306 1.0362862144800733 1.2521246684430694 0.1487912826055115
Ni 2.660318083669021 7.0010853102558235 7.841605140421064 -0.23078170553638963 0.4700362244304808 -1.2264144081611588
Ni 9.20681640452635 6.804004766200014 12.938286650506502 -0.625527030543355 -0.7003425329923487 1.1820965600803899
Ni 4.361296063056575 2.736732522450671 8.239542383119863 0.3198097520403395 1.9143089451981419 2.494052341748479
Ni 0.8801272071949809 5.006575609404952 11.104228701367138 -2.779544037233239 0.9838542219326024 -2.4516767049957453
Ni 0.8912690451704341 8.745358615042994 8.617936842009717 -0.17240660803160632 -1.6261487017422833 1.1030153403765068
Ni 2.3287648401144696 9.350044731700802 6.2696997830601475 0.12102722511836576 0.3102758444079753 0.10252273855627504
Ni 2.094080592891505 8.314429461612379 13.583494703394535 -0.27234410235920836 0.29518655417502065 -0.31840670104522584
Ni 6.294052126928497 7.347902871836745 0.7681730907311284 -2.1040095644235053 -0.07690503798817078 2.027613347750953
Ni 0.6946833844180345 0.20223364411945657 1.8908070438943396 -1.1693927393604764 -1.3290065665027886 -0.5747503142111198
P 6.375610380908815 3.0021032484310295 12.905930753025785 0.4795313084051096 -0.21656787592985283 -0.7034106303947112
P 0.6449601469930804 3.289497674142867 6.252998167934943 1.8106706049801848 1.1065431510241073 1.3966620608682336
P 1.6869299786735037 7.507537555430052 3.681310619901159 0.0039882952237866795 0.04886304424929004 -0.2863242186883843
P 7.441122916231372 5.463205269098945 3.7861395309797095 -0.7785788881974334 1.1797887378828198 0.5185501128704683
P 8.345004521990019 1.1313143734325875 9.352332522431762 0.09786775628276692 1.1128444106517867 -0.8322131285831216
P 3.6306421832212874 3.4867917700932063 2.647610817458016 0.8992289324820385 0.09597902390048632 0.7925381785910028
P 0.3107170780539554 2.0800325921774547 2.863314015203298 -0.09301505617615594 -0.03892238809681039 -0.3155656320520049
P 0.16108033707062194 0.5133434719620468 12.774861885028546 0.5262590514789517 0.7438623106518544 0.669223442990041
Ni 4.873291372623592 1.753140350842635 3.3292796066342234 -0.10046662735819473 -0.8759995296404525 0.4796290103252385
Ni 6.820327558834053 7.530721863283974 8.91403490015338 2.902571837721401 0.05497455646366661 -0.601061698412139
Ni 2.3411137105372637 1.3624796568283044 8.310749869620984 -0.22119611873048356 0.824469994302593 0.2205176046062202
Ni 7.480490743744639 1.23193445521591 3.2481911668218704 1.3571231222333466 1.0956306178766613 -0.07746836669080852
Ni 1.3895450382436765 6.404801996404502 1.7912240815292322 -0.5982846498876342 0.2127276762481562 -0.8920267583066444
Ni 3.6981524364875553 6.945617526868025 2.4328045376697585 0.09334852825617472 1.4337931613925756 -1.4810191842590752
Ni 4.867321204441746 5.934124335996458 7.71402831014263 0.186684200996543 -1.3394876685397705 0.49908609060858555
Ni 0.3594561197910778 5.596155250741042 4.115517330669553 -0.15931352229307402 2.0820849964362727 -0.5485096353470359
Ni 5.766690365820334 0.9425809229933884 12.24684739791232 -1.3637632532576835 0.6994429039962148 -0.8266042670367764
Ni 6.362750842912145 0.6909146577228376 1.3689902041519608 0.0390807680515456 -2.713925627902481 0.05918113834584646
Ni 5.36388506841276 6.675873629482301 4.061595477300849 0.2377447671177841 0.6753185001441854 0.7873666616923923
Ni 2.484499880416368 4.407506836059768 7.011120392325715 0.9196198374335646 -0.52983879841041 -0.4012476449018574
Ni 1.6711271384783193 3.0841721699852225 10.083601988815193 -0.05161026797712402 1.0292524475617435 -0.963804759480895
Ni 1.0867841609906925 0.868916661218679 10.587779442069433 -0.8637939887131962 1.9767237599899379 0.19321840257063497
Ni 8.46580990023887 3.4989735129463684 9.623901824272464 -0.1311648277729999 -0.7641334021960646 0.6666343421066262
Ni 1.8250237755142678 2.310603644214481 4.776597860240119 0.6001214459860568 -0.16981159361092046 -0.28038239928265263
Ni 8.856062060194102 3.523615544602079 4.460482561687056 -1.1902078763336148 -1.565866359912458 0.25169582998123746
Ni 3.014702810208271 0.07614239223774977 3.867552941066347 -0.21653419447844 -1.8594783705115072 0.8098784696416633
Ni 2.976235614598019 3.631468536204467 12.130305629662075 -0.41356785703010707 -0.20946520344680056 -2.055270190236273
Ni 6.157202501994991 5.012842893266144 5.59248865756062 0.7531198246943803 -0.7774378326144546 1.734023191528775
Ni 0.4447877428990826 0.3748875653870806 4.489006595390714 -0.5239036638728977 -0.5488667615761386 -0.19599545109513988
Ni 7.306594507542751 8.853777983409133 12.969650924407404 2.4561288272298283 -0.6843435864609311 -0.26633106339590906
Ni 6.111038153316697 6.612987238975847 12.212357838459303 0.5162479470998528 -0.9833469432788806 -0.17552869860035578
Ni 7.766288172679995 5.166303141648054 7.8992242270246225 1.0439660996228342 1.3047777758624108 -0.2960576439260643
P 3.44861240529732 4.43415439855106 9.419748998561735 -1.6985237130705846 -0.679333020620217 -0.7380156220630902
P 0.3843822683151627 7.8230651220299094 6.194795063324171 -0.06654477779976926 0.7276764449206112 0.5018489980657034
P 3.5757222068672823 6.2628828351921655 0.2424621786163286 2.062795037858409 1.4004500671557558 2.378239056730885
P 0.2812989118527669 6.852648173827847 9.524400568719177 -2.047989854524776 0.6205282917771829 0.5011874532223045
P 7.924149447062209 5.36060751107498 11.723019456415372 0.5469412624186516 -0.6820825583408963 -0.9152011395405787
P 3.664959044185684 0.5084800596857614 12.226585965553959 -1.3868126788779795 -0.840183805493424 0.11903821971279499
P 7.670329093116404 1.4359415085464597 5.366443048714624 -0.33783652763506333 -0.7061162022513323 0.5598548851565261
P 3.7800263758771777 1.7617659904086318 6.559165662148922 -1.5764359078981884 -0.9553363169985677 -2.1524100672140802
