# total energy = -340886.54338118667 ev
CRYSTAL
PRIMVEC
9.18976764539899 0.00000000000000 0.00000000000000
0.00000000000000 9.18976764539899 0.00000000000000
0.00000000000000 0.00000000000000 13.45015386499443
PRIMCOORD
 96 1
Ni 6.766536162405959 2.09487185320024 11.46023018250668 0.2831370792096543 0.4930982484562669 0.3466243011300224
Ni 4.587182775642504 0.7347007832972746 6.074532877340101 0.13180966044585044 -0.1574805828493933 0.1860717642235247
Ni 2.9608512236193025 1.4994576205129493 4.351245601211021 0.017740354702556544 -1.4264698882582851 1.8787896692456094
Ni 3.6412983759259157 4.776666593823721 4.656147386610105 -0.6980668495842945 -0.6403054744041102 1.194793181711452
Ni 3.910411530376605 2.821883557945101 2.702391766749363 -0.7499403985251343 0.8208966751290379 -0.8962623936545467
Ni 5.161285937261254 5.014598866801553 2.954420224251573 1.376254700856475 -1.4925153578241328 -2.448597037629157
Ni 5.820394449196521 3.099469678124637 0.2650632238685826 -0.8414323331885445 0.031760323130732404 -0.45790370283300497
Ni 6.023956991343673 8.453566129438954 12.156020570801232 0.24705498877511645 0.3040368054767989 0.7985915838739344
Ni 2.258008607667138 6.628165831625873 0.286855838759457 0.3261344087067867 0.6636521195498505 -0.7818400754472083
Ni 0.9619756827873148 0.581941114406313 0.15966026538314249 -0.5537675413118657 -0.38796378330875764 0.13936844662971482
Ni 8.014506602728444 0.3281537353851213 7.092118600816101 1.3114423323667803 -0.6713289193688181 -1.0310079968002697
Ni 8.654739332009642 2.9898357506353346 1.7064745963016132 0.148550370239299 -1.150187370076619 -0.17228010975607105
Ni 6.901147878236914 0.9663683917009684 4.818275104594326 0.6033733772644512 -1.216525688292537 0.18374851540698678
Ni 1.0928563529719455 7.400363623668714 2.143927751635332 -0.7459757574504313 1.2998592555148711 0.5709322260166103
Ni 7.90820856087859 4.0893638748861765 3.808128497991971 0.08132964941842769 0.712571985179005 -0.4767786853606369
Ni 8.014580120869258 4.233257255994935 12.883284075178382 -0.5097338001304189 -0.6300046066987344 -1.083264897222457
Ni 8.244985974181226 7.469645281618576 8.979483663614502 1.9514462163700712 1.3802519949413259 0.15084405136948217
Ni 7.47177730770219 1.1714196761996105 0.46311558136170483 -0.44036775083177065 -0.4111692748909435 -0.48677847688582615
Ni 2.278933708496404 6.665090317849847 9.108148680830341 0.9066005423557612 0.8078267293189572 -0.10771225317701448
Ni 0.282748931618219 5.070555361728824 1.0898053501281526 1.0135777171389642 0.6931002496076386 1.575117960417713
Ni 6.829642296527421 2.213061454326805 7.17986709676175 -1.2141972972696766 1.594832665237821 -0.21126034767401036
Ni 3.2551443412988843 4.334767428924259 0.5909755749356285 0.8511976401054244 0.1297743751833765 -0.8115152339141379
Ni 6.417940707967426 5.873989173850134 4.904612052236341 -0.49915293929077903 0.28573337918192077 -0.5953703044543166
Ni 5.931112769262834 3.370687289356135 9.338603239910599 -0.6995169517672598 -0.7188048534625943 -0.2334983331366043
P 0.5558917991622915 5.876056871560537 12.613513852344164 -0.3642834089726823 0.747502735617919 -1.6941592654543016
P 4.223295547914599 6.18734186953582 12.799663622839454 -0.038331548590346896 0.04356811439893787 -0.47013778300535164
P 2.716669908672258 8.923392998080244 1.1267620005387333 0.08393109159701675 -0.21792824661248922 -1.09225630208779
P 6.816023060941575 8.005831462112358 5.574900835435941 0.4097880782727007 0.27511857978055204 -0.44075932984323446
P 4.927332833654996 1.4119618431763488 12.277475296356712 -0.47131303426037535 0.20371595966784914 2.0472953995609124
P 4.441433061478184 6.252864912536552 7.885407828481799 -1.0598305774589167 0.1267785257798462 3.159370536146843
P 5.089982530438999 1.2055780423754476 3.7565739017459543 -1.4783753188783249 -1.4352584330841927 -1.1934400101176674
P 0.6904079414101884 5.6698384865764675 3.466817772331374 -1.2089159942660792 -0.3621961874263504 0.4556408749407572
Ni 0.3697760308071286 9.066799321506108 4.689154274905437 0.3652421733415258 0.6027475707549942 0.05695559144943739
Ni 2.0759593114757653 6.7668853735748264 4.92451800783857 0.2177348996547605 0.31216843344499784 -0.3359755631669246
Ni 6.428701925829117 6.029764924468003 9.19459222977654 -1.5533767120858797 -0.7825201322333685 -0.5336807978643195
Ni 8.906005957777666 2.861234142815947 10.434696229031895 0.7755555279900773 -0.562847906346579 -0.08635101389241902
Ni 2.5753404727243967 5.281432958886999 6.911186780365105 -0.2648269680465568 0.38406753357814505 -0.013333226773796393
Ni 0.8548772121793453 0.09093183144290834 9.20443814678509 -0.10952359535414041 -0.13844824880829057 -0.34817596188785843
Ni 1.5121946384090241 0.9948382917313002 11.301290394903516 0.2905950781495963 1.6540073758257643 0.12634040980116307
Ni 4.548071124729304 7.246030666564327 1.2026924553484868 -0.21944545458796402 0.20694346546621134 0.3853980794641104
Ni 6.050212157381975 8.355695104479938 7.5637475828841 -0.9679262378484362 -0.2039067355224166 1.2527399334295652
Ni 5.31515021621795 2.9758581141130187 4.908472673605852 0.19331507604949932 1.0813211432325247 0.7063820543182093
Ni 0.6012681146496283 8.036111746360241 7.038304240716805 1.0337392796885037 -1.1946779962898264 -0.44695234602782374
Ni 5.190518588002534 4.6337197587779455 6.773013110611698 1.246113429251983 0.043961493182614615 0.23238298858523848
Ni 1.1703720426930069 7.711703760249608 11.308270942373833 -0.1104443073961969 -0.6446652940347026 -0.11790719143214533
Ni 5.002679738222037 0.5639659289772203 10.30410871243376 -0.5369723241313978 -0.05893276978046624 -1.2748547630507334
Ni 8.646679905822877 6.83025801095674 4.842270506779349 0.4767522029980757 1.3576288582251714 -1.1433901446491277
Ni 7.745182083622914 6.401785096523487 6.8983018072106415 -0.2777950981714506 -1.2259001875289017 0.9324262451696134
Ni 2.557218251013676 5.620820266188543 2.528803489588954 1.6355250007508606 -0.5474724523317733 0.5083952838246535
Ni 2.5658658223269555 5.610297982284498 11.359004892373012 0.5632749665816685 0.05385149860281693 0.6099399747383754
Ni 1.6370743903496887 3.365375603682303 3.75166472789308 -1.3703681601687108 1.4425361976925286 -0.33666076215940727
Ni 1.3583119799171242 1.1102525830421257 2.613136148917021 0.1930433104453514 -0.08712543016459834 -0.7743010867576858
Ni 1.418633614455245 3.8103257714255583 8.466132217657636 -0.4137522051267713 -0.16855869504042584 -1.2268602374493258
Ni 3.6305371580642247 3.053088921038425 7.115158267170537 -0.2772482245290451 -0.7669058227348793 -0.1474987890463331
Ni 4.509418962196195 7.084924850737424 6.027444508148552 -0.6225275815953989 1.5262616010366423 -0.9970488662460055
Ni 8.53131156335006 7.743399268708167 13.199200716024965 1.251363879017645 0.3915957236343901 1.7168988731436625
P 0.46481660734479535 6.082642847248676 8.055364309485983 0.6421378996271586 -1.6419239622986692 -0.8502964684473937
P 9.120210250807686 1.925274692109287 8.238663414071198 -1.219826470530996 0.5810865408417928 0.6690714907932089
P 2.0386120959421086 3.480863413133943 10.41773559394604 0.6698428217415948 0.05802028526852588 0.23937073275698129
P 4.480746887278623 6.658280700056925 3.921566989268413 -1.7594488306907312 1.0043243168614961 -0.877877977610088
P 7.345133120381982 4.466778440523909 10.567072993382094 1.0895820976897364 0.13334666591566713 -0.26395433563361637
P 6.531489476455089 8.135057974128667 9.900954526720186 -0.7859114173031047 -0.026254305710838657 1.9419842996262233
P 2.439837349436068 8.67329347279765 5.881819774823616 0.39132550069213895 0.7394438698691846 -0.4859714076034985
P 6.990454039791067 4.646217842716375 1.5859746875999599 0.5041362514379834 -1.2209415579720457 0.1448235562070151
Ni 3.2339435474415654 1.8347187221612915 0.2670500516240886 -0.3291197165873558 -0.25441142914018766 -0.25942405186343065
Ni 1.4643527082741281 1.240324553677799 6.929263972214577 0.41053935461642843 -0.4223103791094276 0.11621540555201922
Ni 7.347402992979624 0.9313002385325546 9.334890573799477 -0.1771981158829787 0.35635181283043144 -0.3205530579642673
Ni 2.9572120756489957 1.8825238932257804 9.113313330222544 -0.019037733357741407 -0.46915227916363067 1.1493108810089365
Ni 6.2598031870758994 2.690405552866354 2.606370642008586 1.1561119630911703 -0.40301759231808654 -0.2684666216816731
Ni 4.538771079916297 7.058632925628715 10.645325702464818 -0.27528750125824847 0.20494237587578254 -0.2953405632543817
Ni 7.783668830339192 6.6478595035965 11.373961239144917 -0.6307368568790686 -0.9376365857259594 -1.0170661899081967
Ni 8.139533390950737 4.123209788963552 8.472305903532515 -0.022757862521805967 0.26329407634179813 -1.3865835935863087
Ni 3.3317594337949714 8.668955902489605 12.282331169557496 0.758037830821288 0.11926293412909136 1.1095042905349601
Ni 0.39343233056764515 5.399080363725058 10.204079930041845 -0.4025499086530486 -0.410408485465519 0.3173726033537566
Ni 8.683291939948392 2.4787652049972317 5.444245314557554 1.0991062351300878 -0.6676506991862824 0.8001514721618865
Ni 3.862643118382524 3.3262180039310945 11.587953248543336 0.25746487125453077 -0.598932310773962 0.4403132434447513
Ni 1.3449224885213227 3.7657002599512874 12.398271115575142 -0.7536834105073342 -0.9463461976848153 1.0263211328475614
Ni 3.3215863610597944 8.84252304318453 7.99986914089232 0.456778073868994 -0.43127735849472826 -0.291362295332924
Ni 5.872160410097379 8.162627276934023 3.1337245368602926 0.5350391116644269 0.6977652591834757 0.8546902266397151
Ni 3.2320596450831993 8.492971852915412 3.0683025813031812 0.6474297441537172 -0.48871708866943564 1.6686276968421005
Ni 3.867486125908665 4.648028226933926 9.436574433336476 -0.03675803345563992 0.3779987016762458 -0.6401005574821557
Ni 5.689624056223112 4.967023439927107 11.74366558976475 -0.6129427661204411 -0.34845518369117406 -0.23283216030751513
Ni 8.471311570678003 8.95393978558858 2.1795031799753644 -0.06759764454431584 0.08402262286955851 0.6712039637551795
Ni 5.141537126685017 0.5421760710166266 1.2429519082351494 -0.17541377028904628 0.29228583558845794 -0.025842157874084528
Ni 6.582979744327894 6.216592899812303 0.15194361752792312 -0.3417014099071083 0.1326871779547973 0.057709438896326425
Ni 8.440617746888039 -0.0471747530070062 11.310920352373426 -0.6136811869483625 0.8389051958913165 -0.24143070060980354
Ni 0.26216017628317856 4.791232375472552 5.653126894192621 0.8747815980729514 -0.28793655748082664 0.9053185903195441
Ni 7.800421776677247 6.481276586278932 2.495541125754291 -0.10796139307334311 -0.0647113241354563 -0.08416377643311311
P 8.566241870004449 1.6086412493897642 3.4202265695670806 -0.4091345038491019 -0.004796907168011093 0.1986701697138256
P 1.7778248709386368 3.09135511333226 1.5994248314619333 0.26369388288337814 0.05655295669438003 -1.066459395629344
P 4.970828003714248 1.5254279037555953 8.218380677997297 0.4185370281099244 -0.11623160350193532 -0.5223813136911004
P 8.801104760603282 1.9426433528766616 12.448964630596873 0.5221473433034234 0.2588967186050509 -0.1370480260266543
P 6.818008050743561 8.222075883549975 0.9810646680497439 -0.8879723857316126 0.10402606257467892 0.5785483478009713
P 1.9201192324846852 2.959123547310167 5.838079237969397 -0.24971042412009256 1.795678759557043 -0.21845943652561084
P 7.188236218116697 4.1041594007250515 5.994208794639933 0.6674825490395343 0.04725353367032507 -0.05099166055651864
P 2.9299552249420997 8.880678958267143 10.148544326470732 -1.173958761464604 -0.7761013731912182 -0.0998369641939958
