# total energy = -340894.63827291154 ev
CRYSTAL
PRIMVEC
9.02599537165335 0.00000000000000 0.00000000000000
0.00000000000000 9.02599537165335 0.00000000000000
0.00000000000000 0.00000000000000 13.21045658801353
PRIMCOORD
 96 1
Ni 6.309955901809187 2.0566813167717966 11.417070677557826 0.21160873215236456 -0.1851492524092553 0.036278265605743966
Ni 4.620072977709148 0.20656621819892873 6.176522809665253 0.10888596177014151 0.8439270745859401 -1.6052965408836226
Ni 2.7592106266594305 1.623298157557896 4.941040977186604 -0.15940196824182226 -0.12982014081964738 0.4543342403141917
Ni 3.4132432643726127 4.4158417844667675 4.953696325047351 0.5924083936125152 0.07476793704050994 -0.768309130840309
Ni 4.827788205096205 4.422782774770537 2.5392877407732217 0.481365533400371 0.09726277570891635 0.038881250446229816
Ni 7.042325151806393 6.110508486019338 2.5511641452487743 0.8036959949800353 -0.6851601688249555 -0.4666796492534221
Ni 5.2779687413651315 4.432612083536212 11.3436469144576 -0.8116761849720344 0.08253266858759335 0.5103956020841339
Ni 5.415903999911561 7.687349846316503 12.55956399975491 -0.5640067025413705 0.07465840804583918 -0.6624359877545625
Ni 1.9650855175485815 6.466006332708887 0.35910102397077737 -1.0486578486715488 -0.14209201620846498 -0.1218371226141708
Ni 2.804015666799757 1.563194055564657 0.469939342346926 -0.6275720859978418 -0.46023157963523315 0.09772480294699944
Ni 0.7284781434693071 -0.39308931147126397 4.525347865952361 -0.5829318215806476 1.5681230171571188 0.5928439384880371
Ni 8.625024382984114 2.3955803583005753 1.5299422892719565 -0.2666917891694375 -1.060402905022619 0.3923110045338598
Ni 6.824139769994925 0.6594771180138763 4.776451954833891 -0.7904656123326902 0.32457683441167967 -0.314462114575181
Ni 0.6917044338521192 7.4155410270607005 2.500606838371656 0.08923244920527212 -0.6663895730856717 -0.8668052647356942
Ni 7.626668080630884 3.9423471026131387 3.7612152362698557 0.7314120007036436 -0.47271094304916655 -0.3148282396653481
Ni 7.605023744156971 3.8065058749515908 12.709634708838944 0.42212371701991813 -0.27855640181750735 -0.9384146015425645
Ni 8.09939555289307 8.952911710376874 6.680237426026101 -0.2840791314079495 0.2229951196124353 0.36661977041534277
Ni 6.746931407110083 0.672528707063617 0.1991315059580771 1.0899677631639293 -0.09340175009161333 0.39176695910493176
Ni 2.0370136732452506 6.620829228262277 9.131436869308285 -0.263203830620837 0.244666691048598 0.11992884984786444
Ni -0.0030552993729856363 4.832833736409348 1.3287077264338036 -0.11546644320113661 0.45432909810786914 0.21292847940505266
Ni 6.339281360192732 2.0850951496408032 6.986468683151196 0.10591659472917242 -0.3863535013988443 -0.0883850136033123
Ni 3.190617092925963 4.070823118196824 0.4497761716842595 0.72037579749414 0.4084457053121933 -0.30026602558045706
Ni 5.935494439218181 5.613230306830946 4.712882773285884 -0.49057805313757447 -0.2056167762349878 0.07057472489476878
Ni 5.272760742138505 2.963297403978716 9.331298578277513 0.6726090716328222 -0.03993360297014412 -0.3767077507789641
P 0.14794237941741706 5.563767853170795 12.300744490182014 0.6305000582779141 -0.14539511243976894 0.31947910817379815
P 3.8995729113913393 5.871427925335015 12.633634926710506 1.262355087921826 0.7769693776184683 0.2412700066622232
P 2.3815088317939734 8.412760054019554 1.5685166849302394 -0.09986498921845383 0.276710092637388 -1.4623514326462428
P 6.227765189577554 7.640261229392232 5.641036690223434 -0.5453996289631446 0.5590377885718695 1.1963954932015652
P 4.674797586567086 0.9568096464777411 12.759940190450166 0.2819433160118693 0.5860824513944873 -2.137631623353325
P 4.076491443178316 6.231483899597261 8.25469863139075 0.5330120539320692 0.38103208918593084 -0.4913954068325472
P 4.729657585352926 1.0460947909314307 3.9888706922382995 0.6119711462357912 -0.1670908522456477 -0.9648401427239448
P 0.12754453287972062 5.715160870550671 3.665545102816314 0.5138411374305731 -1.7112828125084656 -0.14277207299462508
Ni 1.5247794200212985 1.1076972081267835 2.834607472308945 -1.3281511604810288 -0.09892473679237156 -1.5201737429713498
Ni 1.9475209309021115 6.554379851648037 4.815621163575423 0.15113767135050102 -0.6283637286612017 -0.4664641908085063
Ni 6.155304500164472 5.523232108756974 9.15888853108967 -0.6917470780138538 0.49975097788609424 -0.353425640322572
Ni 8.630846149883894 2.215647144118984 10.318053769008591 0.28000341867667905 1.144662840713964 -0.940271452245645
Ni 2.390038397251792 5.114273292536571 7.236053697041666 -0.3891567751755943 0.5317146752768842 -0.7210604822659904
Ni 0.48071367280935723 8.991705437718357 9.01301852016867 1.1497785646739747 0.032321080730208854 0.9271043187360678
Ni 1.5277760504255267 1.1743993126064405 11.317939977547113 -0.16511290258367048 -0.36373499266838005 0.6660460737033238
Ni 4.146731737773808 6.83699278715041 1.5359138876919487 -0.1450431284169889 -0.8249842149348503 -0.44468180482609226
Ni 5.905943330954798 8.161891543612574 7.89673488281435 -0.2604941449991578 -1.2419055618182224 0.4097441124086427
Ni 5.438775871731784 2.940506766115234 4.708642360743997 -0.37263743736433247 0.2350800758014274 -0.13096222484389058
Ni 0.881350521461391 7.523194071733077 6.893533426241272 0.5657902768043546 -0.023349216248901725 -0.15258237421682755
Ni 5.018002027803146 4.529388804000473 7.009428107124795 1.0584470668478287 0.8859962358418483 0.15658198229452389
Ni 8.05366986124301 7.213674644559005 9.06456597871851 -0.5708530360392426 0.18481655166018493 0.5389291907474525
Ni 4.617879660877138 0.3284478416942736 10.380049719594378 0.521011172816451 -0.7038394904020137 0.9132674128529755
Ni 7.951188711816483 7.2892312503234455 4.475082098719993 -0.3252239810773754 -0.011517256610980166 0.5440238316615404
Ni 7.345020926614211 6.2551681109848944 6.913164063187525 -0.36230134554564697 -0.5183714212007587 -0.1484282428391379
Ni 2.1416249575374326 5.14812077451204 2.474159769855304 0.010818944992374915 0.04341976174653167 1.11390679047803
Ni 2.35211116544888 5.131224111509886 11.377637909756645 -1.1941066971673888 0.6277926866490802 0.17008670164917802
Ni 1.049569799080912 3.213597276688508 4.0462435280859985 -0.09130990055959114 0.831948047847193 -1.0250517792168348
Ni 3.372355506146246 2.5542122238256053 2.9421269322524597 1.430918410947942 0.939875245248491 -0.9465171760450408
Ni 1.0309311190064208 3.1644056028841603 8.337040077742113 1.4121398447888585 0.6380560162483011 -0.017156971395260776
Ni 3.7719994953269995 2.63860527888444 6.816291667174214 -0.04830922862834906 -0.3192435951242244 1.1876285456422129
Ni 4.136929506993712 6.777294854940877 6.006742034877265 -0.1303580156009884 0.462842534895519 0.20104741169675053
Ni 0.7383399458176796 7.398165986313294 11.050533136147157 0.31293256530453206 -0.6857962597470576 0.8824838518132156
P 0.2598674276148581 5.81162168118316 7.988891196339078 0.43148947450553427 -1.4516337891184226 0.11213557905569074
P 8.530088965539319 1.5972491354295753 8.050901588517176 -0.385211160264285 -0.024259643878313062 -0.45153353764060294
P 1.953965491470241 3.2905438857127405 10.41643170102017 -1.5909520992364923 -0.7734544224866744 -0.5607665983375181
P 3.851861500798719 6.144671877826578 3.5758194897971833 0.1175490367617782 -0.07068605366165245 1.1415232666437178
P 7.146837150151447 3.862232369276002 10.26957063582693 -0.9838071707447509 0.3424974234458424 0.09646933327334355
P 6.351746259554899 7.758131700623604 10.362189080305562 -1.0556774745224915 0.6704195201806713 -0.8632363164375134
P 2.448012364379375 8.684243937448393 5.712148895954614 0.4418916436754648 -1.3363190410038017 2.14961013587144
P 6.917513690271252 3.8330242488299713 1.6609112847280751 -0.5730045351646067 0.21951615992489934 0.18937280357229966
Ni 5.318685005682822 2.9699315104459076 0.29946356592904033 -0.3216385777189622 -0.14891238156440806 -0.42188948952192495
Ni 1.654871088744613 1.1617990233163726 7.218523409176932 -0.5344097056105441 -0.03194775655119014 -1.4559732970340409
Ni 6.838897272136229 0.8701546770234253 9.284876982398037 0.022096060568090978 -0.24276176071640124 -0.2530783121510609
Ni 2.8340000228324254 1.591039250736476 9.34545946213653 0.07342864940379612 0.7671950718405239 -1.0512538915334992
Ni 5.963998532039122 1.8783637557298343 2.258683991800913 1.0449716580692132 0.49439819821461306 1.9429839445353312
Ni 4.109499507600792 6.806033623636849 10.530569923239048 0.6887414584183106 0.07290465857952605 -0.1366577325667711
Ni 7.994062188985411 7.147884165593888 0.1430060626461147 0.5712003920763323 0.13068223170962653 0.4363270051034937
Ni 7.8178476848235245 3.763984411595209 7.992392379874621 -0.9347487226552031 1.2257320373821536 0.6641539988869336
Ni 2.8387476963041847 8.450434557957049 12.38858096240715 0.9442633470138577 -0.3567732166385662 0.3474537390098532
Ni 0.14606136201910033 4.796143065947939 9.999351294324693 -0.056213056856458034 0.6081435449595849 0.8713180650043834
Ni 8.653654839737763 2.5179638271286766 5.982658874502079 0.21521187612259063 -1.2063032392335804 -0.3540517039423451
Ni 3.667171587150175 2.554266379796766 11.452633098620051 0.9030004837093286 0.30931270916375764 0.7368485983381825
Ni 0.9927240813525117 3.2213054765837215 12.656607889676897 0.6344976094730814 0.95058234725335 -0.35123146088473056
Ni 3.305527037733881 8.618408328507309 8.056225120482278 -0.32067415692316387 -1.8140408070039984 0.1814337512308811
Ni 5.526526597002586 7.816015407799252 3.403396806216069 -0.09401238709241873 0.36301996887922644 1.0096020203206677
Ni 3.1808509661266413 8.542454578954358 3.6026501631092573 0.3186162459528707 -1.0408679203134847 0.3672661457500901
Ni 3.504811985610247 4.407592024859946 9.32156223726233 -0.02326951205090186 -0.012179315675011283 -0.04154182799752845
Ni 7.025347254847498 6.079576400491357 11.450268287879366 1.2859398172203014 -0.8765165784861872 -0.3425827840707971
Ni 0.466930075549427 8.9967509690315 0.5251197639621333 0.379750651370346 0.5356026974773808 -0.4444542621963184
Ni 4.582425551757234 0.15312871625557817 1.5130068144904707 -0.8206778742500125 -0.033245135206374996 0.5698811590442766
Ni 5.9800286995027045 5.327963728741697 0.4474980104974306 -0.7240835853630303 1.5371913605752685 -0.5876245990706267
Ni 8.010886644026018 8.899026519071928 11.279800634857155 -0.27380320340323816 -0.3033068692893099 -0.02083493446748025
Ni 9.105333691208804 4.885130352560245 5.933476226692924 0.5697775435868768 0.5386579393639368 -0.6213916682187427
Ni 7.839410787340697 8.84093521400683 2.4591657866399315 -0.14552983824542032 1.0118558493518508 0.18630162084614366
P 8.589940339667141 1.5317926182866155 3.8837286794287427 0.1620052101926242 -0.2830614887767125 -0.643946156480491
P 1.726203528758514 3.072448763853207 1.6366828058302751 -1.084827099503254 0.661815580561744 0.5462426936897302
P 4.791016300678056 1.1755997699671705 8.288715802075858 0.2795367634529057 -0.2898620566383137 -0.8547334211728247
P 8.644782286462593 1.600453363723253 12.372159969351692 -1.263196867096831 -0.3788623352281217 2.038253343963303
P 6.296823078802705 7.761317876926895 1.3177537786670226 0.16052348344077516 -0.41998198808656706 0.44883233665935607
P 1.843243608432088 3.419245551176262 6.047759767434417 -0.48801517750640466 -1.282520250015791 0.7422250321587476
P 6.969250694720155 3.985906555416768 5.879406002486512 -0.6663990861673684 0.7628622487931249 0.929726072629631
P 2.531791651765055 8.571346789568617 10.200400824261383 -0.9357432253579885 -0.6096697517961243 -0.11356588374431409
