# total energy = -340864.460227513 ev
CRYSTAL
PRIMVEC
9.33054785872852 0.00000000000000 0.00000000000000
0.00000000000000 9.33054785872852 0.00000000000000
0.00000000000000 0.00000000000000 13.65619993748030
PRIMCOORD
 96 1
Ni 2.1446357399843947 2.160003152193845 4.031829536741954 -0.4794991696155935 -0.8002139499687058 -1.9624322830679297
Ni 3.634490958286722 8.762186801532234 11.59206543562214 -0.45870048770268745 1.0334613434367685 1.5050312309029563
Ni 1.3191061937528827 3.4233686534517336 10.612738604065305 1.3328143702846529 -1.3187566066400063 -0.14059254884480302
Ni 1.8249711727131392 5.41407834655131 3.868542151259842 -0.45849171412599105 1.2524614829571978 -1.7282621206752817
Ni 7.729313822320516 -0.053506959354166446 4.372318953624789 -0.4538431596103862 3.0385384577584182 -0.8821182409436809
Ni 3.9147246305991823 4.537818611987812 9.658989603164066 -0.169590735849366 -0.10540777341355395 0.6505132681750474
Ni 7.222189219408665 9.363764539718076 8.58965377624542 0.5699824605088313 -0.904812340107087 1.421724917374132
Ni 5.1803947771611 1.1398103874281762 8.704024831885842 -1.1749458079682216 0.7541593217024883 1.9090258424223312
Ni 7.984438990531197 4.636087941307744 5.277834620782537 1.5553340929225665 1.9868582773207784 -0.28836516037781307
Ni 1.4775948785068098 3.3596503425966433 1.8202489824768293 -0.7186608716855624 -0.3742253506767426 -2.1280110695444256
Ni 7.200505026345664 7.415956705355021 7.516781671714521 -2.01956039553949 -1.4540657955986829 -0.9242442235794534
Ni 0.9817042551336219 8.245750311926376 9.48768541102114 0.5938307278813386 0.08205521473054256 -0.7270609228237994
Ni 9.193146142837685 1.4612477587794532 2.997604561155525 -0.693386927610122 1.083355400053734 -0.2046415568059121
Ni 8.420026283540283 3.6179012443168364 9.882486080477605 -0.7423268478439344 0.23118408318113087 -0.792408594991674
Ni 7.026854201433658 5.791517665735689 3.4135174610954877 -0.6962853322038396 -0.37843990297872243 0.8557960581093843
Ni 8.05082583805411 8.020193649660895 10.554125968960676 0.4837836559235604 0.29101571062678266 0.4465260571236826
Ni 8.140408427381935 1.7753886417592732 0.8337740182583915 -2.38206871488962 -0.12426475821905696 0.8532699492534208
Ni 8.933197081419786 4.976270383168302 1.6988856143228903 0.3120671319804432 0.20361825774772027 1.573960192664186
Ni 3.1265919199083356 0.1764882444948198 7.681448112159934 1.0654962603851261 -1.2780120777327928 -1.5885316627204578
Ni 8.142909014189545 1.9614024424924827 7.810267521052532 0.28781802962509145 0.7184317863938917 0.23647104261168309
Ni 1.019828873401875 7.233273910182695 11.67165314215776 0.49272878093199013 0.15041056337648934 0.5238147037035172
Ni 7.825595744961266 5.715772278779821 11.131346312141801 0.48222556740782113 0.30017835096265716 0.20400340900128094
Ni 4.9203710713608855 6.81663695973426 2.2164968198954584 1.6016689714333643 0.35864780795345974 -2.283848203253125
Ni 0.09459122738127657 7.358424547684426 7.2168782716068325 1.67135795128907 0.41824160835669255 1.251442297664064
P 9.25832001914795 1.565871191144094 9.674175069691618 0.21873094501944268 -0.25727075296585367 -0.33023377558714095
P 6.267767486011796 3.2729322314402203 13.227326977622615 0.057131969126301606 -0.3820163074760711 0.5516895757369144
P 3.0523767427899595 5.8326000676532415 2.064216681640722 -0.0798882889862108 -0.12105139348808186 -1.0807601285227322
P 7.647988767786474 6.709848840282435 1.718577735432814 -1.7010863315914382 0.07024973745518225 -3.049670820226154
P 3.7209384835572474 2.4321565701205228 10.133295870335601 -0.8556289364039007 -0.16568548725768883 0.21421325965474722
P 0.9097750622236945 6.565505265977522 5.434375087157998 -0.4812981704975453 -0.07433804859194294 -0.28420151591842663
P 2.359284991883847 2.2701875910410796 6.067258679287463 -0.7125637576488889 -0.8839146707224713 1.9707094354750578
P 4.239306396555551 4.864630378865892 11.850413375039345 -0.2447137422364495 1.0994507629537 1.065861099923713
Ni 8.452244665057728 7.066732962686354 13.033941111080853 -0.7065743728346735 -0.15697150442345867 1.3448306780192387
Ni 2.056555368850692 3.546886445090289 8.099997824905234 -0.35553677312830384 0.24487417907371378 -0.07656385259866814
Ni 0.06355409321399387 8.894475308093 0.868090839973714 0.5357291957529161 1.5848367303673738 -1.3079595160245021
Ni 5.872142929185511 6.398105908084538 12.284174679846009 -0.36206711804765385 -0.7908075690531413 0.07618384355143008
Ni 0.4178433902776284 0.7371216728703951 5.423996718851641 1.2574172843005762 0.2540064803922852 -1.6946811993960427
Ni 4.991805745237965 8.140249808069514 -0.14405899259733074 -1.2260925060453658 0.4460313768754512 1.638698513382836
Ni 4.295718888491394 2.0303738517531107 6.78613446595532 -0.20416281739728065 1.5532743821800603 -1.2793315678751644
Ni 8.444192402315315 1.8772968847171438 12.094257910972415 -3.8353726926216143 2.053665821863631 -1.3283923299575575
Ni 8.944048508499076 7.8403193493732335 2.7753219881094116 1.0346463648838051 0.23228168712068384 2.3553611236914467
Ni 6.64327538180373 5.492930805921111 8.926361522109136 -0.09277620069247249 -0.21134493696801665 0.4513574170740549
Ni 4.647844431522624 4.4074335371761215 3.015466028789132 0.5406027217951334 -0.9081961689776552 -0.9817155783230447
Ni 1.003556398056835 1.171272994574664 7.5223949292647365 0.7863307642287103 -0.018255603776078235 1.6866251618607855
Ni 6.034074586073796 0.6583438578829109 6.6393033676097035 1.2747658028813529 -1.8513107470990504 -1.1117614620002532
Ni 0.6507152020101444 0.5874410252298381 11.418535907831398 0.4708198966740407 -3.040263410869325 -0.6203259459583897
Ni 6.202295032172263 4.0910533227268004 11.138024185194809 -0.29781936381217744 -0.2898229758702622 1.2857148456936889
Ni 4.9896690497941485 0.20674347875733506 2.888382101785397 -1.5937456028212293 0.3368577086615618 -2.759425926327125
Ni 4.058825610661566 0.09478157055618414 4.906426567689347 -0.4649755220781218 -0.2052434520559691 1.703397239112802
Ni 3.2860136594412217 6.6018290885223845 13.225578432966845 -0.009740624326531612 -0.3459144195471913 0.3446862035670451
Ni 2.215212003464832 8.286954010965191 5.926039905437283 -0.699803372659427 -0.09318089233005887 -0.9477016832714453
Ni 4.07705750104242 6.328667971434432 4.25316879140654 -0.16883765973342535 0.013757201685092438 1.9921074415348594
Ni 6.206932314423688 4.891241101161794 1.1371082607883116 0.5568217547571571 0.057342542475210916 -0.5540652750579426
Ni 3.317737521925818 4.056446320975222 4.908229229522295 1.7281356223997464 -0.9095441983651175 1.3226803671744447
Ni 2.3771156687097483 0.8887869280257972 9.599749022193198 -1.4182405583699575 1.4866588990433558 1.7692655596708369
Ni 6.81842842490986 3.7322750991215954 7.267392924284878 -1.34338546093228 0.6658756095637306 0.03999479522538273
P 7.983282002605288 9.193342084341266 12.831010094150342 -1.0996682782811449 -0.2888261591746316 -0.5910529080258854
P 0.464250735818698 2.3177547236723948 -0.19339053181565694 4.537702174137005 1.9039648829596567 1.0310997851831274
P 6.070613011217819 7.600281676938316 9.495114393171209 2.604738847062469 0.7729723406439333 1.5426567545652141
P 4.973975068412064 7.594403431830876 6.005477390153491 -1.0814188451526536 0.6630396827768323 0.5640529823982737
P 0.4040603050828503 3.8000242066217877 3.519284818619132 -2.517203068833329 -0.6868833221636493 1.4901679406378787
P 2.178067092714486 8.73741419715088 13.545598494108884 0.4066546748500416 -0.2674844602740619 -0.4142312016457188
P 8.197166149585994 9.304963427548097 6.587696107785497 -0.439516715685385 -0.2464314962585046 0.8480069010822686
P 5.922369267936859 3.2046326216204424 9.271999535262266 0.41620452332200575 -0.17221094708103246 -1.97796354593431
Ni 1.455462819149909 5.027093876978182 13.580352918515539 -0.04027041748427258 -1.7819439264694537 -0.8378790686196473
Ni 8.302032176193165 4.417277265094135 13.293409649287586 -0.391117755556707 -1.1450320511279248 -1.4709803119658342
Ni 2.949628750531026 7.937413029671678 2.9887545365771016 -1.1122258032311811 0.5887008628539409 0.3223145207400642
Ni 4.825059525690252 1.9307795846470577 11.934139179519649 1.733011462434809 0.6760481792213583 -1.127985380058283
Ni 5.9039321055046345 7.874217229492804 4.05539943351323 0.8551617669594949 -0.5643193486857829 1.2808004391112071
Ni 9.307352047782231 6.00076453046497 9.40577626419547 1.1508201185646116 -0.6172079691546983 -1.0080290194065928
Ni 2.5136122523236186 1.5526404743784592 12.110618093466679 0.318660983147877 0.8967766142868041 1.110025967366385
Ni 5.883106322838277 1.662078469402527 4.549262528851741 -0.1733723143789853 1.5032594837145143 0.1060898870822431
Ni 6.911668588971205 1.4699531598671378 10.325152460094651 0.16935753679263735 0.9322064158493236 0.4656882318744302
Ni 3.19113131896891 6.596603981760216 10.810043300678693 -0.11409090300984867 -0.9741269673425095 -0.7594259694180662
Ni 6.043386472767804 8.746474159054568 11.698242404193747 0.6819030953402385 0.7154428789688969 -1.5478699233350375
Ni 6.094293941507792 5.7465350948420895 5.704658663307643 -0.8295674634301585 0.7670852857355369 0.6752673351912758
Ni 4.437925767352493 6.929975123734375 8.472046886631569 -0.6196849699402812 -1.4171570954977917 -2.35394830250432
Ni 4.349892048957737 1.2908626255938023 0.3191728474027444 -0.11324552429041787 -0.4153917976127233 1.714094570925648
Ni 4.259563015806744 4.415439147179587 7.381052992183734 1.3168221086214549 -0.014524161758104018 -0.8654495220387481
Ni 1.0831459707020132 4.010941239405405 5.678644163015496 -1.0552373016612795 0.30628857762545314 0.5326464430625343
Ni 1.3096543488420307 6.882986485066014 1.0762544281046242 0.3870369006191141 1.1673255724188025 1.166032564638992
Ni 8.19477752935186 7.409126744373044 5.222212426244472 0.0065056623290017 -3.2659815858398784 0.02754191417401063
Ni 2.466866207897787 0.7261134925882402 1.7826123518579717 -0.4705118785153187 -0.28052715239063303 -0.2125569549982468
Ni 6.668878404938358 8.873929441860328 1.1509883836801014 1.3535066085266818 -0.4227580081698074 0.019293301011973223
Ni 8.06595998656882 2.546073228083592 5.492974659495721 0.2085825437315311 -2.508282369304932 -0.657036671115862
Ni 3.911430947229458 3.9606122646283723 0.38026274294550827 0.044968337180574164 0.33879066401821656 -0.36412837145205673
Ni 2.821660287596838 5.976393139638568 6.359924373474769 0.10084046575784568 0.5018315145642067 0.43381143777049164
Ni 7.123957212279891 3.3464289563787983 2.9707428471240824 0.745797065780722 -0.4097536254903395 0.4488899293701688
P 3.4002195643857682 8.352874331098624 9.561907119522969 -1.0133164930577774 0.7558737332904337 -0.502829616811418
P 2.3125669391013846 5.886334692373473 8.477031265260766 -0.31979689652453314 -0.6960104812758982 0.8589844831396948
P 0.5664398282650354 5.114474457027667 11.627667073768087 -1.1360542731093466 0.27745262723036734 -0.07752775917383423
P 1.2525327352741784 9.295464929898298 3.519503153437408 1.06689931138024 -0.9474944523566456 0.38240402983279304
P 9.112959415133973 4.13875108302717 7.567091052341196 -0.7281484994610234 -0.06188593887151922 0.1653813257537087
P 5.496802983253789 3.709555215253951 5.359880926660714 0.15866997517180415 -0.5557717162260879 -0.3379342295551922
P 6.866032879732335 1.1051474023898598 2.6881550776043093 1.0658425879809514 1.1106330048227646 -0.3510229444183503
P 3.411005677630531 2.67562788414201 2.1330304046437063 2.3161895956983076 -0.6961369795514333 0.08495284799331176
