# total energy = -381175.4578651753 ev
CRYSTAL
PRIMVEC
9.15518088901431 0.00000000000000 0.00000000000000

0.00000000000000 9.15518088901431 0.00000000000000

0.00000000000000 0.00000000000000 13.39953265093429

PRIMCOORD
 96 1
Ni 5.083780517808278 0.38050489068233234 9.179966014922092 -0.8999221018943212 0.4951214495338827 -2.4279809040407025
Ni 6.507566818278285 3.3749110327968035 2.9028213723762315 0.9671299671993859 -1.016908838394726 -0.9333258741657475
Ni 1.5509975419743487 3.4566027138290623 9.809128371069008 -0.9488748776439401 0.018539967785716458 -0.2325855915143478
Ni 5.678556013711199 5.912379339225477 6.452893907733799 0.8946017181226722 0.12859860970772044 1.7028038285031768
Ni 3.685143499843664 5.879722808211012 0.33426207090266835 -0.06226723347033792 1.3912504029343586 -0.0081442263736892
Ni 1.3834211069620799 4.9983535228837 0.6574399640371247 0.058431404664015495 0.5423888671612788 -0.1674783174920535
Ni 2.0999330460663845 7.896307085464477 11.360271480422982 -0.08673385115313449 -0.0127999799781457 -1.6741982489513427
Ni 4.437296559003845 4.579815263321808 2.2105074924601333 -2.0232332164053863 -0.4229223016618136 1.10248980689034
Ni 6.034930593545529 6.9537720351504415 4.201249439998282 0.7651160778243081 0.47768397078372576 0.5636354352448809
Ni 9.068206888092888 1.7977937591195479 9.975496322174937 -0.3377570805473796 -0.8786858182233641 -0.4298437113719951
Ni 3.6900506769178874 2.0070628889004944 1.9929932065727596 -2.7449477873156085 2.0258649976012784 -0.5525658076942805
Ni 6.774486123500242 9.162871460756069 10.906295345825827 1.131143980291923 -0.5046692411233179 -1.5920756713179742
Ni 6.841657687294222 3.740614742180822 7.298872924967611 -0.01944293921596006 0.9036406883964889 -0.07110180104283238
Ni 8.4545717191062 7.1786232831782675 3.365815360365384 -0.4278981576098501 1.289833752958069 -0.9449832558990178
Ni 5.623771409957188 1.5957114465088724 6.971723514268233 1.2759482532252284 -0.15537562069124852 0.4266192908974265
Ni 2.469161500177224 7.761707612805474 8.902757201652152 0.15339381437452937 0.04765771108727922 -0.4912663374538507
Ni 3.5661719213370846 7.066170193621029 4.751809073218988 0.23350476089450753 -0.8059194849939153 0.44529398448879437
Ni 0.3483601342918397 9.07185980535523 1.8686319729475325 0.09933791307039021 -0.3831259956004821 -0.2514171223985541
Ni 7.783753288915042 2.1283507282275558 11.733649062612253 -0.6480979738653354 1.227797918772247 1.2104404013304055
Ni 7.621166427606974 6.733992757456795 10.76302774769318 -1.4744243046503769 -0.2995864830149292 0.6904453284832948
Ni 2.858366559467082 8.827984090983682 2.491857194145504 0.09361515165400007 0.5767431762714325 -0.6148217283107089
Ni 8.088034888241296 0.216607007439509 6.807070328583949 -1.0644207679327604 0.6931979515277674 0.15280066087522073
Ni 5.901869191312775 7.413169868000127 12.49348331872257 0.23006488197502314 0.1233198778072844 -0.5452381636846158
Ni 5.653241937945851 2.01068834061951 4.475363802053507 -1.008722703039508 -0.8602304397316539 1.2560214323943142
P 2.9799290542274024 5.016077953509998 3.988210206636804 -0.34593910213753976 1.2872963312481958 0.45596277705655025
Ni 8.337513573451323 3.870407744757796 0.9016690683994656 -0.2910151964061504 0.17689189749646955 -0.047461793026389226
P 3.766514749537121 2.339679773757943 6.37485422844577 -1.0946078330391018 -0.520557115998168 -0.28537393895997304
Ni 8.622715775347205 3.9389159649936354 8.980983646634797 -0.7641498572562968 0.4300743393255625 1.0558160569828847
P 8.351887207791865 4.494873492995986 11.163847985255549 0.1258290173823833 -0.15540441704665492 0.22093258065645177
P 4.6796891340357964 7.125175335866116 7.919565823070937 -0.6888854401953426 0.7446727223682917 -0.6223604598899152
P 8.805581362810875 2.5602189314836057 2.686351692653352 0.18338933229535512 0.5474428846454185 -0.1800453555237867
Ni 0.8157998782273408 6.087975712888901 4.968720948189414 1.583953556431472 -1.4953340582198507 -0.3535346550966105
Ni 3.1898482018670613 5.25606271591038 6.669617185973388 0.14471197032981528 1.2868715850059516 -1.681567030611588
Ni 2.9108440575817194 1.189807336876882 13.027950890108645 0.06406314902849612 0.4646371649020965 0.5562445420974484
Ni 7.751984810468114 2.3884585787046957 5.602974500550835 -0.6256704980997547 -0.4492809941610004 -1.4782969002319055
Ni 1.5636225367231422 7.695735377736724 6.6046025828485995 1.094875741988508 -0.27376926484150915 -0.20244583470617392
Ni 5.625840480887737 5.206752910459326 11.588907480321115 0.04581705833411464 0.59131027545233 -1.1658032222370052
Ni 6.533768946611169 5.567476201320253 2.381726774035524 0.613376254113434 1.4557249284686606 -0.9069309291119865
Ni 5.957578468358758 5.542519177618142 9.11911885023795 -0.5891034976089983 -0.8452090266221571 -0.31532857634053435
Ni 8.920808472244028 4.685859726103009 6.4309855593408605 -0.9618468644235758 -0.3785394046710642 0.7370218906912533
Ni 1.3497025749390146 2.563487331139385 1.0558139372072708 -0.5853131773286306 -1.8761085228690206 -1.7181707978775504
Ni 0.40367756958637263 6.3601317817049905 12.261604553675763 -0.15567438287858998 0.12452109720423717 0.7868544979426643
Ni 9.297544174863939 8.527749081707439 10.668332962932338 -1.8871239001429174 0.47946523105386457 -0.4791263596572071
Ni 5.706396919462526 4.569176942873585 0.3288943882186816 1.0728367599105975 -0.6288244703477042 0.49556367927762396
Ni 5.072235834430303 4.767880993655179 4.644170693406775 -1.4410128190694669 -1.3636611804621805 -0.8052268298022649
Ni 7.343727819291208 0.8351630862720822 3.2804469585999017 1.6780096522776327 0.0616951630169518 -0.18603062657294414
Ni 4.535577428204933 7.1486400650475215 2.4633296498110298 0.6084523344492553 0.2902022135865518 -0.972210467046087
Ni 4.505438571995339 3.827918549232668 7.838499440908397 1.4267264843537815 0.6730315038822215 -0.30377121052023814
Ni 3.5109295585276423 2.9136455430009587 4.300352444462924 -0.7182160708386598 -0.31716305844611187 0.47614619398296065
Ni 8.096906258735554 7.4233687397551344 5.623489430379043 -0.27590559445822166 -0.6929979197018195 0.939559513780285
Ni 3.618740971262808 0.06926993130407715 7.028055343629601 -0.7702950509220863 0.08295561505762487 1.448881680294582
Ni 7.9367455204212725 1.4856020833154415 0.8621086153109869 -0.8390790024650194 -0.019205369283857247 0.1615598951250895
Ni 1.7869265591436103 3.7481128355087856 2.7614699536496183 0.5147898744970877 2.291926866496201 1.181436557898888
Ni 1.5430050688665191 1.5826470030668647 3.4006142037592673 -0.4362159334469262 -1.5618122444477425 0.44707267365577197
Ni 1.2937186424597737 1.327775916183858 6.050719618885463 0.5218313547249013 -1.749735460057709 -1.338095159067618
Ni 3.523948226064107 3.6298370507664615 13.242008179609403 -0.7732734168241199 -0.8818755288052553 0.6077992742462888
P 1.9186146842100698 0.7932103843599199 10.597717220005293 -0.2268764569447125 0.1757657543118263 -0.15542370032036457
Ni 8.083677022033593 8.421448273855196 12.912513211509994 0.9041158282606946 -0.2455202972981449 -0.3416121926274117
P 7.111415098659853 0.8498232777813232 8.832704502363288 1.899795067852683 0.520829138712632 -0.7671241093932724
Ni 3.1236562424517036 2.527791279996857 11.05046106722523 0.061628057224442256 0.18368089539384494 1.9186708217112634
P 8.842092225072072 0.2642661337366773 4.662206400190766 0.6116441019136756 -0.5087500960609109 1.0547943005865899
P 1.327711829916098 5.673383336384825 7.62184207997279 -1.20419467753101 0.9779782227677997 0.4923094340063844
P 5.419015784462793 8.993637937963138 4.023464062531786 -1.0020242079734099 -0.29989424406333515 0.7713327481579814
Ni 5.320396173560686 2.8258015802637035 11.715479690184074 0.4661093785722488 -0.3252018695901883 0.737209324111711
Ni 5.69272823406735 8.355146452266535 6.213055628231155 0.37059418168205854 0.16703557352768006 0.0637823845632837
Ni 1.5155944566272963 1.0379869685525567 8.412655637918473 0.46217533362516533 -1.2685542747540024 0.08329911443997266
Ni 0.5774401604737393 0.9665582455430658 12.77217984892266 0.5319319334940129 -0.6628707612991358 -0.9102579366026904
Ni 3.4719193318237918 2.1503780939749073 8.847685125211331 0.3990745485099385 -1.2078230183122165 -0.22658360829464202
Ni 4.2497892947181 8.547084824208854 0.30796015109570013 1.5569312622063574 0.24995005093472433 1.1527258202277568
Ni 1.4255715607861885 8.114282792479724 4.3461924362738085 -0.780989554521455 1.8861543371407967 -1.4174288611019394
Ni 4.262698100081261 0.28845137567133144 11.126543368792234 -1.2336674901791462 -0.2790084017532614 2.126868728409866
Ni 6.663809139078076 8.146957633856406 1.2789522508496727 0.054145889914784175 -0.5301085071320291 1.0842007787731651
Ni 0.43921340505949985 5.9914068625551264 9.969306504227397 2.2752005548804557 -0.03767026085726415 -1.2500754992235246
Ni 6.369314428356942 2.722924810146086 9.523516932577571 -0.10810460351942672 0.41987631574663814 0.06913927799982286
Ni 9.3197912649579 8.12742963255171 8.23947989414017 -1.2947401891207508 -0.72810556203823 1.4113777698118533
Ni 1.916966751610517 3.2597937855369548 7.274151189419991 -0.08513976719313725 0.8440949676223722 0.2522154499301334
Ni 7.983610892516323 5.913990651100595 8.152007631755923 0.26232631311189014 1.736706394787893 -0.8613833223891746
Ni 5.392081241641219 0.8117715985395458 2.134746537750041 1.1190489968006019 -1.7081450382104326 -0.9272112766275774
Ni 6.059841841342097 0.8245256813419711 12.73494298079955 -0.9538800441680152 0.2908748141735442 3.063728326760485
Ni 2.1491512997063515 8.025688104891561 0.1885344756061327 -2.6353632568165453 -0.6625401174325944 1.7684834300891734
Ni 4.55722943152683 7.267794747176273 10.041677295372965 0.8403203310712882 -0.14654028178780568 0.2574219338317373
Ni 8.902296696042388 2.2833662547587914 7.500549663055174 -0.4243410363862111 0.10052704828248493 0.8161730444011235
Ni 7.530951272962585 5.983368613541753 13.509810959808341 0.76621573864639 0.769498780273036 0.18740462410233533
Ni 3.2633917717126444 0.2978253656084524 4.791485797107546 1.1196277521222073 1.179111252199821 -0.7827749285566519
Ni 2.197737845849823 6.47830685945512 2.4839388780046545 -0.7247168480716552 -0.3988053540089519 0.03802867263794741
Ni 6.6864132812352715 7.9058010082741195 8.822520278898054 0.9297754378103278 -1.2125173384640924 -1.3045476621294758
Ni 2.437576125352468 5.211879811880157 11.595513859009099 0.5150133033618033 0.12755371338297386 0.08759337093995237
Ni 0.8294914515752893 3.3296020414902188 12.214920454166663 -0.10586285867310155 0.6527526990285274 -0.20961561298173578
P 5.50884642150062 2.5155874235790603 0.7544336147743395 -0.11674942367861829 0.06970106404056382 -0.4843017332105595
Ni 8.704242663119507 4.896419736420271 3.32406224140139 0.5795515922545051 -1.6726417030974998 -0.4975480566975044
P 4.481442842309634 4.078202890380253 10.087249040377367 0.05253252268107727 -0.3069997447598648 -0.1159456968304003
Ni 2.809496202709243 5.207036721073694 9.207703467126894 0.7952836025466239 1.2091563924116595 -0.7179818433406666
P 3.8420633040454932 7.173652019836283 11.977828728996606 0.9713638027750756 -1.280538443699072 2.20255223528611
P 0.10256732499614563 6.9115758054207905 1.3743904363165322 0.2792032913728869 -0.44597584104716737 -1.2111312567498433
P 7.108219940452942 5.045969619829657 4.705808865738703 1.63262479638493 0.009117131809919783 0.6909448938275327
Ni 0.6649691849808578 3.287314259949481 4.965679597025129 0.8495374787941821 -0.022809798805663944 -1.2919047765544847
