# total energy = -340895.420911632 ev
CRYSTAL
PRIMVEC
9.04265922935297 0.00000000000000 0.00000000000000
0.00000000000000 9.04265922935297 0.00000000000000
0.00000000000000 0.00000000000000 13.23484582816673
PRIMCOORD
 96 1
Ni 6.366981403752842 1.9671490779838194 11.55754090596274 0.8697743746663472 0.8058392665752832 -0.9040158123477204
Ni 4.637084569525655 0.26148204850358836 6.135541781190964 -0.13474457470445828 0.49217033732535886 -0.6545650696469179
Ni 2.6679189785884594 1.5371163873526348 4.842286012780286 0.32465833838189245 -0.1302546572539047 0.4022629735402491
Ni 3.1654099052384144 4.4986957164383545 4.794442208363166 0.7637310245513235 -0.8320190102944445 -0.09358275575416786
Ni 5.085998332114908 4.569210371193632 2.7772790878061273 0.10574047416262435 -0.6086202274856873 -1.3660728752274667
Ni 7.448790868614713 5.967521943145714 2.60163990530117 -0.5331804611891333 0.31543964799710195 -0.29973277878480636
Ni 5.172708389110081 4.596691011845246 11.527484011766658 0.42958043040827953 -0.7267017397121678 -1.0179519349472597
Ni 5.7493587525037775 7.922834180519805 12.359360712178985 -0.4075640740381884 -0.32735619692902973 0.8679195808457956
Ni 1.9333024054076453 6.330024056486259 0.22848357734009017 -0.48783854271922433 0.6242005984224476 -0.36663159748988466
Ni 2.791577340191232 1.6559188410811339 0.5563251787959231 0.3185985053410577 -0.8145082551041908 0.5303612465727834
Ni 0.5368816534490652 9.144931456855563 4.912642421003348 -0.2446810892263012 -0.12056571210091495 -0.46795517353173605
Ni 8.627619021713231 2.2980290128581924 1.2901749344949154 -0.1833008863466069 1.133519165392319 0.21419526193261823
Ni 6.843719428035092 0.6409246791842886 4.875995236939906 -0.3992684096882995 0.33740123986985765 -0.9517347156902384
Ni 0.8737387859116964 7.182810097266709 2.280522425065653 -0.537768337670132 0.07258969844226854 0.5562160028523582
Ni 7.575143942594643 3.9762289656752845 3.954994993849644 0.8371529890869003 -0.8712841264426542 -0.6655629634193183
Ni 7.598383576182878 3.7427927240097945 12.627048737543122 0.35525600866309137 0.7562180040037298 -0.49200887204683
Ni 7.894955662872907 8.751792814878076 6.879684795611158 -0.7136317939020871 0.2949227589906728 -0.06077367964394695
Ni 6.9910966841522395 0.7601467122896338 0.39016812850132543 -0.9358512116907624 -0.8035813237790418 0.2838274204084596
Ni 1.8945003557083768 6.654700727297779 9.070144145730465 0.3621079985879183 -1.3699655254136536 0.6302863996052113
Ni 9.179655267353162 4.827975100672604 1.3107605476714208 0.051254170189285915 -0.4147415656232341 0.15207560978373807
Ni 6.290769873837802 1.969400700070773 7.003377519318069 -0.19504285737388344 -0.44178494289427134 -0.0554520103207174
Ni 3.4816949885130155 4.447866930290699 0.5436862543343367 0.06261433239711152 -1.0940789571188254 -0.11128145858551158
Ni 5.819828193964136 5.357712149258609 4.823876063355271 0.16144599525504455 1.3958655331088667 0.5600353765984484
Ni 5.385228960546158 2.8802858248218133 9.246590837682671 -0.6053618684493897 0.20756490110029416 0.33859988816364905
P 0.15913180853012285 5.492294042913751 12.295370335880483 0.7596511980549949 -0.04861133324980015 -0.3251111096485949
P 4.055587340916668 6.13233344578353 12.531042827112653 -1.1681352128042914 0.8462788626475684 -0.37665710004668684
P 2.288914012602573 8.49762175616285 1.2807986013946657 0.6248544299563626 0.2227611492247583 -0.2098621817749031
P 6.334889007019515 7.644419753069147 5.626331568498071 -0.12123368470221701 -0.004199125683012123 0.8670873147524872
P 4.804418974019936 0.9096191524933155 12.71115631728277 0.03837268624092746 0.6515656206989616 0.6303643040309983
P 4.146022973413146 6.119203504939126 8.232669135141299 -0.49480983183073496 0.40535395376074707 0.45705163924535486
P 4.785745883218494 1.16388063779838 3.7827703193769504 0.0171158337446802 -1.4669297960455445 0.1442658839313322
P 0.4715882299910047 5.462471353585345 3.5922550585778272 -1.0107770144653754 0.18318698647656195 0.5325194305663667
Ni 1.1491772742908035 0.9991776470683691 2.4446475898866025 1.55874414704538 -0.12143217386626828 0.9101067557368068
Ni 1.8993472209236666 6.603528320108742 4.922436524948647 -0.6536664690920485 0.4104334251661835 -0.30619936034575657
Ni 6.119619467252378 5.516636880898004 9.12447334517073 -0.6587474831593817 0.6996588766617629 0.5160697696507758
Ni 8.754858276273568 2.3566706563678066 9.988562709680867 0.2178925082785473 0.3991321412207513 1.0242164277997328
Ni 2.6268562641432536 5.046445741719988 7.044352519971133 -1.643619347723221 1.5471921805417226 0.38892691855297534
Ni 0.41560331969081565 9.187522380669023 9.198561658756384 0.9469748324077498 0.3301820964135991 0.4383733461095612
Ni 1.6726025469061514 1.1118672633238535 11.619439715238304 -1.4753339609488398 0.4738046903339776 -0.40611371474490704
Ni 3.945067962817284 6.922146409401151 1.5057148497656667 0.6866102710079207 0.02437225819677738 0.1162406023629998
Ni 5.641615470712404 7.8705223982988155 7.861788998252311 0.036868590891575216 -0.12483245779706889 0.714703172589395
Ni 4.994242471406803 2.8835954380098654 5.0511976590159495 0.4251432205725323 0.06947043608699649 -0.11315887811388255
Ni 0.9151351744734026 7.810397758715866 7.132417167282071 0.5523081831575197 -1.1517431445995132 -0.7827700434606454
Ni 4.91650273212351 4.467371945718647 7.006752239650805 1.3090044123492488 -0.04361490847647327 0.3887453986697885
Ni 8.18953836458651 7.340658752487038 8.894345812427394 -1.1988640093467158 -0.6953085701128671 0.5781801658282752
Ni 4.8623100768339 0.4863729774294349 10.503835120956465 -1.1325025512023463 -0.5907718864503568 0.08074909432460932
Ni 8.297109835857192 7.104961846075611 4.723238502993326 -0.21288862730605274 0.00014578154924491023 -0.055344538208575655
Ni 7.070925277660779 6.045858497921935 6.906815485360102 0.7577820060567402 -0.5956135308133742 0.11608093685668396
Ni 2.455651601603927 5.279574532980031 2.585506897408263 -1.0772436307290416 -0.8977577472531506 -0.32311156272006286
Ni 2.3065924109158025 5.340766206323063 11.202317228838218 -0.15678844187837512 -0.6010131045623908 0.4376089571397108
Ni 1.0162140165937528 3.2088417963373623 3.7868467500468244 -0.36645393426143985 0.30305541540013614 0.3706448324143359
Ni 3.5113639526386975 2.6897931706701494 2.9779854252799365 -0.12700169753424578 0.8573045243341106 -1.4217372586693062
Ni 1.2640190433844203 3.376709717711685 8.119590684549513 -1.7306887278389032 -0.0866142948561347 0.6691409105785637
Ni 3.4643059552872653 2.636206373532451 7.1555383420376195 0.8580354889628642 -0.9327687161106968 0.2588162430761027
Ni 4.063481582209482 6.795910889988009 5.959518285679198 0.7340134428822327 0.775752988712864 0.2715303482086614
Ni 0.6104807591836996 7.550339929002218 11.352056427481921 0.8519877401068875 -1.05795752880592 0.12515821656760379
P 0.28613052836149233 5.818670733614216 7.821039159807943 -0.1940414126925626 -0.8104808791123526 -0.3534508371335526
P 8.424349090417529 1.6386835330581075 7.847165210143791 0.2476694824306638 -0.3188499592302315 0.6904355582912818
P 1.7954470692003865 3.1659705500954067 10.507606814018589 0.09422398888259256 0.6663157824249428 0.2741713853759343
P 3.9733714854364193 6.215869529475406 3.7450380162354593 0.35355650947348144 0.8902493546912474 0.011236235035451616
P 7.060661859714223 3.8184888223627604 10.262921504577314 -0.47210467692373526 1.0006954618596573 1.4570508463689358
P 6.301331699530822 7.832516102590117 10.108497304314131 0.6858481960309156 -0.2715187782444356 -0.4885101148649522
P 2.5467383055472346 8.62129820308359 5.77303966785042 -0.44060583498450573 -0.6833637390461651 0.47589525431441904
P 6.963643171477576 3.9876588866307436 1.5488474288522527 -0.12139540709106189 0.05455778064122217 0.5437299545702055
Ni 5.330765025487035 2.8213909868606537 0.48239692027428027 -0.14386916271354577 0.25346577739746673 0.3543432670408349
Ni 1.4330986810625659 1.088329221989154 7.069340099540927 0.11251250277913527 0.7738128342673577 0.03106458261528844
Ni 6.8083535887496485 0.8284920331547098 9.143994637384848 0.35978834931580617 -0.5809466728298188 -0.1343537670239428
Ni 2.7322122839629173 1.4613208197508476 9.489039897557262 -0.3098541834895244 0.04271013727401677 -0.8665350417934431
Ni 6.452000483518054 2.0605145319910316 2.6340650718850984 0.15571629186011893 -0.11549421111527852 0.0849577330893182
Ni 4.272321791439174 7.077761527852493 10.470919842255618 -0.878407624861313 -0.8794152401902209 -0.7487234953988976
Ni 8.179962188722719 6.977415141109827 0.2891507764620646 -0.12374102450510302 0.4417093524613296 0.014565042298368466
Ni 7.517325181052549 3.716370074459279 8.154041406745801 1.5445154050405079 0.4495427324628193 -0.630543767031656
Ni 3.136581908398221 8.487602490008856 12.417739214312173 0.5301882113300288 -1.1203995972912253 0.33816819994286923
Ni -0.015396031185731658 5.175158949694676 9.963377095879327 0.1332757034684156 -1.1500526442709678 -0.18127717104835875
Ni 8.645613913090893 2.399578073245697 5.8199963874212335 0.1992026451785279 0.08129879618049225 -0.5614613104116976
Ni 3.744583170488577 2.647627251828926 11.79190311590817 -0.4735257256409781 0.3444635460332777 -0.9766219658502213
Ni 1.1785930439649401 3.3504407933638936 12.768978695888457 0.0764620369134812 0.5469068096362905 -0.8242982446114191
Ni 3.163746055985404 8.36992132599434 8.115316219647895 0.6906870121804557 0.1892553041578289 -0.4010725527765738
Ni 5.692824048537377 7.6808435834556885 3.5612188444138027 -0.545698391150486 0.16105930133958715 -0.20866944701838255
Ni 2.908372323625339 8.370237819058772 3.4331060689956354 0.7337504190288331 0.03853980794641104 0.29919490400346543
Ni 3.3051009012193746 4.036498287801974 9.251672812031538 0.6566985710501528 1.0462448683546821 0.24025879178888948
Ni 7.278725581107339 6.207930074887675 11.25644748978084 -0.06050937023896676 -0.3943072090282822 0.5882025830612837
Ni 0.3946840323978099 0.020237470805631066 0.3177979201225826 0.25578671222115945 -0.163092529719532 -0.6219231152421805
Ni 4.728695747690019 0.1599194241276074 1.712601844654868 0.012385003927914154 0.8958538453622185 -0.373056527179622
Ni 5.820967568996089 5.60306661546468 0.4109761910888311 1.3076669244847479 0.481893380879383 0.6654616619547636
Ni 7.840419386541915 8.902307873662584 11.240367833575938 -0.13396758732911765 0.5708124126092944 0.4109646150793051
Ni 0.04675778107317118 4.929741184875719 5.798145706252901 0.2802219624453884 -0.4041475921574717 0.33902360596462905
Ni 8.050263330918801 8.617238049199885 2.4423579886319176 0.18134607661308122 0.8226830776054993 0.9525297007877079
P 8.431330023152983 1.5257316796920941 3.550128023170234 -0.5457271875058923 0.39448950024241736 0.7290643264070735
P 1.730556948333001 3.201761394353087 1.7328781988941293 0.6277039835900158 -0.12890894185928767 -1.0625646885606281
P 4.535734447635791 1.0646826687466495 8.360280042985867 1.2894388315124954 -0.2288394942083543 -1.4072917726679377
P 8.572739124340856 1.6857053597736043 12.302490525564286 0.023799416412442882 -0.1737165850922815 0.3242644453775835
P 6.452344104559436 7.699001242695058 1.4385875750657018 -1.2278760803083497 -0.5993177191378388 -0.8394394711282316
P 1.799859886784456 3.3138541951156437 6.000241900412513 -1.039698325485416 -1.1938588428226407 -0.7995493198015133
P 6.887106105839122 3.8559344732144667 6.025732251821804 -0.5380979530954088 0.5482736080768299 -0.35184878275375536
P 2.307279652998568 8.407692512569461 10.26891678748354 0.28639106737057773 0.8611251836317814 0.2616354576924526
