# total energy = -340898.02760846197 ev
CRYSTAL
PRIMVEC
9.00283282054535 0.00000000000000 0.00000000000000

0.00000000000000 9.00283282054535 0.00000000000000

0.00000000000000 0.00000000000000 13.17655585315979

PRIMCOORD
 96 1
Ni 6.392371243591853 1.9354919674188522 11.351379005379346 0.2423897220889632 -0.009341332005583911 1.1799586878017807
Ni 4.492800578158708 0.3131176167751117 5.9555925190936145 0.23096631074336998 0.3585696464173566 -0.09540566789551956
Ni 2.703145495668796 1.5822838368912209 4.608842588671182 0.16553173528864396 -0.2532647171302541 1.4185560327278472
Ni 3.5089530283837593 4.505485569260929 4.933289369962288 0.01829622720602655 -0.06866130992213983 -0.46503054368577323
Ni 5.06226575003939 4.416735645708272 2.6136618412610426 0.1929867461758031 -0.10403326166353051 -0.1830394051551041
Ni 7.319140834823097 6.179445250292615 2.615071684842737 -0.5201038305108333 -1.615472967195992 -0.47858668510365326
Ni 4.939125006039264 4.458751865349198 11.380986620878192 0.8972008463084161 0.593305708615804 0.04137599184362552
Ni 5.537822375300294 7.866765134869862 12.451080406465891 -0.6360420711420659 -0.25895662530870883 -0.30970814482996334
Ni 1.7871072808703745 6.515448967763934 0.5461469352207367 -0.05805962314689356 0.058980849409582294 -1.3338597808300316
Ni 2.748312706711977 1.5985429525268569 0.3509799294646079 -0.33842093938362366 -0.29162531918632356 0.5382889860602923
Ni 0.5566658448047216 0.08041150001903233 4.701882361947195 0.5602842593844609 -0.4063530844492227 0.7605300011155225
Ni 8.661265109867019 2.2602511470004094 1.2347024767247594 -0.10417647210961414 -0.48988539794592406 -0.2815190839902571
Ni 6.891425261881001 0.6540755930140331 4.7196314463744695 -1.0885893947591638 0.22486868248606434 -0.0258868950690909
Ni 0.7827476773500032 7.459729068359137 2.6480265534940357 0.5432573858091612 0.07576346818455984 -0.31303540943098346
Ni 7.446828009275048 3.7715656546802694 3.663491150999212 1.169548291101734 -0.1323375079248624 0.7869324023684512
Ni 7.587371228648199 3.8718121954348685 12.579749789952087 0.6199323100643969 -0.4405233025730284 -0.3276151070173713
Ni 8.102873422057119 8.918142931811426 6.7251429441677155 -0.7036713402552655 -0.024189452762009952 0.523704403377898
Ni 6.980886409207311 0.5547122301353234 0.3966476979991187 -0.5847364788895542 0.5027054325287278 -0.5802501609834265
Ni 1.6927575954542817 6.635195643882202 9.018811705413926 0.8728859237121354 -0.8632887669420036 1.089207230848821
Ni 0.037855110423433924 4.559457550565268 1.452359458543669 0.30636365383776265 1.6567150045649146 0.05217436801071015
Ni 6.501305517784098 1.8561950180729603 6.960555312396703 -0.40196266869101094 0.10949454188841788 0.32514941908569805
Ni 3.2957389444420295 4.2328707959704035 0.3784070589130933 0.4016435947886954 0.3153614864609988 0.13580926852354674
Ni 6.081368392189283 5.485299850040992 4.727339671627642 -0.8068121720115137 0.21260272063451777 0.3535606232385395
Ni 5.277289403329271 2.739886055419089 9.411921290209941 -0.21495476580646206 0.7901413962240521 -0.7078925774254647
P 0.16255064360975818 5.511606126833532 12.432133045022503 0.7729322314346172 0.6971985880467282 0.08618414929725159
P 3.88948475578523 6.053072489397033 12.568602482654168 -0.017152600519886593 0.8473538408793019 -0.2571028599294217
P 2.411273663494203 8.600297927649674 1.3730237970176924 -0.669521433846434 -0.6194129472258171 0.732226526185139
P 6.282437654983465 7.7925097717675795 5.744108779573352 0.38609561975176737 -0.21398057481865082 -0.3322904010058535
P 4.726982259174301 0.9786259068797837 12.519770218468537 0.26972851911323226 0.6363135796358976 0.5532574344446665
P 3.92353346859474 6.215708659916281 8.08227494111895 -0.06506279393760409 -0.4640648373383943 0.2521442303725658
P 4.748264955388389 0.9642843945832344 3.709134611885762 0.5166212712788715 -0.049398090817153635 0.5012188206808723
P 0.15719755935895582 5.462270604306797 3.6073188774128404 0.26374787604976513 -0.07821784326232335 -0.03872415604307525
Ni 1.2593612351555497 1.1103373474940432 2.6391452591559657 1.4413884572413305 -0.1584961685981012 -1.1489162166736795
Ni 1.7167051301114198 6.537469896249408 4.736813352349337 0.9949271919173124 -0.20250034209319318 0.6362552155941366
Ni 5.954581500995119 5.550705428719228 9.059698969849588 0.4467178614195146 0.4233835575689482 0.9979256124240039
Ni 8.536755935315057 2.3981385307630885 10.21090827696391 0.8907491771458015 0.2476951934622766 -0.42241270901524675
Ni 2.2847298487796417 5.216376238107394 7.0032737529787035 0.5691676779170198 0.14655005197981857 -0.11427653665809351
Ni 0.692298919289902 9.001527167147671 9.075168537068143 -0.4095132273447592 -0.18338804674377449 0.2834965194316021
Ni 1.476527562598965 1.0698155980610438 11.35054804393241 -0.04608393884225612 0.21021982222463795 -0.35483177664147925
Ni 4.054596705263393 6.92827385562223 1.498859989091633 0.30742346256084474 -0.06305836191306559 -0.2203903349997366
Ni 5.580243722407225 7.827134665862072 7.814488386939937 -0.03933479304388064 0.6821653478626897 1.1596991662217964
Ni 5.273886332614836 2.814519537489644 4.852596081283568 -0.36547897194268025 -0.2510152589744451 -0.2653334753693301
Ni 0.7081565085925647 7.329800188595296 6.950422624330309 0.22688519869546084 -0.2191538914894742 -0.6394629238981567
Ni 4.9601196116108595 4.490288787869482 7.118739582206194 0.7019281323119138 0.15258494531998884 -0.7204426461763335
Ni 8.034496908628187 7.202311076460059 8.927669729245329 -0.43140077144646993 0.649852494662597 0.7977922279010905
Ni 4.661441638007396 0.34485980387817083 10.403114251085174 -0.41926670718709724 -0.6677602281809533 -0.39932523106816387
Ni 8.18623965172821 7.1316388407237685 4.605548452230939 -0.48225513509417595 0.4226865315019236 1.2455791540150678
Ni 7.138526007645839 6.164131432077656 6.842282399971433 0.49701172457806014 -0.7994876133256424 0.35979554840465783
Ni 2.1723925038729615 5.315632467278426 2.5362365808080902 0.9578894224377245 -0.2115161724385583 0.5444550056616881
Ni 2.2452704335908313 5.312580507034528 11.300450881769585 -0.5258129650804686 0.05239676843416137 0.5320826001392643
Ni 1.172411878118467 3.3955713548980455 3.7505746502417048 -0.9186736714702114 0.06707802459541996 0.5131626233063098
Ni 3.6123775690383466 2.5378985037019652 2.6472622130081747 0.46279008439102876 0.42734099955479954 -0.4877781217949341
Ni 1.139263448566744 3.4617331715128237 8.155233896330019 -0.43604186976290715 -0.7338203530348202 0.21760403050385105
Ni 3.5204856569160126 2.710293744735626 7.245458051872766 0.21905901778282272 0.037882119757754115 -0.392517207007395
Ni 4.080299792273216 6.853172226257626 5.99850812170907 0.274480689086237 -0.2749154626308104 -1.016894697327339
Ni 0.6629775938670324 7.411491891406903 11.184826602688725 0.570033882572057 -0.6171465197891436 0.4372289480924728
P 0.08761016494829835 5.525632539989856 8.074685553255804 0.40962712721480415 0.12040039016764424 -1.0923779152673188
P 8.705027879028053 1.603665564263666 8.008776716236465 -1.1723086274556906 0.5290278724733405 0.46954488661635907
P 1.862587029203249 3.2160998874581783 10.27607978199512 -0.889104699563843 0.5796220404811244 0.330021916686651
P 4.063797600157977 6.097960612630301 3.5315537392872476 -0.5725224533218656 0.07312191679665471 1.2042281018721066
P 6.909160842059409 3.9727879656282745 10.483610377730441 -0.6086657360116421 0.48231915556289184 -1.1246066933940373
P 6.19435394104157 7.715472533398732 10.137488376724852 0.6517363419488712 -0.6239632856006609 0.016210805431907567
P 2.403729289793947 8.348254626799584 5.91885646075961 -0.5446450101853071 0.6005521057655722 -0.8676341883948928
P 6.958163259780763 3.928710097327016 1.5461896805200188 -1.0354639756890942 -0.5459650145483113 -0.2683702053131249
Ni 5.2299074954719345 2.878475660122843 0.42530011296145237 0.46213522441584926 -0.6666736799849938 -0.012643914016255644
Ni 1.606591484851474 1.1484193292984395 7.014723555451241 0.10813005744072346 -0.07654302666306172 -0.7689251671577532
Ni 6.942039186633795 0.7240636134744058 9.225696798053413 -0.32512087984060783 -0.3742893711454587 -0.9300816561968368
Ni 2.8113325347570775 1.5621625060796784 9.255423250942288 -0.08145537636301456 -0.35537325096724603 -0.0322532036067509
Ni 6.506725222995977 1.8269628206926116 2.432695003329991 -0.7327029516009251 0.6222694428380057 0.6175974912836331
Ni 4.124800793705634 6.741933226925446 10.228143299650986 -0.09598982253376372 1.118349399630416 0.9484100221923797
Ni 8.263537972241814 7.057284446463128 0.651592611789056 -0.028356182545189876 -0.40326673221441517 -1.0145981879836785
Ni 7.616747471349794 3.943222663442545 8.117838830651316 -0.3031022094776715 -0.9790575718749074 0.35921345064894267
Ni 3.087791517558354 8.31337765339291 12.390099719999679 0.09104687670619158 -0.4266429450465104 -0.12506128597842334
Ni 0.04299482754214074 4.896775681592957 10.149781744609935 -0.3062073307655565 -0.2792398010377771 0.7621834775585453
Ni 8.670195919784268 2.3230819155613744 5.846016342938567 0.2034879028174431 0.7479832747987635 -0.3306996594799659
Ni 3.549447769319025 2.605365731040534 11.471087869600787 0.40056347435063916 -0.09147805070633923 -0.07562025773847621
Ni 1.2052091971996526 3.378537995660713 12.536003225889697 -0.946917496807253 -0.18554777339925463 -0.306948065586323
Ni 3.064483184014245 8.371373900859558 8.10352882826879 1.1404529163976747 0.12533125181035834 -0.7101559195383447
Ni 5.653211680450872 7.629576507773261 3.589662522161119 -0.6735665504500851 1.1683977224370587 -0.16142105555438005
Ni 3.0696328042487875 8.332814768928534 3.645610625216301 0.5367509521492111 -0.33492166798111356 -0.3015027262010356
Ni 3.505405912348078 4.493700861416495 9.421078971508154 -0.18629159354381464 -0.6790442857352047 -1.2488084595856428
Ni 7.198763960424378 6.26735791041553 11.642329847781221 0.34996287858495206 -0.877239829805457 -1.2291456910493928
Ni 0.5623016179984692 8.919529368028417 0.20036794213636505 0.31113047909878677 0.3497677318550105 0.32944958912294875
Ni 4.547969936195905 0.34975644451727517 1.569814913770869 0.5979653188750024 -0.18323146656125217 -0.19288184516682264
Ni 5.836050207274864 5.409820101708118 0.3473868989827794 -0.08770058594177799 1.1002876570326985 0.5586606077381089
Ni 7.770758928259441 8.730064756427112 11.317396013247654 0.07783937687698207 0.10703708148686084 0.1733131790062757
Ni 0.1327341623951057 4.873935495342897 5.916932555437719 -0.6999077594477753 -0.6867429399310431 -0.6972574663091218
Ni 7.855475582817212 8.789654505260044 2.570087231300887 0.17288354766802483 -0.11038362936159055 0.05537847677030462
P 8.521208043453072 1.7134280990530746 3.658207388559259 -1.0021177961284806 0.11702530304782426 -0.30442169962004345
P 1.8568162135208333 3.254911098701382 1.6424974820217988 -0.7659892244578808 -0.6885715084993497 -0.6998578800464463
P 4.7751474134659135 1.0699236320519783 8.148658227415142 0.12847776785914003 -0.54189932911937 -0.3246747934421247
P 8.540825215640256 1.5632608516541786 12.283264006081335 -0.3217437358382588 0.4793456747568648 0.41474130851291796
P 6.283536000557965 7.687986885538492 1.3256013764137544 -0.12536467615145505 -0.36128858801041647 0.6249395334710012
P 1.912102608381542 3.223743292316791 5.861867630258426 -0.5272558681745823 0.1360982605188753 0.612236484082036
P 6.838074476024535 3.827833358291966 6.015374028260455 0.32267344674137977 0.7320635182447135 -0.32988307711594156
P 2.497367751436388 8.38989272747224 10.23083154545874 -0.6400987577099427 0.44841864616070515 0.5308772669772535
