# total energy = -340896.3009960868 ev
CRYSTAL
PRIMVEC
9.03660667464284 0.00000000000000 0.00000000000000
0.00000000000000 9.03660667464284 0.00000000000000
0.00000000000000 0.00000000000000 13.22598730254709
PRIMCOORD
 96 1
Ni 6.425949157328355 1.956913345506108 11.302227786818452 0.5702544832232953 0.06120819607820426 0.01135939087687721
Ni 4.61785968894823 0.34497788594393536 5.934315276225923 0.010084637929511664 -0.16808561205874922 0.08886760966668567
Ni 2.572044205900958 1.5695682323159856 4.7914312174129225 0.8077881627715379 -0.09118108829121072 0.10173186722386351
Ni 3.5032665349939527 4.449200459931328 4.847998568559515 -0.07121158714781929 -0.19600213596335922 -0.07021117090776295
Ni 5.1163460289749825 4.443426068196341 2.7422495983386046 -0.10036429745237553 0.9087060187345383 -0.1140821612591003
Ni 7.251199198665178 6.136398202754869 2.358748657674403 0.08377142609070087 -0.4119431769424906 0.8459998979545689
Ni 4.963500861830112 4.592972873865046 11.435334293764994 1.142285341620723 -0.29551436982808454 -0.6315426406098156
Ni 5.732046195597225 7.897452132824183 12.360002371957542 -0.014985674775554837 -0.28104882922205787 0.22959257032429492
Ni 1.9135014865156883 6.619206030011352 0.32249300094394323 0.314070278453401 0.020262606903778006 0.3188859546744895
Ni 2.5640739187174546 1.483657211620332 0.2041405618936671 0.9742904895035673 0.5868800075951183 1.6106557483130068
Ni 0.803805269777671 9.028031044179386 4.42169845084485 -0.3804795591165705 -0.21413689789085702 0.8090387473491872
Ni 8.50616700240238 2.295406562421833 1.3392901889602264 -0.1739554405759649 -0.41067150931891855 0.6948033483416743
Ni 6.9362824888489545 0.9340598236231764 5.034789749088547 -0.6675614819065858 -1.4932995442883248 -1.710553133431293
Ni 0.7932920814451452 7.4703369131776 2.4421655748976674 -0.3174530788827049 -0.525079943569186 0.43294831843924797
Ni 7.554033965211169 3.8622547760958286 3.723194952599977 0.7573361767685731 -0.14695654338961786 0.13986646931205587
Ni 7.569595002093248 3.5927560519760773 12.657904958520815 -0.5230752544343314 0.8911626105341361 -0.5463517084637687
Ni 8.059975505834736 8.616711813191266 6.893582714473116 -0.40524853853113435 1.3985911595701461 0.5383594342869115
Ni 6.755252145144733 0.9263606346431937 0.4165613665835294 0.23182608764050394 -0.8991692828886967 -0.019227223660728175
Ni 1.7702803055957963 6.496778081301484 9.39206442284878 0.7587320286748352 -0.18239225848940846 -0.596614975494695
Ni 0.013361526790848156 4.608642350028532 1.2798247980179998 0.03907562584522302 1.0950906862127914 2.110833015103242
Ni 6.344267268607621 1.9270112136577944 7.104524226632434 0.07253879059967508 0.5853921101956822 0.5059136550533803
Ni 3.570318157331362 4.418168752235013 0.6309431149455235 -1.0362121667090283 1.1082987002626332 -0.20513006640655643
Ni 6.084862434265617 5.662753494777379 4.72169030089659 0.019953560303791442 0.18867834860843635 0.3053910055118483
Ni 5.2460394095392004 2.775394968361702 9.280715354056115 0.5148641793784487 1.083235072425786 0.3033960865690065
P 0.19249418307042546 5.516161659527048 12.612923440932013 0.7584330093771777 -0.4882699738296881 -2.2187694684759207
P 4.145651801449399 6.178409387693765 12.581445324860566 -1.2605923395944485 0.7299174184359881 0.5064942101471986
P 2.359367665239108 8.57942677360041 1.4175878684403453 0.38201193660069693 -0.15765104698898655 -1.2729115232814336
P 6.3627561660877205 7.771725822638149 5.780761639109185 -0.5954618357268584 1.2625926578539288 -0.8694259901879928
P 4.791805332933781 0.93899381092725 12.620845834099558 -0.1427874996135928 0.9936462683223596 -0.19134766791048335
P 4.050776466824001 6.127244120082659 8.055723782342856 -0.6398866416991367 0.35493719187109196 2.1269772289632725
P 4.550012845213827 1.005873737735763 3.7530193696299476 0.3731915100955895 0.06504479621547508 0.7216636630676281
P 0.1165731311745031 5.60089792134078 3.4884067387983144 0.6427001998885319 0.13661839468840342 0.2090088326356723
Ni 1.3403275914190318 1.2572269554332074 2.368866946290467 0.6354736002331055 0.2826557686978616 0.9441368487383225
Ni 2.082883644075311 6.611470694604232 4.882095493276969 -0.528071164987026 -0.2796648043903377 -0.9823588683339985
Ni 5.928303221732515 5.522143893218068 9.195843543140626 0.2427836150932722 0.524340237189684 0.14487703515276984
Ni 8.82465317189829 2.3254894264058263 10.013210048719072 -0.4992845797726369 -0.576887929379413 0.6116330461700821
Ni 2.3358092313531746 5.2663175551625345 6.994405040023076 -0.09550054160217102 0.07187673153564395 -0.11830365553961561
Ni 0.4762544800167132 -0.16120222109872992 9.023588648284363 0.9413032359442691 0.8393561673858062 0.004823389530572339
Ni 1.4891966515789345 1.1980281443911094 11.449949197916784 -0.5957238311389935 -0.7605832229509611 -0.7778021579324089
Ni 4.120566181016967 6.797697087209263 1.5979504069032275 0.8094755777762898 0.558876837513973 -0.5926973856078438
Ni 5.495576269273057 7.888587221569062 7.943276765825935 0.4026069871432292 0.609445294490144 0.9249080824156973
Ni 5.183388614705607 2.7947061970591474 5.245307444389695 -0.1611346346622128 -0.12817746300990182 -1.3063129815600147
Ni 0.9060463425927225 7.312367989986191 6.800340294693589 -0.3854338177980523 -0.1740354018842809 0.6723766439070421
Ni 4.89223818073135 4.415096305928446 7.201285501093658 1.1384137744804588 -0.5479103112001403 -0.9112095018826823
Ni 8.241322130776398 6.983833113746455 9.223050055185267 -0.6536957796680871 -0.20133923190555647 0.009548562920383554
Ni 4.768897534736296 0.3773226126059689 10.494728352187476 -0.5996591616376576 -1.036727158672234 -0.7091213076262433
Ni 8.230993289222267 7.293680287156843 4.744836665513172 -0.13247377639241056 -0.33014430119712823 -0.4413841079114269
Ni 7.156405193500834 6.2912946796397105 7.012074317267865 0.5647849754682919 -1.8269428597776474 0.630621671457443
Ni 2.3266190022538287 5.502010333303278 2.604699791836362 -0.5670195212257654 -1.0307280036660056 0.16181854810311486
Ni 2.4058429339293093 5.207425988751093 11.49503644380496 -0.3513214494953756 -0.1509659216593271 0.5939757380996351
Ni 1.135052031713292 3.524195316305737 3.831555615529165 -0.2774927364396834 -0.20667169986206343 -0.658472375121124
Ni 3.552660627675392 2.680519633736303 2.8149129534888884 -0.578017929218798 0.4918342941421787 -0.5662453620639022
Ni 1.216526078477993 3.485753591046527 8.178249326405991 0.08336647734279835 -0.7438322287448673 0.011707004024283063
Ni 3.5455578547431545 2.458038374713794 7.143157527955465 0.12447533156796627 0.5393163988835421 -0.23853923799462146
Ni 4.287020477978568 6.870080307549243 6.081070674059044 -0.25575225943879826 0.22137146796608326 -1.1976270516158212
Ni 0.8185042143725538 7.353077903548189 11.459617463515006 0.28811602048148444 -0.19247226843322982 0.21518462242908099
P 0.3132467448825366 5.5613718032674875 8.06705839823205 -0.29229406311857403 -0.4537061198118896 -0.9696326790165818
P 8.50236259094631 1.602488590830161 7.981844099919443 0.27276087818165284 -0.055903496035839204 -0.2923102610684901
P 1.934565816929233 3.2432110649635 10.545820423283631 -0.5486633873160809 -0.6729620840968668 -0.3294555026602197
P 4.105240095911274 6.258112259528799 3.7941259902297646 -0.23189987830123285 -0.5201246564464397 -0.2188942100701843
P 6.955964218424545 4.0109069576929155 10.45060621590383 0.2264792215062938 -0.3571311141986172 -0.4814205550080225
P 6.289921115408541 7.676958927294158 10.122483408933446 0.17535154959254318 -0.003207194083388025 -0.10912995946014754
P 2.4977813713499026 8.564588665261054 5.87778768614918 -0.3661888535255113 0.24686549847212969 -0.32470744645227306
P 6.856001274179744 3.8272559980213297 1.536992168520281 -0.33397267380428286 0.7575907159815404 -0.08554960103704622
Ni 5.030028360974048 2.7772836191795616 0.5928601429756388 1.0444479243552593 -0.6972808633478895 -0.23799210724189981
Ni 1.4388266053648215 1.2313551502105655 7.014931692332971 -0.24334848645780668 -0.8145157113033584 -0.2648261967156084
Ni 6.8813037731749915 0.6976649011353161 9.055252014794883 -0.2955452230660201 -0.9318942839255435 0.9833418010725582
Ni 2.6203810155886673 1.4892147247925025 9.243074272157969 0.08176622273521403 -0.11471542396772501 0.4595409813261118
Ni 6.11422236970689 2.1719303673250185 2.822611238808193 0.6634618579159154 -1.2118498800834228 -0.2593006389116889
Ni 4.109288495750513 6.7668099652214915 10.43867699128825 0.00377129411697415 0.991409922792673 -0.596928907190688
Ni 8.203323199249605 7.110679963173706 0.26901526565680656 -1.2139604986685224 -0.02205260892466525 0.36832698291443666
Ni 7.812363443345875 3.870902808788134 8.123017585742078 -0.7906967545068898 0.10331335277837046 -0.019225423888515277
Ni 3.203431921900255 8.455986724930732 12.352503795648161 0.021203373550492517 -1.12644348949246 0.10656142740202293
Ni 0.238643230255724 4.65920216498511 10.224018722758665 -0.7060863774546613 0.9870351907637455 0.8266176367732151
Ni 8.54057840103592 2.359051384001667 5.9072687121213585 0.9560073749236631 1.196702740029339 -0.502212037832077
Ni 3.844226745561714 2.6186640602997038 11.516356510190494 -0.7370576290251952 -0.48482469559356506 -0.1531333616242911
Ni 0.9463947918833603 3.355463794434564 12.681473332674212 0.8710072186321838 -0.038536465512301374 -1.3371909020857937
Ni 3.0303176457388337 8.225571325151856 8.086580179867562 0.14821432705611895 0.2387248716428663 -0.12764807286899305
Ni 5.629417452351139 7.930526113653687 3.504000307464815 0.15561216218208682 0.34818496074892297 0.5769948872709224
Ni 3.174704548933864 8.303891596148935 3.4281895021716577 -0.4746451839574019 0.4207078105089981 0.6402049442705039
Ni 3.394294093785487 4.318775114217605 9.366670654125013 0.3514034676862206 0.37647455172223554 -0.7411330846461495
Ni 7.3346793721359305 6.113309672421704 11.368860110601084 0.05913974358494976 -0.9600866871993595 0.12884029340488135
Ni 0.3615528301071801 8.98057982195651 0.4153287734181894 0.7849223139169579 1.198977909216761 -0.3551266821740787
Ni 4.5710952488409395 0.3395098351789264 1.5481415339704017 -0.2889179475574895 -0.24085657327388843 0.04608136773909483
Ni 5.98803519257487 5.477584385166079 0.29489972212894605 0.311604847632044 0.3461741009664812 0.4154262503950846
Ni 8.06490949313881 8.715138534282783 11.05387020426991 -0.7321010563508683 0.9571746557588869 0.8639647099631056
Ni -0.2279619610370154 4.983489836036358 5.63604309244518 1.0468192528009133 -0.031444591662526486 0.5531718167093957
Ni 7.865824009080122 8.773180659656527 2.6379499864981537 -0.1656482062618502 0.9195074802254164 -0.07715957720113809
P 8.53124358622803 1.6567714877817536 3.57244537456832 -0.45424733702734027 0.28517802089908306 0.6223337204170378
P 1.8758730558670398 3.3001687975231615 1.4476635031389122 -0.048957146624993106 -0.3707286503773938 0.7649222166459472
P 4.632535138365474 1.0012018120284258 8.35616565541244 0.2943740855760543 -0.9753376998211589 -1.3710327903359034
P 8.50441390068628 1.5482779867328402 12.329107117023664 -0.2251327347807284 -0.34014717804611094 -0.05271944188090275
P 6.343706998987012 7.885641287757473 1.318732812187265 0.046623613395810025 -0.36331307463961304 0.17960286866972938
P 1.848898784616748 3.343625839547501 5.908207615566217 -0.4784928398382663 -0.2453547182545581 0.6554793539310712
P 6.847642412904527 4.019708612700549 6.049897091636219 -0.3103920582708654 -0.23786740873857748 0.09780065049025738
P 2.3808747893850692 8.459474855149363 10.269159284626866 -0.25087281985930987 0.4354116923780759 0.02636100649203202
