# total energy = -340868.90007513645 ev
CRYSTAL
PRIMVEC
9.30231487144002 0.00000000000000 0.00000000000000

0.00000000000000 9.30231487144002 0.00000000000000

0.00000000000000 0.00000000000000 13.61487810674936

PRIMCOORD
 96 1
Ni 6.796512905470938 4.322590245079329 11.286025744159515 0.5225646333465 -1.3179112279205754 0.6784387909407219
Ni 7.6396840029473365 1.2901380115952135 8.082281619899474 0.5249812132077926 -0.724256877716101 -0.724186686599798
Ni 5.339361137583414 0.8931152245530062 9.212697959615742 0.3558118811665614 -0.7102515645759444 -1.0876339728244302
Ni 1.31167286988956 7.035628902212267 10.868484841808524 -0.45496955990534543 0.12250535232578903 2.280033971713357
Ni 1.1249847182225015 8.272213488666853 3.508213532209548 0.8784469627396807 1.193395272922661 -0.9089641574919315
Ni 3.74250720906328 7.107089282954026 11.603020718715218 -2.634854692611243 -1.4118943044369556 1.0411731102587294
Ni 4.042971970578352 3.862944276163454 5.197860839539011 -0.7880649733109976 0.9453390965765398 0.4824168574830207
Ni 4.90891513419063 2.7675223137333647 10.730348260722753 -0.25581139481150783 -0.9431392607117434 0.4860110025921824
Ni 8.780901260143331 6.921349967375962 7.659812351274467 -0.766943103730718 0.469472895727843 -0.10177120510223117
Ni 9.469756260753675 6.53156438109099 4.7289097653307675 0.21508512073673924 0.9953871622728664 -0.11258577921923191
Ni 6.259071679572074 5.221063602840777 1.7812341759354322 -0.06310361332870423 -0.20715943813175938 -0.8301678160183187
Ni 3.921204672490665 5.363733201830147 3.0570298788834647 -0.019386374946411777 0.7979061277711356 -0.1186713232916795
Ni 5.993890597327177 2.548080712366784 6.498694652458994 -1.2309086964870866 -2.5936951876537977 0.4101423762883259
Ni 4.561827171910433 5.25201240350829 10.006621673378923 0.6777741607735296 -0.8854033394528559 -0.4745199712334473
Ni 4.93830114600568 2.140927704727366 4.13437558358674 1.3347843495268303 -2.181910390666042 -0.03103938580430784
Ni 3.7116793384855415 5.020003375119825 0.49299755744404783 -0.8140302870265077 -0.964041043861417 -0.4089750954531021
Ni 7.343293655226184 2.4029832092673384 9.928132463726925 -0.11304574957478597 -0.48437680942286904 2.0498737018110504
Ni 7.378586636810957 5.467100521643011 9.551299420288194 0.7129579077635141 1.2338250988029331 -2.265492840674389
Ni 3.7103491074980286 7.674549078060603 4.144899292091447 -0.2555416860898889 -0.556807356579454 -1.1174667399151463
Ni 1.9982395011087992 3.647884064972527 8.54442526028491 -0.0860558512495034 0.047890653033691714 0.2598297719422815
Ni 0.22499508318158068 1.955309319239076 3.884365646219705 -0.8987013421133425 0.09074862873948243 0.162142764211753
Ni 4.760850192734425 8.298334388058008 13.417448343830657 2.044694728713272 0.6015666630730155 -1.4298501175844278
Ni 3.9852697131270207 7.658744445558618 6.592119658429525 1.729158407237306 0.5933807848281135 1.0268492374368896
Ni 7.05976840859405 0.23937460108715342 11.207685371541086 -0.326604920585302 -0.5708404376337524 -0.052809687601863886
P 1.7695979106048068 6.194197337565693 3.2720091599373897 0.6410490374383541 0.827345001857543 0.24585711181227335
P 7.089266048184276 8.046269569396278 9.075446028648242 1.594526189740996 1.2113852817421782 0.7636736889508268
P 9.021068418434233 1.2928170781994344 11.019079082603922 -0.6036636548113603 0.4140157432008031 0.4883923583401653
P 5.597249205183488 1.3217565789137808 12.607853020664242 -0.09316160905634924 0.4419875458233808 0.6605745090657914
P 4.7438455616493 6.75249435279325 1.170207920640629 0.9503118672007828 -1.3685352207250303 1.6271971976114554
P 3.9997162076976993 7.015898692949931 8.82856725037489 -1.0459481630498697 -0.8129946466731419 -0.4420435958722968
P 4.5392225474373165 4.3467855653487 12.062223897456228 -2.5717917027124866 -0.16087983833892938 -0.45041253666228237
P 9.046500946545137 0.1495058699874332 2.04270828581303 -0.3819767124873873 1.9463451476980802 0.3440891934129945
Ni 8.061078854236277 3.6713445023886573 7.989346845908257 1.7205323561311918 0.3117498578503405 -0.9713635456647594
Ni 2.266388021710455 4.880896562621484 10.773671000268513 -0.0016303365145713857 -0.32701681131174004 0.5842274004636195
Ni 8.541106194436347 4.470143559232644 3.260041732207076 1.0842935955972874 -1.4721923299960644 0.5984895668095886
Ni 6.728299032523878 2.8510570988233135 13.948714693299374 -2.4807615381768438 0.6989291975845898 0.8145877021918746
Ni 7.408233113434751 1.5542586299759396 2.728176313678247 -0.011047001842780974 -0.3368780203765359 0.30641327612877556
Ni 1.1624265344794107 5.027054529585101 1.5332800500945527 0.25700798622277027 -1.200588191126674 1.9171883236284657
Ni 2.4502296651105286 6.3439739049079265 5.670065863393632 -1.6973145232538318 -1.2960023436626262 -0.9821356965795986
Ni 6.362699464193681 4.418971526629102 3.99647063013446 -0.7691485960224689 -0.682661570772818 1.258326426378407
Ni 5.895500015824238 6.9732382782035485 7.824170296749051 0.06147893324108766 -2.022950395057645 -0.5484245318323974
Ni 6.354764589841595 4.637110803951964 6.590771753044277 -1.0667298756819112 -0.031993007966828774 1.5347063893698858
Ni 7.32044717057352 6.275127474568204 5.687792354091562 0.7543817221259395 1.568217376643138 -0.7648687377001924
Ni 2.2905740396652288 1.4441936436525233 7.472130712408344 1.118107458822939 -0.08530097536134987 0.036633334952317555
Ni 3.1629171957209232 8.851133735358154 9.483361826084694 -1.0914569461149461 -1.1288754959727203 -1.8103404753342756
Ni 5.910132556686876 5.50444931475394 12.908034061584075 0.7226062294865555 3.1276680628372393 2.3425925111718686
Ni 2.402201814841107 2.320592608872942 12.151578210558679 0.6442973691723226 2.2254108850518386 0.04003361888311815
Ni 0.2710275869697335 3.406061094683182 10.060019749865765 -0.8008394993678466 0.5146654331040813 1.457149576730329
Ni 2.694899143666858 9.175524050019256 5.54739531055848 0.2600747980735521 0.40747845630291757 0.3652378024661516
Ni 3.4461075590275283 0.9044203274839433 13.815561362143747 -1.0085879772338566 0.7608081944775735 -0.8993181497617351
Ni 3.8570000971353386 5.200840370904747 7.235245410707612 0.267152787966256 0.18139672734535855 1.0789174188870387
Ni 1.6652724523883504 0.5026003368035528 11.151306833457049 -0.24746379417776088 -1.477766224539416 -0.3999448669300338
Ni 5.789267583115194 9.206919361787472 4.832437084954717 -1.5281536758530327 -0.44284603716893417 -0.4760757457563413
Ni 7.180847335401487 8.762947792969209 6.8853434982615225 -0.3732894691260345 -2.289113565417122 0.17205462400882626
Ni 0.568456073000022 1.173068382379511 13.671787578411594 1.313287613105635 -0.49430049629448414 -0.5565664442132415
Ni 9.182044972552447 8.473487669623559 12.290993859901672 0.34645897919675167 0.242615207836208 0.6756342316123913
P 3.5323028060925026 0.38717814750315444 3.3362714096432233 0.6735639793469239 0.5594622777037978 0.6428120428760479
P 5.392914562724042 3.1968706440035866 2.358750703353896 1.6061730299513048 0.29372153959371994 -1.2764606740852726
P 4.573882971629427 0.689743371654453 6.7628496894037315 0.24652457019294316 -0.017252873543176738 0.18802194597136004
P 0.4591538764736412 5.160310186201305 8.467691397397552 -0.649698485583236 -0.09884169016026202 0.44466869219996963
P 7.106717190370105 7.849153523064872 13.18377606159207 0.05800614420113881 0.45325000611107746 0.2693593086992716
P 8.065264895805372 3.392600645459891 5.296541653257408 -0.11871323227320846 -0.3857719178637614 0.18341272933412284
P 1.0727894310131803 -0.3565949277993432 7.749915500702057 -0.5210597666661994 0.03148341532026191 -0.3047945095784299
P 8.29874368990032 5.026468483765427 0.9258361161514356 0.07755681263955676 0.24468597432230765 0.27245954489115015
Ni 7.546363182900302 6.981117338668047 11.332506619511292 1.0032573090495627 -1.219270598027526 -0.09809555602285686
Ni -0.19347605062921164 8.686157185962804 9.658312317192008 -0.26263895925630254 0.33332758402111623 -0.2608088480260992
Ni 8.03293005026276 6.62768519783202 2.8637259210743156 0.783116885277103 1.1200612401152 -0.8041279403111312
Ni 0.5962002262885268 7.774865238685325 1.173610707320574 0.3632822214016776 -0.1509389250761336 -0.1934649713638023
Ni 5.413975002973891 0.9882499959466485 1.568624194409615 -0.9856719918676317 0.7399426638824741 0.20155211924731092
Ni 1.613412048504557 7.067461422766589 8.729233414171715 1.3785411828978065 -0.474399386495183 -1.7671009479193502
Ni 3.3443774465839113 3.082712639257055 2.6543429124825413 -1.0133715146654287 0.07819161801007825 -2.0127883669229787
Ni 1.666463148656893 4.161064854399833 3.9198735112716925 -0.4646675039193997 0.0021263023143834347 1.1371061114126286
Ni 7.5703910615069105 0.6076411430125945 0.15917469578058385 -0.3158461394069012 -0.054388344942893435 0.26676609405079865
Ni 8.816287264874084 2.9481546585971317 1.3063761319574645 1.5091899902663364 0.19351587920639576 0.7813839617463962
Ni 4.173557862904934 0.21877462540990486 11.315733616059656 0.7912752527181792 1.324308903916803 1.834624287582305
Ni 1.8612350117096048 1.18510557746931 2.153791875584926 -0.37240423830760383 0.06921589687402918 -0.007783243489844659
Ni 0.1618891111802773 1.914220995659755 6.535059260685455 0.46935642475463685 1.8565200592141318 0.15860441204119136
Ni 6.479862116555363 8.161125247737658 1.7819699890201333 0.16146219320496064 0.008582342352372317 -1.3538084560378167
Ni 4.189511332440486 2.9603127837767045 8.362625474939096 0.932167335081272 -0.17801444113668696 -0.8308471014735304
Ni 0.47453153273557824 9.201291461455687 5.5699143537372935 -1.7909931811559157 -0.9471218995085753 0.6398444756072916
Ni 5.480598180124695 7.554391080398367 10.441726275922381 0.7970442939914726 0.8394363858044381 -1.646233902527933
Ni 1.2510682902836558 6.137332288428181 13.331116352741091 0.07431799398728492 0.721575474229196 -3.584227335827208
Ni 7.531479479543519 1.1515428263997625 5.53485579048039 1.45657107851904 1.358001411073242 -2.3375312945988775
Ni 0.238816462211274 4.920710469100881 6.2011136084692975 0.10105258176865177 -1.9411422633409021 0.9197681900859708
Ni 3.3874564654872024 8.311804139595898 1.6300687730237173 -1.6339612558081669 0.11726210164897868 1.1579682995736187
Ni 8.503301587910116 2.926619800302785 12.559738658869058 1.322975015596728 0.2867826463820416 -1.9573574396481839
Ni 5.904625586444866 6.912494163878676 3.655976148441318 -0.2996286491067743 -0.14411547439639696 0.7818385327853116
Ni 2.5504435002746733 1.9791046399807342 4.546443004028276 -0.6674730359578376 -0.021444028806388873 0.968545359489674
P 2.169327671195029 3.6847677423535563 6.385826878747203 0.2782841219927272 -0.3044124436486628 -0.8362484749947597
P 1.7056631023728221 3.1681078872666015 0.4794161781309827 0.6870928670712941 -1.1133424333341277 0.46027580260960727
P 7.7675629217259035 8.116176463600171 4.714246526829956 0.2748671258913782 0.6102230531964329 -0.13053722149133004
P 2.3447972314569117 8.434910970985694 12.856284355243998 -0.4258980964606859 -0.6205288059978151 0.19360303960356334
P 4.983212720884774 5.826421027619566 5.355412281422247 -0.620974378175666 1.1194246349724657 -0.12199370279669314
P 2.989940655771302 1.6450120111939284 9.698422037275623 0.20972976996209686 1.6178880043953878 0.43417602019876195
P 6.144513675297829 3.7637443932904904 8.848663040600927 -1.5530157292020348 0.5684994482054015 -0.3209590351534343
P 9.108221803902799 5.066533552738971 11.694077355389101 0.18976875345913768 0.3346445030603269 -0.31488043305952224
