# total energy = -381171.89441731316 ev
CRYSTAL
PRIMVEC
9.22628514859871 0.00000000000000 0.00000000000000
0.00000000000000 9.22628514859871 0.00000000000000
0.00000000000000 0.00000000000000 13.50360092216909
PRIMCOORD
 96 1
Ni 0.9138137135091775 4.718820400396618 -0.2100889692744827 -0.14457724452416393 -0.12817232080357926 0.5811037672329734
Ni 0.32055620295725523 7.311517218402254 2.7344660690202227 0.34775995739636234 -1.012914115413036 0.06767734874231571
Ni 6.899443648652259 2.3436886104516734 3.8124172390497044 -0.6305041720429722 -1.7913158546026569 -2.26749444448545
Ni 6.872539801409776 8.821297279757728 10.241050019358067 1.2212503474617162 1.3087850972495911 1.1314224307642902
Ni 4.089080313450244 8.30653515726122 4.061978101078915 -1.3472518858662217 -0.5970525772527459 0.2890238770077345
Ni 9.245106684107324 6.755965689644082 5.159266641971059 -0.21747084736009645 0.16751379871567926 0.5497537921667822
Ni 2.1208922787604996 2.426485292603263 3.9876400770726987 0.010027559439331118 -0.9652977990866537 0.5134320749176126
Ni 9.232651199272842 2.0998194436775677 7.922157050012077 -0.6887787394141492 -0.7214749440955898 0.693011032327942
Ni 7.251980000893427 4.289124626177095 4.726759618692968 -0.14535551745108513 2.4719598807248135 1.0850741825170538
Ni 0.6296616635233429 1.7976586078780836 10.267165941856206 -0.2384479638323958 -0.42054968766457895 0.6627375781553813
Ni 4.574032308909556 1.4047203533478785 4.118233528990983 -0.42700701325414847 -0.024737354845679974 -0.3517752492033426
Ni 5.753548270164927 3.120772469847445 12.105329786416025 0.1511700672503332 1.352081446044381 0.7095751073342103
Ni 4.505434879469275 0.6677440777476467 7.882686079885854 0.5794047822639957 -1.2772718571326585 1.6794250445679206
Ni 6.396924806433795 7.210129571849566 8.65678062292135 -0.20780684190777113 -0.5550703192836892 -1.2866666680839969
Ni 7.773385048634991 1.2807467609619956 1.5406798126585588 -0.006006868315712235 0.5666410548404242 -0.13468389666985192
Ni 3.69983257294507 6.633837354270715 13.452193028764972 1.2507007915123491 -0.8131548264000898 0.48023964732604385
Ni 9.21837813628103 2.099487297415315 13.373682878653458 0.5531509907737893 0.6698291948948399 0.1675809045081888
Ni 6.134907536941595 7.965596245343714 0.01174413825615765 -0.040946617615690774 -0.4230194893613102 0.8997704068078052
Ni 3.8774201078296033 5.418098997859656 2.127344219904762 -0.2759207639668732 2.6624115191835886 -0.5924202206870571
Ni 8.20921630242113 2.2288213614225567 5.694589540729524 -0.20569776598456832 -0.044442803694407326 0.8912086332807232
Ni 2.22579513992203 4.801737024254022 10.483939354658526 0.6071212743426577 -0.12482911536295924 0.7022834587688034
Ni 7.552295579680396 8.718959325843594 6.406486005644146 1.140589699085855 0.8182726072426294 0.550615111725813
Ni 8.00989163992916 4.064796731165534 12.043307930339846 0.12064593051954708 0.30697454794888424 0.327258752119217
Ni 2.1785196552613724 3.0194309547200704 1.2030180771952808 -1.4756226958338523 -1.7860893160963949 0.6709833631039412
P 2.9834853481162598 2.418864381141572 10.444495140758985 0.2753461224103258 -0.5981581516120988 0.23985512859256758
Ni 6.338983736240794 8.838550432824752 4.097870195229363 1.137130536892661 0.21000770621383186 -0.2434338470827614
P 5.3280965870741905 8.106703049090807 5.988928332052953 -0.08269387675580597 0.07426888591690435 0.05954186411937488
Ni 6.204768967435449 3.1028550242559154 7.7861763702457525 2.247663525802452 0.9520635597845669 -1.0803222696543653
P 4.997638734987776 7.579310142343628 2.242731831411408 0.9452928167196365 -0.6449835966060699 -0.6992783533938924
P 0.30302902922387265 0.6053983790657709 5.842724928437291 1.555119148698283 -0.8950758295456134 -0.4338456334425367
P 8.242227950375039 1.098647572681861 11.753021323415902 0.06376232995862567 -0.25118443756245773 -0.9837868590297766
Ni 0.20846145258944365 8.1926551207338 11.102471350510879 0.6871710286073972 0.297126708620527 -0.08824360292944157
Ni 8.449514896876018 6.326002353157745 9.782750916187533 1.5375682842987133 1.1020768877226375 -0.05669745269204429
Ni 8.5689768358663 6.402783497448533 0.6545855499913955 -0.09588003642877681 0.07091950982869721 -0.10060392426700737
Ni 6.996374999519721 6.473798213575209 6.092662222897055 -0.9760468100730416 -0.48058597492186916 0.3782015617156712
Ni 1.7979353964299611 2.4589525897384807 6.378021070969075 -0.9070954797143089 0.5202886928281297 -0.11692914378959218
Ni 3.515546755105104 7.681518928266886 8.116595471934906 0.47140636530513 0.3946702487946558 2.539962731127348
Ni 4.016192661455864 3.3925603752209166 2.9741409666048795 1.235478575245956 -1.7983933302747286 -1.3556902464415619
Ni 1.6843875061647933 4.498930348500157 2.913968980683747 -0.20778010243489375 1.4473552163477268 -0.8767225238494062
Ni 8.665004010797627 0.7299587631816339 3.650955405197548 0.15728157946470978 -1.9850497633571298 1.4500343058417866
Ni 7.160898114755641 2.2765397077662186 10.15107528742779 0.7374942023419816 0.026870599138598884 0.30134794579072616
Ni 4.193346560942456 5.040051967420454 11.574746430294207 1.0260131146888394 -1.1082189960646334 0.2816512386927472
Ni 6.585399357692172 5.312255055621742 10.267854222721873 -1.4972238190433955 -2.0004473288591225 0.13785766641214323
Ni 6.300021134421521 5.728009913111707 13.713581988244412 -0.6598941951693151 -1.7831310047990192 -0.1889809674505197
Ni 2.1516065817338275 6.66017839812438 4.209774884124886 -0.18565473129076415 0.7659347170708615 -1.2882846633033942
Ni 6.3486344304162525 0.9100733775448077 12.883069634679746 0.5737403848893667 0.7851488281054672 0.06338566334549729
Ni 1.9512116701745972 2.8838322431553367 12.228455483204657 -0.0621438205185962 0.48715591482990306 -0.22651521695055182
Ni 5.584808742655408 0.5333475511265675 1.711621654412516 -1.5212052695596576 0.4997360654877588 0.290958375026286
Ni 8.913873824075651 7.08750301708282 7.6933119658338756 -0.5375197119944356 -2.3573609277302947 -2.2533837161156804
Ni 1.8357262600462876 5.733268895597377 8.388855763103582 0.8402190296067336 0.493758250637769 -0.9603633378995139
Ni 8.831935186434881 8.879469007077292 8.925623498102846 -0.45980786183425326 2.367754098039161 -0.2898042068171848
Ni 3.705257628561867 1.7027754922945146 13.126593738392513 0.5220061897398688 -0.41914149446314264 0.853666413360891
Ni 4.021691527353161 2.697488963746416 7.104811527860219 -0.5104241413292242 0.7638120143009038 -0.9580434315170854
Ni 4.227603757379814 8.843135896500852 12.499554185083955 -0.5197027384176727 -1.320272014843268 -0.7923769704227902
Ni 8.773145298016123 8.89040215487645 13.361300281470971 -1.2592324831324444 -0.6128512348478994 0.44545596398795545
Ni 7.482766295448796 6.930582360738465 11.844089370126095 0.23817234157350595 -0.14832437027142198 0.8714602470092023
P 7.4452614466694085 5.208726910934535 7.786554647933317 -1.027771749251159 0.12058113871988264 1.1794524375893236
Ni 4.681970617856675 8.563201181417124 9.90082614453291 0.0073584972476002306 -1.5204239113089428 0.4651544708581473
P 5.518204190788644 2.821979228095803 0.9172089864122068 1.7438496907008936 -0.6683934908895779 0.36757107858501853
Ni 4.915773907627506 2.9641931860504056 9.548085891391858 -1.5060285618192193 2.3198433904008113 -0.4384821037732835
P 1.3843487159297028 7.703025398747759 9.15461804809906 1.2390220696228402 0.6078833493196628 0.657306636947797
P 7.191446344597843 1.1679092946466465 8.223814130647144 -0.21677202152085895 -0.7364071399253898 -0.5373685311285519
P 5.314524721747136 3.407599219872922 4.8598377091786045 -1.369912303578215 0.2527240141354357 0.9312383955090994
Ni 1.6100882325558392 0.37776931925881796 12.623827631734372 0.7198024414891733 1.1441015688938554 0.7172488218293841
Ni 3.108335437583088 8.604193565950165 1.3750310906450036 1.6458523508187977 -1.130586565126556 -0.7847315380623905
Ni 7.28965092280394 6.579512987822246 3.805598091759952 0.156994130131278 0.765125590906005 -1.3081546627544438
Ni 4.531858959888504 5.56135552602633 9.049815753444713 -0.9464091897122668 -0.11583205407067149 -0.2161367019297052
Ni 7.898133648966131 3.555828715688327 1.2923063735169018 -0.774139621479157 -0.09833826816128226 -2.8295903031573526
Ni 9.262175311473095 4.180319046434094 9.916490531312157 -0.5098968080708445 -0.9820786180894182 -0.2775644702178833
Ni 8.627822081995433 4.992407431357293 2.768170610982332 0.35233266436870936 0.826127584510674 0.6510385445508982
Ni 3.9116680779818993 3.903881093389082 0.21576497984498172 0.5001435853388225 2.4360441406648112 -0.9401554954930711
Ni 3.001744166255105 7.100235290469179 11.042866781121097 -0.27437090298125005 -0.21661364156612373 -0.6879958385015377
Ni 7.554011668702034 8.330809513260867 1.9431414386303587 -0.235543131480775 -1.4135824907726557 0.5527699532852867
Ni 3.2887000842714578 4.783810352377429 4.543421340328929 -1.0384361709435406 -1.9821948104068376 2.6630488956572718
Ni 2.1718398248760646 3.2980094058996006 8.7278359347023 -0.26448629687768643 -0.17976921904426457 -1.310162180102776
Ni 3.001753392540168 0.5451636544062133 5.825723652952475 0.8040649482836797 -0.04197454465957287 0.3512144916038661
Ni 3.4559449536008393 6.860887003375738 6.157898516689038 0.4666724501645705 -0.8683515261768916 -1.7604711013076584
Ni 5.092706376272596 5.911612985857041 4.308526581035195 1.7516550456779254 1.4027499189335262 -0.6468070229680537
Ni 4.859087612203017 4.94311139026793 6.570905786487366 0.7684230307103541 -0.45881798711715815 0.36841671441476553
Ni 1.6108632405010959 8.225648316117585 7.002063004260801 -1.5907428114391637 0.4568932592906195 -1.520870254817742
Ni 1.72743735226679 8.962265689228882 3.977161785127127 -0.17395775456881007 0.5369139600896365 1.2050619106273117
Ni 9.343366620023797 2.6720705483990086 2.7890875218477067 0.12601387969967975 0.2532652313508864 -0.22453495329572942
Ni 5.850230511335699 1.0967008265336566 6.171888332729427 0.4381463177004196 0.9947896378981836 -0.811879302121776
Ni 2.231847582923083 0.8988145418829417 8.2457311708133 -0.35632250225439277 0.20341205527418518 0.5480702338167722
Ni 2.6533135108667842 0.2154734292370042 10.597977160660518 -0.590148651044061 0.26240524597894166 -0.7601085973073877
Ni 9.403521998631817 4.364005155744992 7.41931067467389 -0.24503487302129412 0.009103247852848839 -0.6732335925906986
Ni 4.953610902669145 1.3284005233102196 10.940806538387346 -0.403596347639692 -1.3080325353542828 0.7433210934364037
Ni 0.3398806570208283 4.012557505141207 4.934958122158128 0.6044115887209784 -0.06654374935850475 -0.7468023671167848
P 2.966693509302365 1.215858298116873 2.3616180502137842 0.21351237693298067 0.6894004321585482 0.7041148555505874
Ni 1.5698247245427415 7.355849518127949 12.992070811666077 -1.2630400298039925 -0.7901928182872779 0.23470675162240867
P 0.651078639039109 5.835736017502386 11.466069095913575 -0.9437622390077229 0.3480957434692263 0.3263059012876445
Ni 6.243962226381286 4.541786442615839 2.4309185225758325 -1.0012451637155402 0.42276443592771057 0.5259895998676489
P 1.7845388305190957 6.13582093916279 1.3080574873757376 0.009448289897093405 0.015924127429424187 0.7077115717629102
P 5.321711997810886 6.794992875458794 11.442573438373211 0.10093173992007133 1.2879987566318594 0.21552966447332556
P 1.6076524932993184 5.369605643570737 5.934576286749296 0.4063042334891583 0.675235967732708 0.9931433605440121
Ni 1.0360749073874458 0.07729873888279866 1.862956717779985 -2.022308390598272 2.051904101977518 -1.572574625170569
