# total energy = -340897.55417827476 ev
CRYSTAL
PRIMVEC
8.99873530889430 0.00000000000000 0.00000000000000

0.00000000000000 8.99873530889430 0.00000000000000

0.00000000000000 0.00000000000000 13.17055873067958

PRIMCOORD
 96 1
Ni 6.367235036274743 1.6669257008063276 11.334779809752472 -0.2949986065339307 1.3710209632613615 -0.13441470216886528
Ni 4.668948743440181 0.4022209647581021 5.973546672194165 -0.4119115523736067 -1.4097872853962816 0.3387168733574876
Ni 2.854524774646828 1.5970505222986557 4.757429706762078 -0.6027653113668071 0.0003111034825155932 0.4531929276208969
Ni 3.6254014220209054 4.471705467495601 4.882694799792387 -0.2926632735325347 -0.8660151647342311 -0.24589824946285394
Ni 4.975292684449411 4.673943041453286 2.30932560657194 0.0711820194614645 0.31980281006180405 1.1001562736611568
Ni 7.186173928131688 6.157042580436726 2.6234174585528516 -0.07144530042518019 -0.6669079074829869 -0.2339765583246035
Ni 4.955801424095565 4.463633602058206 11.296559481912725 1.1210783685258046 -0.3441655551768847 0.4242232798614242
Ni 5.552408566385345 7.816148380390103 12.375531224157927 0.11680110285216014 0.3603555346731858 -0.2889045778210508
Ni 1.840187347552846 6.377412605739286 0.35673865764524626 0.286729424546603 0.44200040133918717 -0.2862126328111845
Ni 2.5589883145632535 1.550671041290473 0.39483750256035005 0.660101940304747 0.038172140194347164 -0.15230958017141513
Ni 0.8029544385944632 8.981610565740086 4.703338309722849 -0.6228934495752497 0.24962917726019587 -0.2849265670099093
Ni 8.683104523054123 2.383422991616096 1.5212388782067583 -0.5353566429048457 0.518817507599242 -0.17974942154992268
Ni 6.837373954643489 0.72043423744172 4.798442342121585 0.7912662538571147 -0.3686923366736553 -0.8023747050654504
Ni 0.5086076112988748 7.269970149929943 2.393578064242742 1.0663843194170344 0.2323642195321611 0.48128145832699687
Ni 7.6617930762121125 3.8933387613726027 3.744876728850076 0.16416287996557535 -0.1509983175591593 0.8202880950107615
Ni 7.461112283436891 3.81772238983365 12.443148620014266 0.4723355619876188 -0.49492218903888313 0.375629687223437
Ni 7.891809745604848 8.597922496041422 6.833399213323871 -0.02032225649711984 0.521461115869676 0.6075262230905601
Ni 6.646330807223287 0.8646092725346196 0.5072667997602215 -0.20977553559836776 -0.8667592419891074 -0.08277306673317358
Ni 1.7776191419940768 6.561121784005109 9.128277350598442 0.43080453262336776 -0.32772335046046136 0.03318265739955576
Ni 0.09042199049563929 4.8450899854374985 1.2519193331346776 -0.5177723541641792 -0.40287103943789326 1.3038308385681092
Ni 6.436480303321303 1.7618893529365867 6.967541558588283 1.1492887695217495 0.7778052432562024 0.6290283588283941
Ni 3.329037078302726 4.251110473814073 0.42098332756408996 -0.29125508033109837 0.1462893421192642 -0.14265945867616076
Ni 5.960834159035403 5.618918217943644 4.760392990249853 0.13731002143878931 0.014071133381085446 -0.16277628403069386
Ni 5.1003121120098855 2.85257204911738 9.363055250763672 1.3694980988589318 -0.5354908544898648 -0.20338325891877876
P 0.14954907972970352 5.464391937797638 12.402319558852 0.19446204516974894 -0.025236920189917827 -1.218668702777469
P 3.9433627301200787 6.010597164463275 12.412540322245304 0.12419868086781193 0.2556481297607662 1.3104419161267238
P 2.2915369069101286 8.382240811756569 1.1568224997240693 -0.28664997745891924 0.43964115707839124 1.1509705280995468
P 6.21964678093613 7.726871928880172 5.803290602990668 -0.3260667886936449 -0.701075040282999 -0.4795354221701677
P 4.596400940590361 1.0071024440263494 12.540821791300825 0.3051027848474681 -0.023485227606133748 0.36569880126297016
P 3.9400331981113417 6.086897439874292 8.280211352779663 0.4013224640038508 0.2597760358862107 -0.761950792722449
P 4.704394761230486 1.073963046255841 3.7151251106682257 0.5184259285877781 -0.2699108103273674 -0.07376880635203426
P 0.10837266739030817 5.50035988222715 3.6546986040772387 0.8481434266601329 1.2797843391418668 -0.46414839819113607
Ni 1.5079990391676938 1.1122076706805166 2.5033410362150765 -0.07110977146263237 0.009855809748157219 0.8499843365236136
Ni 1.8560791138431936 6.478612381334557 4.749843773023255 0.28081228773121963 0.4475264733637389 -0.30942918013696386
Ni 6.039555094204123 5.515693726937656 9.249630693455241 -0.454966731691868 -0.12475146804748839 -0.1956666070008114
Ni 8.684256361154443 2.289773154819014 10.121956381388488 0.06888705277970071 0.09394296730706402 -0.17409967946331306
Ni 2.4114090579597995 5.217961575475346 6.968924664182182 -0.5859592955530618 -0.03706013807709101 0.6542948467046666
Ni 0.7017969570544386 9.026721225090883 8.940135395393419 -0.6673233977538507 -0.37526356213326983 0.6326333025708331
Ni 1.330453994485612 1.0117637888385806 11.507907375345125 0.10952102425097912 -0.08707375099105649 -1.0541852062476813
Ni 4.091580896919803 6.959504788218006 1.5679414138071406 -0.2981937164324606 0.0036877332642323585 -0.8977682887761118
Ni 5.689495297793699 7.770587784281365 8.126392373217133 -0.892441991467192 0.3165279959652742 -0.8073248499818741
Ni 5.314751970842831 2.6486337142146925 5.07295685700081 -0.9254557273890512 0.9386511430334028 -1.04973231268265
Ni 0.898408521790874 7.487568564803607 6.815921869898552 0.4159993492897352 -0.791854522260417 0.4993894807816173
Ni 5.04684162769661 4.569404735114119 7.074855074850406 0.05842009181010584 0.19103039378038067 0.10425489075603336
Ni 7.993774413688612 7.161049459568467 8.966239826215428 0.922385830214476 0.24702259287528427 0.559347092282172
Ni 4.4738651639337 0.15690194622791584 10.341100778962426 0.5472739631677219 0.4939767944064783 -0.14063034406127395
Ni 8.121547454207665 7.2641479682822325 4.744588511690546 -0.04888849817058677 -0.2546744529935872 -0.24869278148885557
Ni 7.127178220430942 6.032959021332761 6.986691766879613 0.3610967837145846 -0.08987265389243232 -0.6531167672361655
Ni 2.279154647331692 5.44225504930712 2.553573775618235 -0.21043039557354726 -0.9858247153954118 -0.033426140868929526
Ni 2.210260330956324 5.177917204018922 11.348398495541721 -0.40744683173403373 -0.40941372565241746 -0.03820967830050194
Ni 1.2140733526775347 3.427096295327594 3.823057739909271 -0.20865376328909874 0.1419629468297684 0.7239617150731854
Ni 3.666723613869873 2.7603080175347454 2.721248107704687 -0.2762804612991371 0.05072040917300297 0.012432312226081816
Ni 1.1567244135108388 3.1484504611369872 8.018051201399881 -0.6036207173885669 0.8792355200792471 0.6327852547676651
Ni 3.784472063422079 2.5995996063346793 7.0608944371251265 -0.3256662108211166 0.16341314628374437 -0.22865668877358683
Ni 4.034879866684537 6.694591023879648 5.930675798024377 0.9513971298451616 1.3502521061451263 0.466377544631971
Ni 0.6861814519334647 7.324619468549014 11.325732481423868 0.1693894184718373 -0.019965387378333355 -0.04818401590439444
P 0.2308319547981192 5.55495520843527 7.973232101068225 -0.12050837650041825 0.2651164742625176 -0.6847194817431111
P 8.509923864924033 1.5150180525915167 7.731539572807014 0.4080322719238586 0.3508198272686087 1.021476917381383
P 1.7975693378410191 3.09901141017483 10.211489296850443 -1.3722872315682946 -0.3392742885228544 1.3386523171226687
P 4.0185831573120465 6.186918381163767 3.6427527831540014 -0.018038602669265706 0.40801453131204574 0.49316535424877644
P 6.979832930941615 3.724315518885854 10.23140349775675 -0.8880160944853545 0.4574133934601477 0.45174051144508653
P 6.270768595372973 7.7520143949137115 10.220511428720602 0.42384147104197323 -0.6043804783727269 0.6643411751970753
P 2.641506715968965 8.435441334015083 5.8169749795465755 -0.7294307086075568 0.22669622261310635 -0.21865381192460406
P 6.935667138782485 3.9884013995896077 1.5975751485584109 -0.031512211675668304 0.3369304708810262 -0.5309379450118598
Ni 5.178169168603366 2.8229752091802602 0.6926146476984529 0.2526039436178037 -0.12408400966681854 -1.1336870584287508
Ni 1.5715301093884488 1.0675469480876543 6.957255104428318 0.304682666590914 -0.38775706661459025 -1.0366726512852147
Ni 7.036632947263628 0.6142194667424793 9.160545015130678 -0.6084446211397715 0.27034352698941183 -0.09284613469845945
Ni 2.840945683292279 1.4897046105899607 9.061528332684917 -0.5724769447959108 0.36031028325754716 1.0256881272492528
Ni 6.444201218087507 2.1346349606822126 2.6961974287697665 -0.5237067173707431 -0.9267402505284298 0.17717060507915294
Ni 4.122257585075972 6.702779872874108 10.350109412729847 -0.02274423567505115 0.5735565510133348 -0.22166920171216017
Ni 8.148552658419066 7.124667573321652 0.38358728386488433 -0.3409452484673741 -0.07313605786404179 -0.4539298057869215
Ni 7.6259871090154565 3.941167038741344 8.089119612189602 0.5571487990792727 -0.9331248138985347 -0.03361665961318081
Ni 3.1666369048928154 8.13185100596443 12.250884344233022 -0.6218439252648129 0.3972431517281546 0.7751210115558198
Ni 0.045883650700936 4.958411057291601 10.075648890261576 -0.06124881950815258 -1.1302253251323955 0.11626322807081911
Ni 8.796902527871639 2.5371663818032912 5.761802834414779 -0.3890703861093751 -0.1742662869481644 0.2683671199893314
Ni 3.5111444817102924 2.5846437085008414 11.522236961211915 -0.270335813679928 0.12649133355673053 -0.33324942248501316
Ni 1.1302681321441221 3.252790795302661 12.623940408341625 -0.8428076162695162 0.3978974974827018 -0.3508956748118667
Ni 3.2501991595769417 8.309144086062066 8.08914660839508 0.12838649369691438 -0.3955413385456994 -0.5163333077248076
Ni 5.469035285139551 7.985342598844866 3.5670347259077553 0.2558946985539335 -0.3971143394597742 -0.0377849320582575
Ni 2.903252925531444 8.378101393583547 3.443785349553006 0.6304848887692625 -0.7066751600785959 0.06737421567960009
Ni 3.323358876417556 4.244037467979298 9.395138441225154 0.1802567002036444 1.123840247541658 -1.313307410599977
Ni 7.260017548844368 6.028648627191721 11.327588920487118 -0.2040178071789841 0.45335079335499984 0.1531269338663879
Ni 0.3637900665156405 0.2012846079043728 0.4752591986740736 0.03848144390464986 -0.9133869691499753 0.17287223481411518
Ni 4.34264560784885 0.49013230814445097 1.6408806616363658 0.501536351921291 -0.5700403103299602 -0.3419988865428691
Ni 5.978822630617738 5.65357234703998 0.3070557409602872 -0.23949414570872302 -0.7082013669151351 -0.2126626273381757
Ni 7.813889697865257 8.727558274738334 11.480749192636026 0.2946980445743763 -0.16367308481335038 -0.02609438309420667
Ni 0.24071616549648708 5.0290781244932425 5.792082678350448 -0.7608778713732444 -0.8119685194014725 0.5026190434625085
Ni 7.796909084620701 8.885864023651015 2.400070651659778 -0.23926891707179437 0.2456516806696866 0.9159804409087644
P 8.611699559569464 1.666106815906882 3.6954745727020697 -0.5254460686593531 -0.5651819537963945 -0.22008437372354356
P 1.7875717430796512 3.3135682525648393 1.760837400796529 0.2478566587408054 -0.3038851103902831 -1.767292752215182
P 4.8460978437752775 1.0455270431541999 8.193259274561235 -0.3248208321016858 -1.2315856679494532 0.6099307187669947
P 8.31421037395644 1.6576839997982942 12.490773525968422 0.3857333513163421 0.7172547353666551 -0.8828018972742668
P 6.187962234442182 7.607134758857882 1.305190045527429 0.6269658198724106 1.423646045656245 0.8632113767368488
P 2.026740126128834 3.314360141258809 5.991063610054181 -0.5160689983198273 -0.5346878989725953 -0.7790856526305228
P 6.807471157710973 3.8108383574372082 6.015415087267267 0.9509613278593235 1.3275325530604234 -0.6545095338186341
P 2.303325249968087 8.390789610157379 10.243388913114686 0.3823785759114963 0.6078604665015274 -0.2263421817077973
