# total energy = -381171.43430709833 ev
CRYSTAL
PRIMVEC
9.24902746265063 0.00000000000000 0.00000000000000
0.00000000000000 9.24902746265063 0.00000000000000
0.00000000000000 0.00000000000000 13.53688659761204
PRIMCOORD
 96 1
Ni 1.1380835862580196 8.32535488097579 4.112885300879934 -1.1864350395547438 -2.30476052792576 -0.33663890778253636
Ni 4.903769643385141 5.772031350051249 6.435977414475381 1.4882632674159981 -0.16507485025688343 -1.5238689324347496
Ni 3.36431525923967 4.446525470300941 10.838267560897247 -0.9483858538226634 0.12099585765979808 -0.832317772481786
Ni 3.064868744528541 4.483160868273846 5.3732502798670065 0.60633014589993 0.8576176846991552 -0.8839385819818713
Ni 7.544820200255909 3.9250375521221184 -0.2781709767265099 -0.017340805271292718 -0.07606557280601092 -0.4914015774801344
Ni 8.579601398238397 3.2956967241321253 9.265606393277372 -0.7579079901116431 -0.8034386275535905 -1.8468079741326906
Ni 3.291016716211325 5.067153714375135 7.749624191150491 -1.5588336214353928 -0.14217506284057452 1.7440402094451448
Ni 6.940460995574378 2.743113575459764 5.849234832494933 0.5187118352593132 0.9623101772132394 -0.36659508782499445
Ni 7.931910499665662 6.378490083977882 0.7172482099726941 0.11308817277694717 -1.1141669861179522 -0.7893610664146019
Ni 2.451713714683608 8.655896626180457 2.3756968824696445 0.47857485802911126 0.2632989614378046 -0.23642964785078635
Ni 2.3507883264785234 6.48885872927217 9.767987670423011 -0.49452058272509025 0.5007174555644215 -1.3340834668050636
Ni 4.717660711799481 3.0932262628786873 7.229279452772085 0.2945921151241314 0.3947332408221073 -0.9138248280183423
Ni 6.291262505517274 6.8683000829299425 4.005469870070055 -0.5436638772189605 -0.11727058628941094 -0.048015351537014084
Ni 0.6611380596716522 7.016534246856161 1.6604205651623944 0.9587013768160587 1.162557718716514 -0.21630639473835006
Ni 4.609465587970386 0.8716098546252571 2.597241613159973 0.15897825044084235 0.08803302958053225 -1.6574043173224553
Ni 6.953529871448076 6.921343255708184 7.075527319032527 0.2356536889167103 1.0478073277457953 1.229571722843218
Ni 3.037593362397237 2.6476081173763966 8.751732274545985 -0.7604001604058775 0.11029338364062942 0.8954604665785416
Ni 0.1487641332026255 4.410556002308861 1.490086774900286 0.8214633462657853 1.4653161717015215 -0.09589109217237034
Ni 2.061099535791988 3.71244865477114 13.225592320754302 -0.4696058217612816 2.8105607973297273 0.20212881768638735
Ni 0.20095084603330476 3.150486992202155 11.677283842572107 0.5525532092887904 0.04278341371411342 0.17608868486888382
Ni 6.6429105315031 6.041779237423069 11.845899163522587 0.13900900640776703 -0.5234094978452986 1.1350839387762772
Ni 6.918624041619814 8.406052646013306 12.899420741048802 -2.935406624863235 0.28433084240743933 1.65115987907464
Ni 4.738489521755295 5.269402198968299 3.179421649869016 0.0406419418910784 -1.5306088222617447 0.5916545461656262
Ni 5.002271786382222 1.2972501007027877 5.441558047650166 -0.5300547710759581 1.7354563244308756 -0.08467902550663481
P 4.961946026432244 6.947573497730692 8.271890877445777 -0.18932652371539652 0.4677985933492137 -0.08472170581911216
Ni 2.700679037237171 6.279220271697349 0.7905190059185045 0.2867793039479319 -0.8871624882358076 -0.14981046789864522
P 5.383377964992059 3.9396140194801847 4.86644334305713 -0.9823465270388241 0.44036389417702865 0.5545494137832127
Ni 1.4064903646406781 6.21120292337805 6.11471984308672 0.42363449723748975 -0.4227572368388591 -0.9637633647199982
P 3.791860804984562 9.280844166102506 4.304378091380016 -1.6882282446818473 -1.3527077667744702 0.680238563153622
P 6.58664869715087 2.386730047388069 8.096872454749114 0.4491825209099232 -1.2143322801856442 0.7223941134757493
P 7.697012947957035 4.150242122998733 10.91289611408174 -1.2043494579413192 1.2403143060717026 1.8679972066157957
Ni 0.18522934906931982 5.464769407092934 4.003114142762885 -0.2936793735018749 0.6454268547910755 -1.0443098561154982
Ni 7.007220476152119 4.440245380620658 7.637660088610473 0.8348456811099622 0.9232805741146035 -0.4644142502580131
Ni 7.534276308892842 1.7714847373255453 11.00089968595056 0.4944107966201033 0.3460128927982686 -2.878759565793152
Ni -0.25226167595864846 0.7506584720523521 5.175531044046207 -0.606863906916213 0.6196469176134941 -0.9854133388896062
Ni 1.81033065287369 1.348767183941637 3.9470715103626772 0.5370718258237396 0.45877376414278404 0.11373146278790089
Ni 2.725993625536046 7.8115991497965505 7.712167479534567 1.3566626376571602 -3.18161160693323 -1.4538801619504378
Ni 1.7601824257065375 1.6433857062917818 12.797461311567934 -0.6319707292861697 -1.9068283205503809 -1.1324251609971916
Ni 2.422736511490194 6.801290878609393 11.999299834216709 0.2939930480875517 -1.0671345673194979 0.8903845947175311
Ni 7.188806633284673 0.9629532503284663 1.4674525547742334 -1.4614204361915413 -0.5455922045899247 0.10054376045303329
Ni 0.08311916044001634 3.1955760013205374 4.99934816878585 -0.03600598578096379 -0.5152112783052224 -0.7629612362648345
Ni 9.35243163904123 6.486518725311771 7.979696525206387 -0.22860706648257403 0.3131127996361382 1.259817923322269
Ni 3.5592662611262886 0.7185911687673586 7.427256736460454 0.8977837153950796 0.6778993734974841 -0.3318983077737574
Ni 7.064323972007892 0.606397690345058 6.672290992296013 -0.04517273988189639 -0.9884143304994589 0.1078436365485562
Ni 0.3243596952160054 5.677321308333866 11.123124659611793 -0.2698943552671352 -0.11664220867679265 -0.5573022939380016
Ni 4.220543981113363 7.229724330995386 2.302772925055514 1.0422732853014438 1.0322238714852416 -0.235393236166472
Ni 7.279595087337195 4.6255496468128205 2.4922901232791483 -0.005642800108074153 0.43661419732660933 0.5479519630713531
Ni 6.229885958951204 2.474697548049594 3.4722245881186606 0.09992823835622146 0.7781343444608471 2.1416492291531504
Ni 3.697307996734875 3.0017996259278745 3.45954047178944 1.4911932965785994 -1.2317579318612593 1.7182723564524214
Ni 5.4212434836239884 8.380201614118766 5.883780875152999 -0.3190936998099214 -0.9768268827721759 0.29750131835112636
Ni 8.200779729423894 7.665917717463496 5.012262585900105 0.4932098343334667 0.6854157364791874 0.9718183738139908
Ni 6.7269656935272755 9.55036082778654 3.88913375222537 0.5057712159382451 -1.3147683114162194 0.4727065721737923
Ni 6.4731816276402405 7.801887670909514 1.6949536591819439 -0.8707467658819456 0.6031502055100516 0.5333527251009396
Ni 1.339083452137135 4.35548729250561 9.18730875087908 0.40153560845592134 0.1112377498317697 -0.5869843943834665
Ni 2.290928620424334 2.5067176812942793 6.160244481400893 -0.22235311515306225 -0.6729793104880474 0.5160653987754016
Ni 5.888402614200476 5.417599366784472 0.6275039711262167 -2.0594256071655432 -0.4996000541305267 0.6793348203924301
P 0.23216631388449263 4.133899091385977 6.892224542393845 0.04781429126980152 0.9750157977053658 1.1742025020442939
Ni 7.372344335222146 6.204090421221735 9.715382901548814 1.0259642637287751 -0.08489679794439574 -1.9327869493976715
P 0.8784291626094588 -0.3657046979977476 0.150126514955064 0.5083407764376342 1.6819709509182261 1.1131015209679151
Ni 5.304835223364714 3.7720401390274962 11.86449895784814 2.0719260536253996 -0.8679005546824021 0.5179186499340565
P 3.339860830499361 1.4312037661513073 11.012135404571485 -1.0479081149897178 0.8092804310463481 0.1376308951133178
P 9.046862268117513 8.503925855139608 6.90761584907567 -1.3671026020435617 -0.8353316196074453 -0.8021476766563088
P 0.6471230082835323 5.63017901510794 13.258785230687442 0.4431525126657594 -0.05506248819178259 0.41082988927365377
Ni 3.5397323150220785 3.902617909434332 1.4834265501892814 0.30060541119774675 0.9248882849213556 -1.1855066142032034
Ni -0.34838496907978184 7.699084730119602 12.531813518091946 1.756752771915807 -1.4704990014540418 -2.1459524845141944
Ni 4.836362730881597 9.138224161875746 11.469316684268607 0.22870785372649644 0.5033592640626429 0.2319942377872521
Ni 0.11951593350312582 0.2647848592091694 2.1808605685241678 0.28652399340401624 -0.3127461603253388 0.4466224734922308
Ni 8.091261994660659 0.5828764884806563 8.749539330123017 -0.9053077916862666 -0.7514226394976156 1.7953838540244433
Ni 7.902322860656492 5.409524965766965 5.592196033826614 -0.7174354839188934 -1.5529982457005385 0.8475055359658178
Ni 2.9942894155885664 8.71596905986741 0.01426662493643179 0.6204763554933249 0.6297814349443347 0.3007385943415014
Ni 5.8650395707065215 2.96718976497998 1.4818292431380518 -1.0497834776355597 0.9851053207308842 -3.265914737157685
Ni -0.31537518989137014 2.3528786066961143 0.8918495015285918 1.2788219752285976 0.29669322062753417 1.2092499805667303
Ni 5.600119675695684 9.128475686878662 8.854856156590543 0.6709931332959541 -1.3960305979318215 -0.8880631456732061
Ni 8.38148722894286 0.9298047357273826 12.892937172763267 2.5530419329088097 -0.8511274489891213 -0.6694317023461052
Ni 3.3315552037940677 8.913815007365116 9.538983599044688 -0.007905370890005741 0.6312446497534224 0.9642441610111588
Ni 7.122583596302598 8.216530823275916 10.699149238486328 0.8374175556021964 1.1463569405869354 -1.2043576854714355
Ni 5.918138237649831 4.405746508002901 9.680565862384663 -1.2079127498125455 -0.4526308844698398 -0.06780127591468968
Ni 1.8585458332909472 9.169217653066658 5.986011301139952 1.0893836085256852 0.478078378008667 0.04789733790191106
Ni 4.6990239213638825 6.916256290576879 10.431808872975742 0.3112693186694962 -0.5338260651929323 -0.33972114625228594
Ni 2.247421195010412 1.6504334652555164 1.5516251794478053 0.1729406261582054 0.9354177236977695 0.13481116627633558
Ni 4.7305168600404155 7.244319296408474 12.936891326205993 0.30545039799487395 -0.7859759519924528 0.49491756105319273
Ni 4.1319937917186165 2.2506213585293784 13.23879068301316 -1.2126489789459503 -0.723073141820645 0.36554093552886724
Ni 3.7240284372154915 7.140878172720272 4.845177054100023 -0.8748139939727838 0.12371608480443853 -0.6352018346289576
Ni 0.14530222220508485 1.7553914294555995 7.335395395216602 -0.2710253835477848 3.4963984518376816 -1.6357787686328797
Ni 2.170145570152138 6.195396335360958 3.274572870198695 1.5823982961292102 -0.6573637154379777 -0.05946344547295566
Ni 1.1609379332388448 9.33162132714044 8.195800053011721 1.5350113222048145 -2.2618264475663947 1.921255551719304
Ni 0.9582547443526431 1.6069260398415943 9.681852402111508 0.6371054794095737 1.3084253999173272 2.3909621607245075
Ni 1.8579723935852366 8.978844919798213 11.401334482253851 -1.368292508586605 -0.23304916141432766 -0.6863176794681664
P 8.31195304011168 1.9828712611000336 3.282180195326873 0.7260327386696013 -0.2988174660593886 -0.21300818360305254
Ni 5.150441207115861 1.9258325084368408 9.777057266800753 0.06548342641479045 0.725134652335364 0.46917619042303066
P 8.248051509034982 7.1206597985802125 2.9085222585720185 -1.0511263648166993 -0.2436881291854126 0.4328182206192868
Ni 1.6267467057986598 3.7485383601208686 3.1860143566791868 -0.3942061646740437 0.06573719429680935 -0.03808420846623119
P 4.0122188854451695 5.073905504458504 12.854438095746803 -0.7176092904925964 0.5643620289982604 0.8776630333858045
P 5.139314627019571 0.08113801874706095 0.5170613336118361 0.16262613160607475 0.10761377992593725 -0.45219739647684704
P 9.457593081846566 7.828830088050406 10.199786843920426 -0.3084169368223656 -0.23121159398495664 -0.35679712789796614
Ni 6.2445179204743395 1.5570552834997853 12.677822365998908 -1.4138995077924426 0.2559767167447785 1.7823275350611176
