# total energy = -340854.7876310442 ev
CRYSTAL
PRIMVEC
9.44647309632840 0.00000000000000 0.00000000000000

0.00000000000000 9.44647309632840 0.00000000000000

0.00000000000000 0.00000000000000 13.82586824060688

PRIMCOORD
 96 1
Ni 8.932849420246946 3.52770978989186 7.992347227313689 -0.5485404885849714 -0.4766989811626371 -1.451798853941377
Ni 4.473320635452229 5.963964636756703 13.390933839311847 1.0607152940567153 0.8976153081380154 -0.2594525911085209
Ni 5.610949938762747 0.6030590611200144 9.798061333652468 -0.6713147783014309 2.1056291023047993 2.018614743796769
Ni 1.0434290740251102 4.726731721574408 6.635601313652926 -0.20153977795213682 1.4920008800815594 0.022872790833115445
Ni 0.29254215609729783 7.978812320723223 11.89142148910513 -0.41342156126022994 -0.38298509914724366 1.8915402840430586
Ni 8.048470613016704 7.967098694137391 7.729697490545587 -0.38398757226982905 -0.3893688911864004 0.6502535867557575
Ni 5.765673720899301 4.07920433320428 4.089069285013622 1.3042267884549474 -0.001531863263494136 -0.15485651496298491
Ni 5.398479866852658 1.239641765810833 5.852172240704526 -1.4830027903480074 -0.16933413975386968 1.3081641758361406
Ni 9.279478302457013 3.2770854133203424 4.99357191378886 0.7925453776798543 0.9926823617471937 -1.5090398378417174
Ni 4.5807742664311215 5.225751107076916 6.22027201151696 -1.224697425470052 1.0830831202289541 -1.2472028056614197
Ni 8.151371043984009 3.3059066026053183 0.08057841514285369 -1.6546506658367182 0.16240990183021062 1.3186704746841031
Ni 4.805090215549786 2.144840599650084 3.7838915265605113 -2.1932538407033197 -0.7706735173074275 -1.2211606159613873
Ni 7.291298011919366 8.376121530863115 1.5984773805001025 -0.6212831676653364 -0.4051174122699087 -1.9551658313135039
Ni 2.778028241925622 2.880465795713325 10.015818596530373 0.08656081591037995 -0.5900710037285902 -0.7099039514285387
Ni 9.416499394092078 0.4383078478376064 8.027880135702885 0.2674628630075071 0.7043552536961676 -0.16183011806734066
Ni 5.33577417872625 2.9038269235736154 1.0855244472442878 1.4062281072901137 -0.451311651437784 1.3759559386691336
Ni 0.9998619403042612 6.90990610887393 10.007439574932283 0.4827505866733557 1.2446592133039596 -0.17445346325830602
Ni 5.70772905519165 8.534444419232894 8.209399783301832 -0.8311654040448976 -1.718439478157905 -1.7918403596475594
Ni 1.1330572103528236 6.129372379916301 3.7717386389777112 -0.32639846100145076 0.05897673564452424 -0.5346999831574533
Ni 2.797979193013747 1.9418264472661368 5.310723076836762 0.8737477574917984 1.0086463412756177 0.6390209512647318
Ni 9.443572985862232 2.7586157398015234 2.2200883700490794 0.2572617541047892 0.5984674553224015 -0.3846676290559891
Ni 6.597208957870561 8.796092829857368 3.6123671920990383 2.0183602045838014 1.8927242770488306 2.5174846046294905
Ni 3.659592000186043 1.1000228940861696 7.773469612731689 -0.2689864987408851 -3.7657755011487657 0.5271692219980469
Ni 8.121274580836866 5.209673209940558 4.577482170572121 -0.6225363233461473 0.7659288035335906 0.06802213367624414
P 1.9272410928721668 0.7842452482201875 1.6369689242495262 0.13621318883018474 -1.1147452272189255 -0.8708748068193777
P 6.0553687100183975 6.045638842773716 4.520989427772729 -0.2636681718517652 2.3011887514141014 0.1950372009469286
P 7.952551125635633 4.637065799354482 12.180949275651189 0.9187459194690435 0.440064617769055 1.4925246137955133
P 9.345339112583154 6.779903746717311 -0.17663487638319458 0.09258953860296312 -0.2961226928360448 1.1224937608160925
P 8.879372936293407 8.169158752742977 3.7939284041794186 -0.6836031087504807 -0.40149369947439245 -0.3992051605505318
P 7.665869561420472 5.236784587602924 7.2530369621124375 -0.9028523881672387 -0.09320763180293624 -1.2624702733434516
P 6.541890411671667 1.4825767133171364 -0.333850638111153 0.14509197937705337 -0.185314574342526 0.9917300251362534
P 0.703508132330042 2.8207829789639054 13.879236201135624 1.4472891389964817 -0.17610436859816767 -0.49273752268273857
Ni 7.611920753814278 2.171942530839398 11.828417292430245 0.21137450465437144 0.7691321409622367 -1.005030084679269
Ni 0.737484261960089 1.0464519454020988 3.717125744315885 -1.2620239298346523 -0.8448477866279966 0.3061175992652276
Ni 6.194732526970627 6.710245454423829 6.609649962881479 0.997375910568121 1.0416328235039674 0.41908647285549117
Ni 3.527161894454781 7.121762160035568 7.233417582228476 -0.10125209937396756 0.25896922371419917 -0.008939468581474928
Ni 5.870293409962267 4.088442983850202 12.931209892415582 0.8701808660761464 0.5536765242599562 0.5691550795115295
Ni 3.686467216022083 1.4403320858237199 14.019292444562646 -0.26458374168749915 0.49934602913819165 -1.303304276640678
Ni 1.329326580976865 2.4736628801550777 6.8864854682334045 -0.8270822351144596 -0.8731240078648705 1.4248544641420493
Ni 1.853398013016166 4.8925362166022355 8.977371592393464 -0.5802558174103813 -1.3079062941890636 -2.5998280400244127
Ni 1.281961965088674 5.073729016233546 13.055960960201986 -0.5680965563400281 0.5164384658441042 3.0925041133415965
Ni 7.0158955365295945 3.404499441860414 6.226977118090043 -0.26986350202919973 -0.11917474529065927 -0.10894689691506398
Ni 2.9285483435535506 2.8330822868790277 2.0632891977827623 -0.3360652946672535 -0.4910675911794833 0.40255273686652604
Ni 6.584068913853713 6.319851062558798 9.299099571635585 -0.1077860438377434 2.2584084230237815 -2.135364424585703
Ni 7.754401906874027 1.3571653370643197 2.0534459728614425 -1.7711113546303239 -0.9173878627792522 -0.978646709589734
Ni 3.2075688181226565 8.608627572118808 0.3634587186014515 0.10022031567534354 -0.8995696036509089 0.7859003615595109
Ni 1.4592061389837927 0.4195112557565689 12.77944380099195 0.8111097709456031 0.7557356650506727 0.35613429750298664
Ni 2.649688459026348 8.267628787848382 5.162648667082277 -0.9813273417456907 -0.341686754619089 0.7935655914142526
Ni 7.082304242092814 4.570241448976927 10.342261310473294 1.613343579557815 -3.5446937965089598 -0.5936551215354228
Ni 0.18737173765533616 8.6186975123934 5.736725948875414 -0.46079850788229676 1.4789939262989302 -1.349225978873457
Ni 2.987768283123369 0.6332131477527815 3.5730471926628584 -1.2189934331067394 2.202825800662471 -1.959355701025135
Ni 0.1474830605413603 8.159740619109046 1.7491939687675353 2.2317831071267697 2.1670321880026293 -1.1766388793999283
Ni 3.397499605328074 4.71606665349747 3.520591872446357 0.16806041524776863 0.5405482144081142 0.9125521319535057
Ni 2.4387865016430705 6.940711057500054 12.56880634485416 0.13899203712690256 0.7576261972051661 -1.0582020407165582
Ni 5.0928770171121585 7.493131355171678 2.8769970508082303 -3.251392118061478 1.414674181174938 -0.17961263886174228
Ni 2.422869194548615 8.103855284526968 2.700371620898089 -0.06505173819401056 -1.1703764434299846 -0.8035880086472612
P 2.221224780757366 6.123213279485687 5.563736466443406 1.5975544350443585 0.3787834023610702 0.9978258536213461
P 1.4469540634339357 3.8193413059868404 3.4215569382523774 -0.582552583864358 0.6618762585963505 0.6336861693153796
P 7.148042248069263 4.133436535002067 2.1411158553252507 1.1677325780492338 -0.8917429085176384 -0.29070743535774446
P 6.863420014979676 0.8484349772632362 7.809846091164525 -0.16773002849154336 -0.4507501225073592 -0.7881819585048361
P 4.424624066863552 8.952838157227283 4.250376314220873 3.041708113735652 -0.2605036580808546 1.5629368449704888
P 5.451521813045756 8.195542751980256 0.2877896355042885 0.32465011085177636 -0.8514974307340303 1.2228326043471713
P 2.922785994991166 6.000191860915302 10.30014704430801 1.9302590407694953 -0.24764582828157997 1.6550653847766337
P 5.492406148419527 7.8912813014132945 10.297548319571105 -0.3113217691739864 0.23325844921165637 -0.1334258558930347
Ni 8.594949079137933 0.3878277851365066 13.894720859764247 0.21667714781420747 0.32618145989463826 -0.8882109841049799
Ni 2.699924802722678 3.525338725155535 12.160597794105612 1.5107154257719273 -0.8765258344575678 1.8085445597761176
Ni 8.596838373748552 6.322524414432823 2.2986754686723416 -1.7143617085441054 -1.5254547888646308 1.0562438885489227
Ni 0.7682202513329265 4.860805513616908 1.5016689800047356 0.6760664340538034 0.10452408525701998 0.3121841171742817
Ni 7.296767519817106 9.582785659245612 5.760921200306292 2.435981662857992 -0.5720709676067438 0.9480441542125285
Ni 4.290625846605477 5.242849223303008 8.538828527376834 0.49312498792914433 -0.26360955069968794 0.9455018474066491
Ni 3.123051223716664 5.97337332391758 1.4539009997171777 -0.630641726062101 0.25118366623150934 0.3504166782929191
Ni 6.950459817690843 1.835770894299101 4.0566754396199665 1.720552924956482 0.4570269566550064 1.0097328894715771
Ni 3.336258120524895 3.1289741623209517 7.5833914605466415 0.9705140531802706 3.633323579133226 0.2457128729249252
Ni 7.191099272245245 9.137885117864254 11.898169104806954 -0.39418456740748886 0.038152085589689126 -0.31230418769191376
Ni 1.9702508846828835 0.4985574529702114 9.960929864855398 0.2456082290262609 2.1774261296424435 -0.7804869038534235
Ni 6.638480598639508 6.652924255937682 11.847026844344832 0.2929702632499922 0.15863706505133968 -0.20581038030303264
Ni 7.632391260920323 2.0846571198288504 9.359449309382555 -1.543724533708096 -0.447564525690526 0.32021547211919044
Ni 8.99820012082822 5.766722279408194 8.691438188844106 -0.10617061972150747 0.6259034400461673 0.8436491383342051
Ni 3.140574431230145 8.17274841250315 10.276974845908782 1.7496670687136189 -1.3926110307273112 -0.2610533599367375
Ni 4.623188930439493 8.457238394969995 12.179718400212371 0.051890775332020314 -0.1554797503692806 -0.00905002601741022
Ni 0.9287205517414441 4.580443639874264 11.0812258347608 -1.7771637314719908 -0.6807751523833824 -2.617413871426976
Ni 0.9229940997766611 7.435111117679602 7.420412405608994 -0.5537500578103689 -3.015465635099355 -0.1363682263508103
Ni 4.981644796912029 0.3628002994296512 2.0389701975548884 0.25387638257232403 -0.029715267676245598 -0.53776448101539
Ni 9.38696971932812 0.45797918332336 10.858684877928813 -2.076981613771436 1.3440830012199367 -0.7505122118682043
Ni 5.061760334875281 2.806329875192678 11.28830952773602 -0.5193070456411508 -2.1565886240718024 -0.9024800924294845
Ni 7.252236845844841 6.1160717458575515 0.3241821729413159 -0.04537817102448314 -0.4505269507529596 -0.48266933981345905
Ni 5.680778267571186 5.691528353905602 2.298896516141784 0.7254215874481635 -3.845904702501189 -2.244779005165805
Ni 5.014291807783507 5.121717099343241 10.90967505017478 -2.6395235588418218 0.6484841535601606 0.007849577951405836
P 8.315616870958076 7.640335744757972 10.256264398387188 -0.22267990236486165 0.15811667377149544 -0.6136757876317238
P 9.291815396264347 1.4634853912768424 5.810403715452985 -0.8629105576669786 -3.087512573664276 0.6600638879779601
P 0.05154656950879364 2.874429499432401 9.848054902991334 2.3021287467298674 -0.5523971433269003 1.9362000888442785
P 4.580991535311343 3.2943063336961242 5.809311703168048 -0.12746269633106436 -3.2025187893995426 -0.8165219431001098
P 5.514813182501455 3.3374200367104248 9.189404292601195 -0.7873946867168504 0.20087540489526048 0.4290016750866741
P 3.726019598695369 0.9286355334839663 11.575735474027764 -1.2466685304245047 1.1243087025376444 -0.1996183925597078
P 2.254665295365303 8.697613348278912 8.089114063327623 1.9103291346147873 2.8528459312511836 1.5753488454815965
P 3.6794390400705845 4.049816355536119 0.35306381965383177 -0.37916546829083736 0.5165297400063298 -0.910302930908013
