# total energy = -381167.53268404875 ev
CRYSTAL
PRIMVEC
9.22645437116361 0.00000000000000 0.00000000000000

0.00000000000000 9.22645437116361 0.00000000000000

0.00000000000000 0.00000000000000 13.50384859649390

PRIMCOORD
 96 1
Ni 5.558403641214859 1.135296760923385 8.439743234667828 0.21858696324241061 0.7492832245571095 1.8660279987045671
Ni 7.779949331475023 2.0081193470958727 8.287055563459479 -0.1347610297646905 -0.392697184228685 0.1004720266748334
Ni 1.2848852660990144 6.210658608518006 13.122284172985635 -1.08998498955511 -0.3929005584887427 -0.7922075347244615
Ni 9.085917045876407 1.714847267560157 5.347956520176097 -0.30131709255279077 -1.0317142788386746 -0.06611283246867324
Ni 1.416177712200859 6.651249485447128 2.205380942152614 -0.920562403852492 2.89696271906474 -1.253053608015242
Ni 2.727838148966602 4.300801000774534 4.147477626858073 2.209752609689291 -0.5088673383650656 1.4578352899434441
Ni 6.04837450208896 1.5528768605806855 4.059108491912589 -2.029796471445201 2.318347779691891 -0.12492527462119131
Ni 7.7341399853825665 7.646359498227756 6.698178923103658 -0.6356229813267762 -0.19460525561583258 -1.0518498732462853
Ni 7.733171207670641 4.359591968206787 10.681976480982073 1.7777967370702996 -0.4897123627031695 -1.094482106094515
Ni 9.032947971170103 3.9714996168096057 13.270393677521058 0.7784235935664917 -0.21657173258459475 -1.0249309373682542
Ni 5.9543015730338364 5.084772831081894 11.786834246196772 -2.644188054197027 0.2231334449625125 1.2078865245603003
Ni 0.4341148285862613 8.2495389545811 0.39635371866630215 2.237545206421527 -2.067762409166013 0.31110939605286425
Ni 1.2239260818829296 0.9615164923128269 12.477204619268813 0.8340260134221442 0.3511939227785758 -0.22540347194361182
Ni 6.891635528366134 1.5866180043188756 1.0270436941019985 0.12533305158257124 -1.536979758785095 1.7348536578498703
Ni 0.5121484893136654 9.15658246012054 9.09270863895972 0.33263827126357554 0.2930322268361792 -1.489130243401984
Ni 4.930561872252222 4.296575284659661 9.84438695622414 0.14947288205356837 0.7325759391047577 -0.14084091741018326
Ni 3.2176152542983183 8.093473478417172 8.189800430282041 2.07846102653044 -1.3723453384997397 0.6698934724738721
Ni 0.7119934916022075 2.729618854665665 7.258723856323339 -1.6923055000750147 1.3381319258428246 1.1407863884776932
Ni 4.35334565857847 6.759512701368354 10.384784080972098 -0.6565926415999079 -0.7017023894543528 1.1326035955565847
Ni 2.995654440814687 0.949402157686564 8.365661264359638 -0.7147296549519562 1.94591680191141 0.8102469087246755
Ni 4.040107531722699 3.0290634321945027 2.414974616159442 0.5469242931377871 1.1572820721398713 0.23970729016079365
Ni 2.1626532318295193 4.86322720804623 6.923058986759223 -0.6348166833753971 -0.6699829468638848 -0.7638631792538135
Ni 8.598944782682073 6.9506110248863715 8.75634071357038 0.05755440137570088 -0.09670227521975604 1.5011349811723438
Ni 4.740367741265334 6.427830892168409 3.8511359059437154 1.4823556436823115 0.48357616789844465 1.236516015371535
P 6.7341214988615175 8.5481808305772 0.5479609720644953 -0.6246963071119435 0.5755406713228991 0.49615374745313906
Ni 0.7575666404620425 0.7417146691586286 1.4551207309293668 -0.3207502615767379 2.488114893218121 1.9912096123109386
P 1.0407901885114952 0.45354943213291804 3.6291455678060065 -0.13266712335013928 -1.5453129612411385 0.5688635164130397
Ni 2.768489907049858 8.070508833417348 3.4498552606281945 0.47209696361425146 1.6513969347861108 0.0914831929126618
P 8.836332227921313 5.954421516941028 1.4129207737979108 -1.4511560781510557 -0.8618978001317479 -1.4620303018613983
P 4.276480066978015 3.6001809595103267 12.210584998556314 -0.3540830714009128 1.2403361604485734 1.2296077182874758
P 7.3393953603635 8.942058168882735 8.334575494197562 0.15880110143302975 0.29368271593598455 -0.1649151847505676
Ni 4.925884059871784 4.7667184950296955 0.9810950285481125 0.09215913593376387 -1.491632183888231 0.3491506670963019
Ni 3.737968829509269 6.325527965789123 13.311810308674014 0.06624370161958269 -0.2556064778895534 -1.2023195719954842
Ni 3.15644386163105 1.0210548025514217 2.261273880258051 -1.398976567934023 -1.105113360556116 -0.39162529132074486
Ni 4.188478144917622 5.38502011014347 6.0764487575351085 0.3999294403110661 0.9116411901034622 0.278619650955275
Ni 3.33576000288118 1.8006994257455164 13.270299567686186 0.23773628247735187 0.9559549244191731 0.0707287339741298
Ni 6.5169861210287126 5.149957731412853 7.978614270245896 1.2316717999053561 1.0135394077018611 0.667703921021721
Ni 5.048798885379076 3.593657856250031 7.534553323817205 -0.9664918193947548 -1.5035657021010234 -0.8927492382949656
Ni 8.809095734534619 6.044933034598026 4.4153529680143135 0.38970442014894824 0.3007871881912497 0.6091473036337509
Ni 2.4806522091553225 4.366161203739078 0.5581617400483463 0.36534476035766117 -0.5541174684521167 -0.7558565068992531
Ni 4.836285961200314 0.20966287241482262 6.6523068371212855 -1.5992763028314716 -1.0664547676436538 -1.4702951129733517
Ni 7.812933905952471 0.5343584103436275 3.3768260287669634 1.9934066199622573 0.46692673226722164 -0.7873509779631085
Ni 0.7696293069436694 2.302563186340297 9.518956992525151 -0.31394532283976256 -0.06787223836194117 0.8534458127096528
Ni 2.7716269015456154 5.098225001596053 11.404513042026345 0.4779850469639122 0.32436677528340263 -0.2709775610289849
Ni 2.007205928110343 6.417801736236384 4.673263738419324 -0.0462168648756946 -0.7674866349390137 1.3918196451742675
Ni 7.187435656407254 7.775216160368189 4.328348425674483 -1.7345147864532129 0.30371104670626403 1.8094156495271612
Ni 8.72349269061804 7.725365627248845 2.7142734157087713 0.34507572569597994 1.3741908763489108 -0.6899295651891407
Ni 3.568543447375174 5.632279861589945 8.56639569685227 -0.11946090907251038 0.3657119138890927 -0.7538577313016694
Ni 8.37391155988348 0.22118948189585103 12.5432521930861 -2.506899630024792 3.109784240578283 1.2011281227905444
Ni 5.931272342853217 8.097422400900067 9.746794134815687 -0.2574268189277437 1.410107644850178 -1.0580282341428553
Ni 0.23579126862816158 8.195001382626918 11.096071748812761 0.5804057127246843 -1.6935630266311996 0.31180642211988885
Ni 7.076441409983839 2.9802370355134795 6.131962488364735 -0.6239118635374352 0.5578386260574457 0.20916052772218816
Ni 6.236492680836008 2.4505462884504507 10.451276369891435 0.3189790286089281 -0.024314408375648446 0.46152870118010186
Ni 8.632298415335493 2.9980348660497027 1.8592099089640306 0.3151848516738185 -0.6159743538579134 0.03605200852755081
Ni 2.6061412154400156 2.242452835928947 6.353318046439773 0.8882742332427477 0.2199517048004212 -0.6495123377143589
Ni 5.314290110718542 7.246521870380283 7.553823696475554 0.9746239615835859 -0.6910582794769453 0.5491148730312028
P 1.1251015288121737 0.47433571124907026 7.017490824890478 0.46567589057925607 0.5899046533540551 0.15878567481406203
Ni 5.117941934647328 8.82705964125003 3.1377270762366574 0.17599818203760656 -0.2374110379274492 0.0016969280864486905
P 1.7384854437311286 2.663603573438771 1.5112969211848617 0.17121618726793095 0.25217148406607537 0.035122811845062094
Ni 8.188459826457825 3.775354422735177 4.056920899574519 -0.3954392657501964 -0.36193650600706057 0.9956013351662013
P 0.19318257956681736 5.936863574219185 10.874109090038251 0.2542039411150719 0.5683629226275372 0.4927591199492933
P 4.641063412565815 2.160392750501694 5.770626854725483 2.1768478885414706 1.6300770902624122 0.3742436055091877
P 2.2145704907343036 0.5719036212306433 10.52352227577417 -0.2822801305259977 0.03661559434050469 0.028825923092756806
Ni 1.65507829596158 3.095355507053375 11.4940299478991 -0.3987433904227649 -0.18622834440604702 0.7601425358691166
Ni 2.9523639167732356 3.3319494772142746 8.667985418306493 -0.36964107374016986 0.1735342938781463 -0.05836558442308658
Ni 2.7498616956176987 8.013673874317744 1.0249216095901625 -0.20348173216985602 0.6148816350143669 -0.03371436153330968
Ni 8.067888520367951 7.282099078543932 12.927018260015458 -1.783582490514141 -3.119540034413466 0.23190527761787158
Ni 6.012400556386142 0.6590816209131801 12.413561459467974 0.6398215927891562 1.7333433918529308 0.4673702475625435
Ni 6.99406762510701 6.058763489742556 2.8073692632430105 -0.46698612475024737 -1.7150764752229433 -0.6964473117030006
Ni 2.033464417330712 6.951985766591866 9.876242212683115 -0.7255784247410021 0.5302121225894287 0.445461106194278
Ni 7.159055082675049 6.718132053387554 10.937576947205502 1.932130289650279 -0.2994885239844842 -1.5737182518567092
Ni 1.0843667326393245 4.904303383031854 9.081622131353539 -0.8049607206250717 -0.478578457573537 0.4179937540119446
Ni 5.174232532937374 3.9967893283180493 4.49814563392087 0.4613086147494959 -1.279296600872171 -0.9333765248980248
Ni 2.473852312263048 8.107940558915253 12.117516830385272 0.7746862380112465 0.2290346409382959 -0.5410104987565134
Ni 4.3812833624995084 0.2890888051110791 11.005312962177861 -0.8946917067333171 -1.874327519709198 -1.2351078221700986
Ni 6.236188207840833 2.9971214470641736 12.994415664111367 -0.19057787962399436 0.4673566207157887 -1.100042888011744
Ni 6.649136627389691 5.422276533007788 5.574847950890708 0.559070698692334 1.1380772170766464 -0.014943765794025876
Ni 3.8557537463705582 2.381633900542181 10.60143968317614 -1.092924788909724 -0.3099526567406017 -0.7227494399326392
Ni 7.0393233839355105 5.01643248334638 0.2852164621996986 1.5198281867064727 1.60601130756246 1.4646055187877423
Ni 5.542441875104093 7.7078169109814025 12.247234320721159 -0.6124761108966678 -1.01686075876561 0.8734605652686829
Ni 9.1299549127242 5.769938561227296 6.712047206711225 -0.9529199942475912 -2.153289641605556 0.041919780162237484
Ni 1.3343667410423872 2.5679898264989665 3.7770936093894423 0.43109275328774793 -0.8608459618284657 -1.3117038135582828
Ni 7.003266400143099 0.6167072837935779 5.896550427012383 0.9546354342768011 -0.8850071324557017 0.9323758515476523
Ni 1.4632787619092156 7.195721012457812 7.414288336013387 -0.606828168582271 0.052429935664941966 -0.0953169648364552
Ni 4.570684018408059 0.014681134240144418 0.7525981947680268 1.5194476634386027 0.5334146886871265 -0.42879521550282285
Ni 5.204919720269401 7.069401625277183 1.4351759044544294 0.8958031946299412 0.44547627570292964 0.21231038620507953
Ni 0.8698978001279136 4.749861762842199 2.857441231267938 -0.8656855493089544 -2.501512654681266 -0.44916812273221995
Ni 3.477201548822239 0.9148075669164398 4.582369322904755 -0.4337870122904593 -0.7714368778360132 -0.7986221800015536
P 8.543908982190331 2.3980293100097128 11.666420712477125 0.21454390352128858 -0.28855285090858696 -0.0743853568901106
Ni 3.2638951495651387 5.760306142834442 2.429032042082195 1.533988537367255 -1.263664550761869 -1.2958784164902521
P 4.457161723479239 7.516303397015416 5.666835701251592 -0.47829306512263436 0.37089680052414187 -1.0853750015869243
Ni 0.7072584752044937 8.318156095948593 5.449046167801878 -0.7512737726245771 0.33015098606534754 -1.2408128429746759
P 0.8673577572317901 4.102524495733871 5.339975637120714 -0.8263034479669059 0.04333825777631891 -0.1710567788719312
P 6.523915188282577 3.356676375004362 2.6572059499583056 -0.9768906461305757 -0.3078662065252181 -0.868486251982543
P 8.385721421514566 4.110440793608459 8.321381664406582 -0.009968681176937671 -0.0353657810938036 -0.2836690404537243
Ni 7.449762207887763 0.4590936085814492 10.491626422915836 1.2116745308478227 0.4644425323927872 -0.9307987368685197
