# total energy = -340894.7193972579 ev
CRYSTAL
PRIMVEC
9.03403858293650 0.00000000000000 0.00000000000000

0.00000000000000 9.03403858293650 0.00000000000000

0.00000000000000 0.00000000000000 13.22222864074689

PRIMCOORD
 96 1
Ni 6.410436409810207 1.8828201389176866 11.642648073635366 0.4826258881700333 0.6204097639214476 -0.7602685199240197
Ni 4.528944274579513 0.5334102972560641 5.943894260107768 0.24103732182612686 -0.9320066411336918 -0.041543627769741354
Ni 2.4945600686096037 1.4418687106039827 4.829102016763666 0.13673306588939677 0.4095073138074883 0.10887284914401893
Ni 3.4976545542234554 4.349022360088718 4.995979682794266 0.90543043330706 0.027143650294327446 -0.8903151749321764
Ni 4.993763633104338 4.573400778958365 2.615898952426646 -0.7707527072847952 0.603009309056813 0.3408961403969935
Ni 7.208268502416158 5.937658063202114 2.515291380588589 0.5937253126517258 0.7470774751550424 0.08134970402308571
Ni 5.080896936240697 4.359655423623346 11.463434427777633 0.4665863182086674 0.753894755187192 0.12401458988146384
Ni 5.896977786994438 8.103740485151478 12.345845900783122 -1.0178861147063307 -1.2851445750125157 -0.9262075179534113
Ni 2.086239588033435 6.447792159781057 0.2569623896060097 -0.9939967096832428 0.3656234679403445 0.2952238351708593
Ni 2.6849524339386615 1.4977623079606082 0.3062231957586211 0.07930362012733438 -0.29863003263893084 0.6395323436835115
Ni 0.42123373547540255 8.87806600909379 4.5554673087607505 0.7071562134800725 0.6151541719494632 -0.1393980143160696
Ni 8.39697634689363 2.431909010315083 1.4124773691396149 0.8637070854263448 0.2542653904806266 -0.2757826957271121
Ni 7.006276431412959 0.6624624433040889 4.869217665553402 -1.1467132954850896 -0.3374524048227672 -0.09337115396399402
Ni 0.73275810513557 7.203101032287179 2.2487574269936763 0.015707640543243914 0.0709562766039036 0.4164642047412957
Ni 7.6998015133385165 3.8128702320911416 3.5092849756291318 0.7578162017287853 -0.18124657492073945 1.2390629501631047
Ni 7.556801714961593 3.9890610886041955 12.734936526610086 0.05434823573357736 -0.6500237301331386 -0.6746991213926316
Ni 7.850688027489213 8.819778391485102 7.066712343421422 0.12084184858043706 -0.014948136669400064 -0.0940614951627993
Ni 6.703925224635598 0.6633035123058509 0.5903870758512639 1.029811405389007 0.773783523691319 -0.9599391058779015
Ni 2.122312504510727 6.5286558400686205 9.237339790234229 -0.24211847070544754 -0.5092977410342648 0.02549223073383352
Ni 0.20392625868609035 4.7786993081210145 1.1519682159450788 -0.15525503595298423 0.6992050769537959 1.2969544231632504
Ni 6.342021634833365 1.9541890445451864 7.144658029213075 0.5899110811119583 0.4411984742631821 -0.9034987635019859
Ni 3.393338509504374 4.40516891052858 0.5241097544277716 1.389871520308961 0.3994046781558476 -0.7595581241205563
Ni 5.8976101697025305 5.3273997158548685 4.807932553908359 -0.056524931669922014 0.8290658412033916 0.3030644142612006
Ni 5.388930553352198 2.8130008982885575 9.289025332370437 0.08650322319956714 -0.3677528555785215 0.4381182926759616
P 0.32919946635133246 5.492740691904806 12.321794579586653 -0.3404909345387749 1.2129675386276335 1.3166776126237905
P 4.109611300843861 6.108392360348204 12.458393761553818 -0.7682613083215091 0.7826826259531618 -0.0622050127738348
P 2.4604836746821444 8.490252796337167 1.2801088274895829 -0.6646196256694424 0.4875642060119152 0.4386901060190316
P 6.2298640445339455 7.762308027014044 5.962114109331759 -0.8053186181851227 0.44387576398502915 -0.8618911152635286
P 4.6709412946621764 0.8869998612546275 12.50566346557981 -0.14683930108546323 1.0120795353268826 1.073563610774293
P 4.201839801799702 6.024574549409984 8.342473088090939 -0.6277677469484155 -0.3942082215565727 -0.45221925085371795
P 4.709941239674065 1.0025163071378824 3.7861981362715684 -0.08477467054423465 0.09912965371432604 -0.176414957860051
P 0.16067218485648202 5.620039331043678 3.684731427354375 -0.08947259024053622 -0.40353464116382115 -0.4126965101687473
Ni 1.4013781492087356 1.17350355736721 2.620949883456562 0.07096810367844551 0.23742517899483628 -0.9278522526456859
Ni 1.9220911050901857 6.309191938244715 4.89629719651776 0.2259153785830238 0.34177597189878556 -1.2253422581429025
Ni 6.250877218519967 5.781775725657492 9.335567796282122 -1.4515458573903066 -0.08088896233658327 -1.4503243262783796
Ni 8.496432078799092 2.2755026985266147 10.258307217986491 0.5738473427808762 0.3728603520084159 0.15601942492283455
Ni 2.3597812454378735 5.211899531241251 7.0376236422530685 0.7833842800058767 0.21273744644016912 1.2535140925914283
Ni 0.5758585348347899 8.904978410342437 9.148724904753198 0.32781899549806126 1.0603234579349352 -0.23351118865241077
Ni 1.5189200265656215 1.0661701437266624 11.34873194878008 -0.9800021951763639 0.05134518724119544 0.6327677712661682
Ni 4.020942211130707 6.981234076172525 1.5592317139948657 1.243134292019001 -0.3327254316607431 0.6167425994825055
Ni 5.264224683316501 7.973478681323261 7.906509352536342 1.1947546151640327 0.24714034940007115 1.4006598691737167
Ni 5.462097232678415 2.800100291043486 4.877812649960237 -0.30747128507964466 0.13093831358449062 0.13061846835122665
Ni 0.6171260235571213 7.440705283794631 6.51028150878308 -0.0010981181601852055 -0.5895966351953329 1.7647501882989864
Ni 5.029339677453844 4.340864623154334 7.1453193208449655 1.3503878603920423 1.0526723691475806 -0.15502440799941689
Ni 8.389179971506728 7.056198529197461 9.328123748404014 0.4693158013246885 -0.8970023571443649 -0.5990356691210458
Ni 4.632212370810899 0.4759203852634414 10.37819342838266 0.3439536962763947 -0.3149981895843091 -0.8609598616985108
Ni 7.917214688380467 7.158156689819228 4.820401334104191 0.4356921997329722 -0.6773381016773754 -1.0452573076304321
Ni 7.276186405265214 6.17858684094639 6.956532304190592 0.20460916090607986 -0.651250403451388 0.7909875462744312
Ni 2.303499184417706 5.295157231780876 2.583914841859102 0.5528509430348673 0.489415657398357 -0.005611175539190337
Ni 2.304682643485706 5.205286614922348 11.407015049369424 0.9851960806724774 -0.29260696637330247 -0.5544365423544323
Ni 1.257592389466041 3.5144217300265743 3.69407894718384 -1.0041080870856318 -0.4233110524598 0.7221447164691047
Ni 3.5402139104780312 2.7328960772507043 2.905121894184023 0.23663662165526989 -0.40486595838073497 -0.3728909481360352
Ni 1.0047477146935775 3.3828861267434864 8.18227248005392 -0.33203380491035717 0.3505748011373382 0.563699455713597
Ni 3.4566671207004216 2.728442296178001 7.337199592345776 -0.222748550819268 -0.27900300243662274 -0.6701544394447425
Ni 4.003172257033329 6.7692774604975385 6.224853766678122 0.8317616428679998 0.28253132730485536 -1.027891819768791
Ni 1.034569076399448 7.47292969979125 11.442728411106971 -0.968153523367894 -0.36504265573621003 -0.6859636385628574
P 0.48002364563508826 5.604573056811492 8.072514330429776 -1.1941254662204661 0.42554636954822195 0.11490774248418921
P 8.516496678722977 1.6951379851947366 8.043094983445478 0.01985817237650774 0.06444804317174063 -0.1793393305956976
P 1.7177411499896738 3.2214026852129094 10.46772075177108 -0.013890641939163173 -0.5511553004999991 -1.0942165111379543
P 3.9090466079532127 6.316635986122824 3.861803102639414 0.4605509106478649 -1.086933861433612 -0.4658823501631073
P 6.976689954712953 4.008204216582002 10.454882479392948 -0.394076838185031 -0.6778304679327616 0.29100414066255686
P 6.543995637759189 7.884276583327573 10.029747846012489 -1.4289414897272292 -1.1474810268890496 1.0651285926330623
P 2.372600546334762 8.378673384513718 5.682279340577939 -0.3514996269444527 0.9923661160583555 0.0073438419595809
P 6.681674387349455 4.0201833518809975 1.5305387037210045 0.8144979706915456 -0.3931381284208455 -0.8735922057505406
Ni 5.009537064651884 2.719308883065419 0.47713907708232106 0.6439932076683426 0.20579983878007138 0.0875810296447782
Ni 1.4017575788335905 1.2340406506089663 7.104171081433304 -0.48070450277760435 -0.5866030997846478 -1.2172021455342714
Ni 6.9109763573035305 0.6789838932549208 9.122227165880282 -0.5251907581154375 0.4804988145247015 0.528315162677032
Ni 2.4668526719564974 1.4485448651936945 9.193574389814936 1.1633768721836997 0.8386162038959878 0.5651361881601235
Ni 6.327241947541391 2.043382108502187 2.561489647626299 -0.8425484490708587 -0.2750967254036811 0.8437977480969275
Ni 4.346330216559984 6.949371021723388 10.38107619012769 0.2853420572807731 0.07630262851748149 0.26147244975202716
Ni 8.196863355937335 7.2176548686119775 0.10200242741133372 -0.6689411358629318 -0.9487632917667401 0.7488376523792587
Ni 7.456017979369139 4.060420960193008 8.245500813420541 1.1203412332494642 -0.8657719383751735 -0.2209480072754195
Ni 3.0984403846438084 8.315868747561519 12.265838647363086 1.5045470921776862 -0.04225530912478529 0.5354517737218133
Ni 0.032753810663678856 4.803832003748319 10.35279332521022 0.4762706353759668 -0.7952396366825659 -1.5720501201256667
Ni 8.79773533708876 2.373621392706396 5.632166624577141 -0.31216534812120433 -0.03665878887361428 -0.09453740635795332
Ni 3.562564122189732 2.645193629677063 11.494321806048573 -0.06184274433840962 -0.3957269721939443 -0.13379455208636312
Ni 1.1881025638854426 3.3240383987362034 12.665374428719993 -0.8640667827586086 -0.5029463448949403 -0.6312852731833708
Ni 2.8328577153226395 8.466890772292519 7.830627041180804 0.31780146336105913 -0.3741147932408073 -0.16299302802719026
Ni 5.7394331863314045 7.663520813971423 3.646888742698295 -0.8869087203537886 0.7296816482760982 0.032552480014724584
Ni 2.917335011085013 8.372981940140892 3.4761508319367294 0.7217981317629634 -0.2623430252824385 0.10377666556803417
Ni 3.471437773953708 4.197675109964983 9.335977941638514 -0.503723589380597 0.21553326401775139 0.23475585969278923
Ni 7.32670474960306 6.128664743161889 11.374078751124266 -0.1218882875670804 0.20342311101777868 0.7010580710021346
Ni 0.5467074987994966 -0.09652779996699642 0.2799567282760951 1.4399761502748363 0.8797754517431171 -0.06698057978560723
Ni 4.629429886895295 0.4644616105928185 1.6111422036943817 -0.9775974423896131 -0.8329944868338365 0.6978637324345529
Ni 5.94110003194187 5.831029304579154 0.2725099701863802 0.36716921516090956 -0.38432952899028 0.5464049302992073
Ni 8.045145710227432 8.82746635840776 11.299518119628639 0.5171077239969869 0.5498625498305045 0.2155353209002804
Ni 0.18251649040170914 4.832235021380327 5.98451310485237 -1.114570135093642 0.024648394676299486 -0.6286146683297432
Ni 8.172471451482366 8.942406432622782 2.2656420452997263 -0.3800093043483713 -0.9561243601175018 0.7481925625960921
P 8.400201498704899 1.597407754678497 3.4908401788418324 0.7375965322478006 1.0656793229302097 0.9116591878255912
P 1.92472001034811 3.312754884416109 1.4908060981715987 -1.0448289618437618 -1.2229292778260359 1.3609044436526496
P 4.491218129022496 1.0202952952739481 8.112974176093486 0.5664837033269534 0.5674519807774937 0.8237955939433877
P 8.528638426718338 1.588066558676113 12.63774020778025 -0.4301090492182399 0.3500544098574939 -1.30099696866374
P 6.437674036451588 7.718312258608231 1.4688443501234403 -0.6587317994300977 -0.0452483303148382 -0.20138396910056286
P 1.8984941960396755 3.3851627044926165 5.969228414797792 -1.1859120771717384 -1.743804953505887 -0.4146438637031052
P 7.072712751917344 3.9182251912592303 6.0316373608555 -0.39756736783679275 0.11323755387061789 -0.3197732423754493
P 2.647316628768514 8.448623946067356 10.114753633038053 -1.4902592148001044 0.5496992847797629 0.28120360963236735
