# total energy = -340866.8553742011 ev
CRYSTAL
PRIMVEC
9.25089819019619 0.00000000000000 0.00000000000000
0.00000000000000 9.25089819019619 0.00000000000000
0.00000000000000 0.00000000000000 13.53962459647114
PRIMCOORD
 96 1
Ni 3.3773456503532198 8.922278497809327 4.988580132181764 0.865937003198128 0.1999778327816556 0.07239120927821727
Ni 4.43225331942225 2.462496579319014 8.067815589557956 -0.4816496402996931 1.4325369203879714 -0.014833979689038969
Ni 4.516251474650533 0.18146561816718051 8.372023974597372 -0.9420293154770163 -0.5205267769808648 -1.1734694805330115
Ni 4.815740051452343 2.767156408188292 10.322948661330761 -0.7233852737444251 0.24931087468882868 2.1834425110398525
Ni 5.213241894184071 7.817286466140525 6.218844126277803 -2.2034901737193473 1.1052264890952128 0.5743322528370947
Ni 0.14344627693841427 3.725928743652441 0.006036211044763727 -0.5636485478710035 -0.2787065542421264 -0.14649245926900578
Ni 2.939371128202578 3.791545364250923 12.777912234283873 0.3384263387002623 -0.0593693430972526 0.8679010689030343
Ni 0.3437615251819328 4.239242580360257 8.465014002830268 0.049681683495843475 -1.180487049501425 0.7930845380127761
Ni 1.3709461026663683 9.10359610160606 8.559371313810162 1.1196565484776138 -2.7954313978874565 -0.7259309229844143
Ni 0.7609011745126255 6.481623289029297 11.089060866772911 0.029243727356465764 1.238795812544647 -1.528452180930058
Ni 1.3853497510904251 3.542205906335955 6.106668660365618 0.206730835234773 0.19386452079506614 1.454281511153915
Ni 4.608149896901388 8.052351788205577 12.513131177172093 0.6977770862580177 -0.10074096406550394 -1.9823783871725535
Ni 4.035584057524282 7.888129844195392 2.5840783584730618 -0.035117926749055645 1.066901625373085 2.05232036357933
Ni 0.739786924568459 1.4395507633682347 5.802920970054216 1.0688896023373915 -2.500329690116758 -1.1923627178930885
Ni 7.559824719647315 5.023774249114637 7.040334058242812 -0.2938331254709198 0.3044661797047337 0.9813126864576712
Ni 2.6736298278625275 1.7992349344509297 9.741096770387779 -1.1299299053791638 -0.04980098268252713 -0.4705712709983444
Ni 2.1691783515851846 8.216083434613658 12.466663915750104 0.46224989561684265 -0.33461982046997857 0.8361014078939343
Ni 8.55297339264762 7.355028336338535 8.043051860292472 -0.08375034304477834 -1.6499391192936614 -0.3121995437932494
Ni 9.266347152809935 7.915207223088914 0.1359484239854932 -0.6736863638574011 1.0174590544712414 -1.546203077155576
Ni 1.6510818005323227 7.851838570741586 6.281506010006249 -1.1142549178460681 0.5407119936794882 0.2025327379930254
Ni -0.3401481243634122 6.3033029762341 3.6826696937098755 2.263572483723224 -2.1983451391832975 2.098572195458018
Ni 6.297724684647904 3.87101983028244 5.064280231766901 -0.818417617460926 0.9826799991188431 1.6737436779124273
Ni 6.815811984802614 1.5842070577850478 9.74144830451759 0.8791190491060408 -0.425704492392641 -0.3633966354923548
Ni 5.727397562623799 1.2809718672313155 0.8783801803358647 -1.2489976927783135 -0.4064651845470548 -0.05551731634101406
P 3.9283661479322336 8.929105660646163 0.711343188017754 -0.1534866311986518 1.2388184382524665 0.5857479508732041
P 6.2912860595334905 6.281942652399066 8.5434486679094 0.3948551111119522 -0.05147862749526618 -0.01337564997595761
P 6.294107583470123 2.9245696911579464 2.25930337666013 -0.5652521449126975 -0.854018140273355 1.350593805755261
P 8.324078419650549 4.762602892462116 5.0107304827190555 0.6243129556305957 -0.24464817910583675 0.1893365510177255
P 2.6700867338699688 4.008367915158466 8.458691013942765 -1.138578325082781 -1.7923455814187519 -0.294077637381558
P 8.139800528444889 -0.08646999521473642 12.043739679804405 -0.6846418344276402 1.2557005587197858 0.614254028732697
P 5.448316467147275 9.012622769170495 4.163664592630738 0.32780176910688064 0.3545096174153701 0.2849625624541673
P 2.9011649188311233 1.311111293413446 6.511814520241083 0.0667257834623238 -0.015559030780521593 0.5349241833531174
Ni 3.7188240538710184 1.1966961850584457 2.845162756682945 -0.7941487176112323 -1.5505091607300974 -1.3232115570875662
Ni 1.3716491709259881 6.327383064126085 8.665562373707239 0.08637543937245123 0.6178677142258843 0.3630132840110071
Ni 8.460168382377782 5.704853123825196 12.93081570440399 -2.844780637744546 1.09816701114527 -1.4031530679092157
Ni 7.093107656935629 6.992291368865384 5.742953872957707 2.5265436295079646 -2.3504652290517263 1.4619693667164757
Ni 0.9593088875570173 2.913209588226192 11.331961699573466 0.47674860345364994 1.6782099412138969 -0.23447638077915747
Ni 2.971555002876498 5.820248827384403 6.356406831990976 0.6680829016276946 -0.5050780465259623 -0.6869103187468428
Ni 7.726868187594133 8.185925506635222 4.016299635234758 0.2604267820963321 2.612495865300069 0.9186919263026565
Ni 4.190703117752019 5.415485029602652 2.580760986395434 0.4780027875757252 0.38861324396729846 0.5365326654908179
Ni 8.615953507272527 8.322653781335005 10.045305155427195 -0.6303427067644435 -0.9435552652032395 0.9459872716834998
Ni 3.6735594092089046 5.745751344559143 8.772336240187949 1.4721059409298451 1.0747206071968718 1.0057906169943773
Ni 7.7893950082095476 7.218910620916843 2.047069271236422 -0.4236352685684382 0.5989618784603168 -1.7781489782033957
Ni 6.7748582586797506 8.883507983650544 7.799933631385325 0.5554305308365853 0.5284871694785221 -0.19717455900490558
Ni 0.014834740277981782 1.2111738406677257 10.105379562942279 -0.9210704538371621 1.1276966451732706 1.083426876721618
Ni 0.9126020278728677 7.4880562517771585 2.1584463846380118 3.320231862543011 0.7287028293025967 1.519169212966235
Ni 6.388179966786908 3.8604738063881405 9.062016089678245 1.5398629938701611 -0.07502993245264498 -0.3281354982972155
Ni 1.4408828927022517 5.794290807167381 13.007097685482943 2.051542347762725 -0.7754650251588 1.2781964258294567
Ni 6.9782577563674435 4.017600311515055 0.6709232387183115 1.3369852138328908 -0.08117024102242795 -0.33878757869442294
Ni 0.594941911829327 5.674639690457842 6.599591667364824 -1.0842180051643455 0.2306814325130995 -1.4906145412569942
Ni 7.0043267873623005 0.8711635546867916 2.943094614709118 -0.0600591700754256 0.15300146403211715 -0.48644526191612353
Ni 2.1476977660741636 4.868312905655243 1.7437276953539314 -1.5860626323546752 -0.5065284058192437 -0.727186135547754
Ni 5.071194353046375 2.302650310135148 3.963873870312489 1.355614398898304 0.9185458876430954 0.5914799682609748
Ni 3.7224596568451056 3.3631085180959146 5.918724638221966 0.05231886400837442 -0.44515257381492374 -0.45157133285707385
Ni 2.03736230380459 0.5158208301072501 1.4177343702542633 -1.2916425240320337 -0.2552156702090379 -1.5232127869079897
Ni 2.907918074482736 7.610029343923074 10.043788008130122 1.5612355460086662 -0.10572093377859858 0.5132176449139613
P 1.7614080119037436 2.6724179602044984 0.7205228542548713 1.706960530984028 -1.1493707877125947 -0.3253962449891815
P 5.984554029477964 6.299352842722814 1.507867721137546 -1.3946661134841272 1.038936507618727 0.08396657282064249
P 5.168726572272342 2.7431318256852246 12.96461016044633 -0.5527234163180674 1.203222800536044 -1.0006856916676443
P 2.0666136437640423 2.359367566710545 3.76549113469311 -0.010343290907537026 0.3793559870350886 1.0582192671077388
P 3.667481569122453 6.191117334333947 11.934082308369437 -0.9632095490990573 -0.5393143420010131 0.41108185738345976
P 3.488643206030695 7.622342289364577 7.5888919667335255 -1.2211727001462451 -0.04350743636433152 0.36839280315536554
P 8.301700497018698 3.4506682691130623 10.386923247507104 0.2072864506279269 -0.31604437146063635 -0.3811986966707822
P 8.69253244218219 8.361720324234678 6.254155729617217 0.5770100567795741 1.1470745354792502 -1.1497145442052585
Ni 5.47556036220755 5.5629813497524045 10.558523707884035 -0.45544572821081564 1.0784497352220006 0.5200819761339625
Ni 5.875855976181453 8.21778559987379 9.998443805743893 0.7225509507685879 -1.1535262046418648 0.31133771001358634
Ni 1.6848013242996236 4.666180781014496 4.1310209483186195 0.5915959250135489 0.7377425709073617 -0.3170195908897121
Ni 7.55782652564629 0.8291478254559749 5.6292473834012196 -0.5170742996558901 -0.40583012206621727 -0.6072896815997219
Ni 4.055843524479122 3.427198740499169 1.3917920765641012 0.5989546793714653 -1.8402953698251534 0.1665702038554873
Ni 6.944047934998039 5.061194132143095 2.8961796098165284 0.937997568609804 -1.6706750662894323 0.3671756429188128
Ni 0.5453367457538756 3.083675888489581 2.456900711026328 0.32674170327348245 0.2089854355969046 -0.5880292907082131
Ni 8.095340711922077 5.697924201108678 10.007989807547865 -0.7736151164342547 -0.092921210910769 -0.09698175413338782
Ni 5.202880888252829 1.3760155948541544 6.130552629216761 0.3094158104005252 -1.2486063708771657 -0.23222589418208392
Ni 1.5030304264933976 0.21026828956621785 3.7635142177578365 -1.2062914121590385 -0.25316418699664783 -0.734344086748774
Ni 6.730194922397574 3.9538801250379167 11.896523661868686 0.3155630609488436 -0.6529732996797658 -0.891497882386368
Ni 2.5561156686263073 4.74101129617326 10.762092497007927 -0.13880717480960608 0.1858938438847637 -1.5535592604103308
Ni 8.305761641307818 2.874920120771361 6.275467023692041 -0.10136805612654155 1.3458732603511403 0.567682351620745
Ni 6.021872152626741 0.9366719397768841 11.813254477414851 0.09358738373985818 -0.6487960283736246 1.188882986874604
Ni 7.965199076707156 2.943201000037876 3.6841045080133896 -0.00953133652920294 -0.3316417116782611 1.2055419355875236
Ni 0.6873075044369031 1.0201150411159934 12.580179836804643 1.3612703116325007 -0.48241325793859496 0.6795878169435005
Ni 3.4310378632326204 1.4896258750698532 12.05986584546453 -0.3664598477987108 -0.45902418959069335 0.8097450293875925
Ni 8.10311146637051 1.4023806545899042 0.4027480270742347 -0.24573678418432515 -0.11578757398598125 0.4409447063811632
Ni 5.181326295556584 5.203916988845953 13.483542992692215 -1.8728151968297295 0.21866743877135889 -1.5700703706914765
Ni 6.544436887487451 8.176249067167294 0.3249886775602638 0.31006732794159503 0.45111573337689403 -0.918520690832115
Ni 3.137553119332039 6.804655401630223 0.8659145950748393 -0.06039881280303147 -0.3378972056696697 -2.2251167508501872
Ni 0.5260939525060395 1.7186596115392176 8.066461258068372 -0.6749806571887923 3.09691766902826 -1.7339923382908398
Ni 5.751634915784384 6.728650022406041 3.908740367500868 -0.8846230096434055 0.6204455022553895 0.3691363661896094
Ni 5.126857007232341 4.802668532362302 7.309216963595585 0.39237142545815 0.4787604916773561 -1.5999725575675476
P 4.3072921871729495 0.3415616616011745 10.43210463408584 0.10645909749620376 0.9387383034305703 1.1696742751566374
P 8.929956743276229 0.017783001519309293 1.9497599986559389 -0.671258985362831 0.5853931386369466 0.6041722190166627
P 9.27115761984944 5.72928474584699 1.4074029671971107 0.06456065749020494 -1.7728625329934757 -0.7250274373335385
P 7.033356105766083 7.143562055461517 11.639893571119423 0.18799392094690204 -0.9082018254046101 0.018241719819007293
P 1.9446035480255155 7.203304355732911 4.162148370423479 -0.10439424454737506 -0.5876927333044007 0.08478315518466689
P 1.5713483093525242 9.116325337464444 10.665636157237142 -0.663143298234232 0.8065110958313272 0.7635407629173883
P 4.4239182601864915 5.019731606621821 4.784998391800458 0.22141080584445091 0.939549486477956 -0.5312490484943755
P 6.946869458934672 1.94148599534799 7.651946088543655 -0.7901164565233876 -0.3357930148424733 -0.7858895629262337
