# total energy = -340879.19777913456 ev
CRYSTAL
PRIMVEC
9.17405299363638 0.00000000000000 0.00000000000000

0.00000000000000 9.17405299363638 0.00000000000000

0.00000000000000 0.00000000000000 13.42715388367456

PRIMCOORD
 96 1
Ni 5.650308512467918 1.4928294516071852 1.2764896823123395 -0.09406869425165089 0.6900974582255728 0.2913666662082982
Ni 7.400387588605851 5.0092532001275885 7.170274813308795 -0.48376385842921843 -2.102132402005451 -0.12165765961351305
Ni 1.677686622688623 1.3708328927465918 2.709653844412708 -0.7400622201794739 0.5858927039811845 -1.2582696049985427
Ni 0.2960687130525354 4.069628327844561 3.2873705763627963 -0.23161500007096242 -0.25974004044195265 -0.6246572263438919
Ni 2.991089942682371 5.005803756141156 12.487455107597597 0.6757936400083909 1.2390074143348209 1.7383668132094514
Ni 7.523943736502864 4.944759606445082 2.1777771038642397 -0.9555846855639478 -1.3691851956042032 -0.5467569143219875
Ni 2.9725950515210715 4.6088057798941025 8.62686583754681 0.30396044371290876 0.46766283910229783 0.3754610228560566
Ni 0.13874746251704986 7.191017347493168 10.634897270687196 -1.0946204314445922 -0.802985856286888 1.441459419688582
Ni 4.640832399459626 2.935421788135365 13.127970068207071 -0.4044885204366582 0.40032821841138155 -0.5337967546168936
Ni 4.8469641998084505 8.187796570934378 9.364271643151794 1.6286105330192144 -0.0829872396265087 -0.5136619315402314
Ni 9.131191979064278 3.329016190661763 11.612648590478777 1.2560376303442304 -1.0229475883896382 0.2459113620889765
Ni 7.963270794008963 2.266825968222507 2.880138026415571 -0.8122451701016269 0.1924894948244104 0.25640429120050034
Ni 0.48325517623013076 2.1925528338763374 5.058599514645205 -1.141617369019421 0.26886745666451756 -1.695041925169571
Ni 2.8362410994722675 8.441927017392288 10.806952050590265 -0.40420852730239415 0.5577566078666008 0.28456944078080665
Ni 6.940152863958582 3.935017445895284 4.534242745468221 -0.29221538736183866 -0.061025647753752965 0.845756157374879
Ni 6.912749967183384 3.7322616971076488 13.280851994420658 1.2903911681234357 -1.0183810520648784 1.2201049210033632
Ni 6.463248884727939 1.025971060581712 9.282433584573676 -1.0471601810801 -0.3842709078382027 0.6337982694132116
Ni 1.5622128156215231 0.5417388476905306 13.167043278001263 -0.3018472540246479 -1.2825490463711975 0.7545588711337521
Ni 6.956739552063557 2.8092051648232848 10.852094813952073 -0.4514474056846999 -0.3166457524900611 0.36527225524851287
Ni 9.032745214653612 7.647839324366626 13.220282143272719 -0.919930426695448 1.3936371579989804 0.040653768965620306
Ni 2.5806244564031804 1.4101253624111971 5.151905139667579 2.2312429183525833 -1.9083321587894166 -0.027783083650539248
Ni 1.9963106628290401 4.855037366585208 1.8570558751724964 0.4897329315284598 0.9382364240934873 -0.9425545918528669
Ni 8.716882564512971 2.0137872340900893 8.829132609301261 0.5337571596282098 -0.176062973837271 0.4596841917721955
Ni 4.8405148404402 5.066462595604703 1.1497712382926586 -0.2153327179711711 0.34279130053717743 -0.7653749879126496
P 0.5884402826834421 8.864548124102392 1.756218352509532 -0.1269477043678588 -1.1318844580023733 0.08944919320176853
P 4.672437012580001 6.971106119304923 12.987414399813092 0.6760589778546356 -0.5316012896274716 -0.126292330172047
P 3.320181577473107 1.352191216734806 0.9575656506337403 0.18298746887124612 -0.9097264895792526 -1.2665724684372832
P 4.638061835406693 8.865318744567446 4.734454529315863 -0.860100599022009 -1.8083944073514986 0.14354880325964955
P 3.5159650458626337 3.754004203085962 10.834317333747526 0.5219213433355463 0.3882828572110732 -0.7936213843528526
P 4.409756348581252 6.3140879544741875 8.360176112319147 -0.4660273603814038 0.738333153303509 -1.0844242076378807
P 6.1729084504656395 5.853385353115992 5.556411161017018 -0.19652484123604866 -0.033705105561929044 -0.33315094923393596
P 7.575804658990377 8.282390233019772 9.452179255297526 0.290796395527125 -0.283694237264705 0.38838904377163436
Ni 4.783663233036147 7.91159335258456 2.157274012467222 0.5618608598429614 0.38821523719793144 -0.3270103835538368
Ni 6.542347571033853 7.098019970656814 7.542757884713971 -1.9690431035162286 0.6194553704279784 0.26584229668494863
Ni 0.3461517040385297 5.345766643921049 13.09661774154847 0.35977832201347715 -0.8163764186611812 0.281370988448167
Ni 2.934137420693608 1.8905430040003606 11.847449306938246 0.4510005479552684 -0.5421847215702728 -2.001817983954404
Ni 1.6920807120894552 6.050921065658201 6.4935728000278194 0.3739846954208462 0.9367999487572769 1.2460252404135508
Ni 4.12423229222554 6.278777023879028 10.487037221170882 -0.5025151708947926 -0.7164934317205983 1.2755186218869774
Ni 0.6948638863127333 9.105192712421855 9.306414559521906 -0.8380274212720534 -0.43072457131505176 -0.20571524948606507
Ni 6.5977588520925075 8.512961710974599 0.4372005119846754 0.06044303577740559 2.0908095207934636 0.15801820052041818
Ni 1.1153905566874576 1.0855106655602993 6.951116774884608 -0.292721894684612 -0.31428985066337484 1.7170472257960687
Ni 7.669370827122365 0.041577726305617055 7.430586736782819 2.172336888044994 0.4628278796074996 0.773359805890339
Ni 6.769992526032105 8.416083709653508 5.492941391666655 -1.138840320494916 -0.22522580871516693 -0.8149759387692287
Ni 5.539137336330703 2.9760536695606596 6.956527631435667 0.41711160851730744 1.0187464058240971 -0.5631330416871657
Ni 1.980118459009748 6.796211969950257 9.203898185131504 0.7637418231846008 0.6614692529659189 -1.4245359044603658
Ni 6.815229782141414 6.301161713578219 0.07561805053875226 0.2265085320823325 -1.9567205773951335 -1.8551920844313277
Ni 1.1620681391421652 8.262693540895114 5.343349280914599 1.266527988352593 0.8043760517661953 0.29140651830729813
Ni 6.920437823727614 6.224255625976449 9.952851371443197 -0.22329208202756384 0.6402028873879748 0.40293634545818985
Ni 8.516080889047437 8.2943165021218 3.9274295865304474 0.5335599560157391 -0.2546739387729549 -1.15979455414908
Ni 8.820797064604259 6.612694210629508 8.19755959830236 1.480175091091225 0.6259517767855994 2.1170360585901604
Ni 2.1139495464408156 3.6334846667833887 6.529088312008344 0.503561866991752 -1.8278753988942456 -0.4358523794599203
Ni 6.228136250461185 7.871979791059514 11.57350841009655 -0.41594869855745786 -0.20513135195813706 -0.6285815010989626
Ni 2.095280348269564 4.954374014151949 4.482104766575416 2.1244259232963283 1.2924737616840773 -0.34781857854843967
Ni 5.334170640732615 5.742168306713001 3.409154297190184 0.7166381848285787 0.027154448927604845 0.7430490707219396
Ni 4.160102840063178 5.043692595672984 6.475862290411308 0.8185785685188225 1.722914740320439 0.9068987903224703
Ni 8.570189454558024 6.8744941655253395 6.066724289623704 -2.1693770340857217 0.9097295749030462 -0.9421118478884936
P 0.917708059294762 4.5418351918596365 8.005712716121819 -1.0028914410697116 0.4275536297862378 0.8947107328967107
P 1.6531001602321338 8.137164971569689 7.400684827928087 -0.38740071171643603 0.1133033741115468 1.041524322950561
P 0.833731528926119 1.1858472849209782 11.127297143102636 0.7057683319936103 0.5568389811483377 -0.04664521066236483
P 3.2986500747173686 6.457937107950959 2.6860086398099643 -0.7576999878658951 -1.0280779676376681 -0.3446784902575612
P 7.795220488308229 5.043554984875653 11.752627210929283 -0.35492253658307266 0.7520314767262081 -1.042148072577489
P 6.538485294655426 1.4442436660961533 12.694622658547667 -0.182349321066615 0.13114708716118703 -0.020171332741552358
P 0.5151744593737361 6.334536918957588 4.451879931049615 -0.2398888100439804 -0.06894310282861675 -1.665681726839899
P 5.727654954621149 3.5459550256276566 2.7642752394946823 -0.16416416551715599 -0.37845455826674174 -0.4878555120000889
Ni 1.7863074120486337 3.046794793441998 0.047223438617454115 -0.8792900274662662 0.8194586571309306 1.0316142629257008
Ni 1.7801607964345114 2.327099497453527 9.497079823656033 -0.07318593726537075 1.009582994157274 0.2371289879106561
Ni 5.347904198306258 0.3771095464114484 7.1914228406426375 -0.4633199887525698 0.5327767979928114 0.39426170050232745
Ni 5.527211067228675 4.578870844448012 8.880544920589474 -0.13051485289382686 0.6175362990283945 0.8690033008282776
Ni 4.1535250439507525 1.0467227688192413 3.18274600455728 -0.30305130163507804 0.09159657856207451 -0.7334549992756014
Ni 3.609375255090981 6.833165056060234 4.845591761456402 0.33982064794462763 -0.037772590763083334 -0.843540894891115
Ni 1.583615881633086 4.885651181964799 10.582073990023682 -0.7998529670848612 -0.0006090943389086284 0.3514883140905431
Ni 8.450137794966377 4.534606037973176 9.419940715104115 0.48305397684638735 -0.8471764347611732 0.4969487325506087
Ni 4.32530001523258 9.180199771020458 12.712708386938235 0.1347394324981357 0.4524611916611949 0.5519646837751719
Ni 8.090524085327605 0.2992080740423155 11.612810053814313 -0.032376359448176496 0.16307196089424172 -0.4247608975324491
Ni 9.065037881760642 4.478956231532481 5.574323499802949 0.4337386755510272 0.1747905348827506 0.841357514086551
Ni 4.185579185675742 2.661713912243817 8.9065267565309 0.5572400732414983 -1.2970066165574243 1.3944876789247338
Ni 8.533795985690528 1.2209747344530293 0.7370957226083309 -0.7554317606570087 -0.28572386610022404 -0.5471451508993416
Ni 3.810929202915258 7.923345314676634 6.836113596744381 -0.634466756235146 -0.8104721373616041 0.7441644152733055
Ni 1.9227072343632152 7.289537504329077 0.8045149218420964 1.7091248856251984 -0.3785671725852061 0.8287297980202114
Ni 2.3895105810697554 8.418386396995515 3.3174201874733296 0.17295990943191503 -0.6095648507871437 -0.5263071311080678
Ni 4.28238379457159 3.599036097184838 4.768976491339657 0.1168005886315279 -0.8457047353116531 -1.4980393729661556
Ni 5.562274298388638 4.627016275407584 11.558188658732337 -0.8686340904143169 0.6947539831609778 -0.02573417154131052
Ni 6.830844020611916 0.20436579511640923 2.773083247929188 -0.6519230040383805 -0.7464696663677145 0.6803925722329831
Ni 5.572007968786524 1.5107830736323153 5.131106643758958 0.8155402959131309 0.8540335668923228 -0.7223205799253366
Ni 0.12675880985356489 6.515201547747004 2.2684103272024454 -0.1746216134050541 0.7601170819478199 0.10844090381292291
Ni 2.945219676905339 0.3962090076756888 8.595030038286918 0.5859726652895004 0.54980907088475 -0.9617489053931307
Ni 7.935849549127454 2.4427934817963557 6.568133999643068 -0.5913655541702977 0.40837371442367726 0.5519186610285849
Ni 3.607870710373494 3.1543146964233606 1.9753085029403685 0.46490507385150254 0.3782722670526066 0.7890350505337508
P 7.716479590075377 1.1618479618664355 4.891632664622124 0.3735260106168728 -0.8235749932921493 -1.180443083637367
P 1.8884237977214617 7.020554265812563 12.095851474605922 -1.1370114948162935 -0.9221842557266311 -0.47413456286957056
P 3.6514566369148294 1.950293612201522 6.953506615731592 -0.7071055627477951 -0.48817664278493345 -0.005655141403248325
P 8.984342910205688 3.332961033518588 1.1658056483976778 0.4683760631192385 1.0593963181349755 -0.16814166210766526
P 6.9681245520294155 7.017664439068611 2.033959142168197 0.05218593797493593 1.188972975485249 1.8781409799180169
P 2.348686044528198 3.0267494872974354 3.8728210351228913 -0.22210294681546913 0.22020341579991112 -1.0158480012303794
P 6.940978528742569 3.0733995475926763 8.603368335199868 0.41308526096673376 -0.1612611329377481 -0.4451916545829752
P 4.418664354195151 0.8955472164925624 10.248154968462572 -0.4352168027584504 0.14509583603179527 1.081225241084609
