# total energy = -381163.6188670338 ev
CRYSTAL
PRIMVEC
9.28280984838007 0.00000000000000 0.00000000000000

0.00000000000000 9.28280984838007 0.00000000000000

0.00000000000000 0.00000000000000 13.58633053390299

PRIMCOORD
 96 1
Ni 3.7819558957006683 2.5393404296272957 11.806100107000495 -0.3630649631845489 -0.48701039039097416 -0.5988814029313686
Ni 3.5369175692305808 1.889822238048253 3.7963331112947456 -0.2693132859526846 1.5980241755919251 0.837082540860281
Ni 5.796399853370882 9.151123717497535 0.39933069059317905 -0.4256666971761701 0.06886314152030076 -0.17357517441841075
Ni 2.5812708808401377 5.88821612367113 0.8301904441804729 -1.574548203957172 0.9707485377885798 -1.175575985353053
Ni 8.732487567664297 1.4882386095517406 2.7269803591559696 0.2885847325877869 0.4230166611478327 1.5447881990859202
Ni 6.980329396803656 8.956936622319 2.827532681622789 0.8170197086721349 -0.20946391789521993 -0.7019073063763073
Ni 6.409353057717828 1.585225404829972 5.693080325345828 1.007513513222755 1.343783210591331 0.9060572682577814
Ni 1.2985165458173908 2.7385216764003633 11.131796813641888 0.7892679924801633 1.2014459111412794 -1.0239642025796105
Ni 7.249800078286405 1.381579126612721 0.9359986934741046 2.12006250412131 2.509838400938142 -0.4934270925505954
Ni 0.8434026671628148 7.788527936629834 8.751689059436217 1.0393208875413391 0.26679540462683726 1.8044994431724664
Ni 8.257569742891173 4.063345704780781 1.593594786015161 -1.0106214627241177 -0.6563722980589857 0.2639803037755454
Ni 6.120657677439019 5.409863659325558 4.853553231214087 -0.45398097073983107 1.7175511620156807 0.10009895960613083
Ni 0.919928293398906 4.84875494690328 9.754998334001629 -0.11213275084221334 -0.5600358908190807 -0.3376483228836572
Ni 8.67664218477821 5.704063745729941 5.949807565733828 -1.8764239972269101 1.265214411747492 0.027991343006603407
Ni 7.700991041580666 1.1107624377299572 10.85221715244455 -1.0219260891036592 1.2631690991826892 -1.9051571034955446
Ni 5.555993648918774 2.335805545125908 13.23429471885907 -0.20310686532894054 -1.1163130859266774 -1.275367441021094
Ni -0.2662746101184418 8.071170925013408 11.460599501317242 1.7632939154684342 -0.9722456911593966 -0.09090880846643054
Ni 5.592372979957766 6.5387832727412185 11.393767913204147 -0.9393268289441886 0.17554489655027186 -0.5435674608504122
Ni 3.0890684174122165 8.933664618513246 4.288797302878255 0.07156639938407675 -0.5782508711652106 -0.0953367623307971
Ni 0.8393126612287041 8.705307500993674 4.653711976674531 -1.6614021256279385 0.36662414129071697 -0.500988192727305
Ni 5.950615170173836 6.762684641626262 0.17876742006016935 1.1231715036094074 0.3229912350921147 -0.5404420278475531
Ni 8.122217095307724 3.6052576139126575 10.090784479380641 -0.7018335157155784 -0.267532539903178 1.1496628650317169
Ni 1.0424688070961567 7.357870548293025 6.500229907680962 -0.4729302581488243 -1.3807312485705898 -0.3395319130596153
Ni 6.689257617253099 4.439243798961169 -0.325736575646221 2.1940295425270797 -0.035010968857546156 1.3998666838484601
P 7.602676804521732 2.7755879353538453 12.209273880790953 0.49203072642370105 0.050683899508112716 0.09128958884461698
Ni 5.308736730941078 3.228106340428808 9.545184557049419 -0.8790524575341635 -0.9037833846219403 -0.27799512999739867
P 5.759380008465676 1.3577223057986847 2.4079728922288517 -1.6579787017686864 0.8143439616121846 0.5513869568948311
Ni 8.351261140741785 4.666319888748315 7.895057460233681 -0.30850743965364286 1.9925483857270199 0.7008351563580509
P 1.4117946720406158 1.5898389612286399 4.569218914911323 -0.2876977019971433 0.09593608647769285 -0.5204370454805359
P 8.312579672908287 4.862474939573765 3.8238315783365437 1.2251262854773546 2.0235427772260053 -0.7877135035088498
P 5.8013197424881735 1.1184393213148631 9.082502403682902 0.5233148812489633 -0.5144623159543398 -1.015886310667483
Ni 2.987932206218081 6.242698775976817 9.478095835108872 0.0820187050656523 1.1388894285652968 0.2153034073951324
Ni 8.702504092477785 1.4683548312701584 5.592147407683143 1.1648634840315553 0.3474758504970403 -0.19331173361538967
Ni 1.2856412888255353 5.901945399151271 11.779402746431945 0.7390281224880046 1.4580098678480953 -0.09405840983900575
Ni 4.177004426199872 4.40503664538151 4.151697630517683 -2.8125886263930338 3.1258009277215137 -1.6994940474036537
Ni 0.5050498249141201 7.364944049250339 2.2553310116624665 -0.10208282280537902 0.3661726555755952 0.32573383083425833
Ni 0.7175491186995991 0.7920520207118079 9.585441317681417 -1.270111334828477 -0.7348673062420956 -0.1275737679876319
Ni 4.47786028712708 7.401295531860366 5.665961525218931 1.0932618605341689 -1.1071414467297385 -0.5054817097222842
Ni 0.7109991682068427 6.2719860404391845 4.345274845101866 1.9188754815229019 -0.45464688645860407 -1.4921024386564303
Ni 1.7685144814732219 8.191717491196709 13.51391522441889 0.8799238043955232 0.4181557335111057 -0.3642489561903211
Ni 3.781760956697907 0.17961215573879863 9.112324357981414 -0.030175752252431902 -0.3038645415649928 -0.15579213940337686
Ni 5.349776032427013 0.18995691881862836 4.4359233379474805 -0.37694660626264753 -0.9865798483938816 -1.0822457119293232
Ni 2.405677253401104 3.826921825670782 13.195682872097986 -0.5821944291939909 0.38363584535736506 -1.3342472460764376
Ni 2.8423406195848715 6.851056989544405 2.9646731983458436 -0.9211735550739296 0.07588713824661769 0.8261844058905384
Ni 3.2342701260399056 7.74058222476038 11.478221058885838 0.5484908662939586 -0.32567880922660686 0.08896788268997581
Ni 3.084631234396999 7.426916086508903 7.5381854127227275 0.0277080074382297 -0.44421823492611234 0.8899410794222091
Ni 2.1946697071272263 1.4759203211392011 13.338161932653785 -0.5587179433386055 0.15207355290120905 0.9300135219630628
Ni 1.4292742026214837 0.22509885133057322 2.4635008030247287 -0.262851846598057 0.5661936828903604 -0.0838614147013459
Ni 2.514453216941525 0.6996917777657617 11.13978559963121 0.242627292021066 -0.8482444710143714 -0.4641975062615167
Ni 6.54909647426822 5.4335255411368335 9.229846584779027 -0.6910302544524873 0.05881372770409871 0.1054244855841023
Ni 5.374663245112785 4.192042577841405 11.491481552478385 0.05355685018053357 0.5662600173519216 -1.0510662010027254
Ni 2.7145163306318425 5.5155762956797405 5.829554336335634 -1.0314296577187205 0.33142728167460983 0.4338124662117561
Ni 4.007537453133315 7.836789264027569 0.9213708420193346 -1.0599467913218066 -2.1242441463028254 0.8080301035790148
Ni 3.187085604562183 4.097961301985272 9.971197755715698 0.02074108920209331 -1.5386082955274536 -0.3394817765479702
Ni 0.9863449399204115 4.825408680620283 2.180837392459913 -0.1665810024887647 0.46868793793270247 0.2110348619267656
Ni 4.516226139432299 4.92171783079368 -0.08102129095213725 -0.7116055075006777 0.18550560730740956 0.5533368815323503
P 7.844688935044201 8.910652533377839 5.374330920527127 -1.1987416248362386 -1.179391502444401 0.06151544290597793
Ni 7.58736016859054 7.122170728336138 4.063874824931131 0.8694928388701865 0.18292447684379465 0.8025726800088694
P 3.3664851839598757 5.439707892367243 11.619097906495137 1.0658338462302033 0.30606000655441484 0.6566147530870949
Ni 3.581475055575863 0.5874811746528924 1.9797457434597916 1.5651096842520917 0.11082457355375107 -1.3588642732941694
P 7.79147987010021 7.730761012145107 1.1478667562030256 -0.3539969394450097 -0.21722659255977425 -0.3919651911586669
P 4.106287982246047 5.182267732197718 2.1598870193489406 2.0594415480051436 2.0652501842671205 -0.30358146310693523
P 8.565564084443283 6.180606062192735 9.765732046806015 -0.5166757786658909 1.4063610333235523 0.6777618194783553
Ni 6.98779277576649 5.938120508377846 2.106356769190877 -0.2464952596169045 -0.5012399037267948 0.4711333141494015
Ni 5.286151655049813 7.564116013213751 9.099200321690798 -0.601651509477338 -0.5215873570348952 -0.5773890373855475
Ni 7.867868110753403 5.81315532479864 12.015179613708973 0.5449013491704874 1.3585649968861957 -2.1659988616421084
Ni 4.271327055107042 2.0688876362983564 7.349959737904807 1.1436719375556046 0.2120627889706477 -0.38308382950863706
Ni 9.127656774689019 0.08163488467035042 0.5944219314321356 0.2390038363358658 -0.5053346426214588 0.028159236043035378
Ni 5.543498987122784 9.356236679640318 7.0616310286073825 -0.24527629960813885 -2.0699861562902093 0.9910882777871963
Ni 5.797569487387446 3.504019291812314 1.545825447529156 -0.6779379400449034 -0.015027840867399927 2.6395608398376607
Ni 2.384243245907092 1.9994336544576476 8.66344574257228 -0.3406734828632262 1.5201452037262595 0.13952117015749518
Ni 7.838608694720001 0.7550303192446715 7.872477025747243 0.4078497235994073 -1.1026258182475719 0.2857596044341659
Ni 1.6399754161767377 3.7909138070180006 4.185078614038024 0.34984537917048136 0.11644500506432204 -1.8756732351038148
Ni 0.1776571960253994 1.0327032913388157 11.950318766085688 1.6533283474808687 -0.19947003990730164 2.5746854793205145
Ni 6.749967192398546 2.832018135248214 7.950611362896593 0.8431585718510318 0.09390465786996086 -0.7135207222455195
Ni 5.122764922307455 7.178461686085678 3.2659774189794017 0.47784183651782863 -0.14899439975525305 -0.197409300723531
Ni 0.02975140494513123 2.779514563838023 8.120304836518738 0.9257514042525994 -3.3353257807616563 0.8861960105574801
Ni 9.471436347462182 4.1321034758973445 12.68778508118163 -2.1407498572673327 -0.8995171531464187 0.919162952401804
Ni 7.208213091030808 3.8418021695481754 5.884361901102263 -0.06682579937529781 -0.3079040017416891 3.9673080800120517
Ni 4.497957570030734 4.888968078329897 7.4200653729833155 0.368255763356869 -0.00031573146820590783 0.19078228232531658
Ni 0.506260303293167 2.507751028370422 0.9362613969873486 0.5656239264298195 -0.18411978270347645 -0.271061636102359
Ni 0.15843435379127216 6.547453416959238 0.12196126637476198 -1.382170809230594 -0.5887520278068505 0.2631711776106887
Ni 6.860562586631398 8.380288486533805 12.019744899497432 0.9660907273015943 -1.56336313387463 3.0035745400887244
Ni 3.010888594495557 3.538532778110597 1.7641710548355225 -0.5650148320909107 -2.224796648506607 0.9443643913680962
Ni 1.3089040098216345 0.3204787922574778 6.950426682061143 0.1391738141204055 1.1912514871067807 0.6514815456255876
Ni 5.5548425805215205 0.4731912221772432 11.076935408579258 -3.6342615175664634 0.9080357321403911 0.13769080181697577
Ni 2.5357479822907076 3.0838514783859563 6.152351974444998 0.4627836566331255 -0.3943231498678822 0.8891669202603459
Ni 0.1961318438013121 3.5569962865149236 5.925093941588609 1.066505675486247 0.5480262679527143 -0.007830037567380063
P 4.98808991982884 2.986604764437378 5.0924147761395595 1.4631926976006155 -2.7876648665681603 3.089005356159719
Ni 7.3129603151808436 8.391594948693921 9.873159218103524 0.5102925008473663 -0.8851452006954628 -2.4674738199290025
P 3.4036628366292208 -0.12259621055518226 6.426931914362007 0.5270846327040406 1.3117238681629408 0.23869890350093725
Ni 7.173551079778041 3.202383674874063 3.920050685256284 -1.1479032020281326 -2.7437833346938616 -3.660304478597445
P 1.4762080882385145 4.371590682193582 7.777344935838134 1.329516930480304 -0.29493047230015657 -1.6361014420796212
P 6.166913917951216 6.332380000056353 6.995737004269468 -0.13847113162642605 0.018418354606187636 0.5153136082110416
P 3.7834411452455106 9.452313759572332 13.199636420730164 0.3201452810028873 -0.17680756531277939 -1.6387612482999712
Ni 8.197769883091944 7.223455464484758 7.796366341102743 -2.0354986640363006 -0.06671267083620123 -0.7551186002919641
