# total energy = -340873.17828795617 ev
CRYSTAL
PRIMVEC
9.23508955009170 0.00000000000000 0.00000000000000
0.00000000000000 9.23508955009170 0.00000000000000
0.00000000000000 0.00000000000000 13.51648705371653
PRIMCOORD
 96 1
Ni 5.590027387470641 1.1134100969524732 11.533996968597554 0.8941247784862537 0.31291122514829334 -0.7261232415008785
Ni 6.852233246656123 8.379061360746311 10.87460880684448 0.5497571346008918 0.6890291648620585 -0.3344691538247272
Ni 1.1962396147943213 7.710884164303743 3.4164003856514635 -0.0350410507645332 0.4855106659169961 0.9297116744519279
Ni 6.943494401223314 5.848065023552598 6.348072163472893 -0.3809354157070665 0.7871943977805862 -0.2467030047523364
Ni 3.807987574689464 3.0676843291505826 10.420346759317743 0.5674216417601905 -0.10603769368806899 -0.6136475054969497
Ni 1.0655076876486862 0.3654999081817566 5.810346147454766 -0.6630114006420582 0.2584244069543227 -1.2400877918831934
Ni 6.993576291652164 4.631314274949966 8.472620205584331 -0.3347010673298752 -0.24137285078867457 -0.08968059248628427
Ni 3.453554074271102 7.0670876041754225 8.796664720451306 0.7421453279607476 0.24880770980016506 0.06325787951838138
Ni 5.777656701105697 6.3782976879399005 0.7451138036661886 1.1903215190933436 0.4965121592338223 2.2341626631025395
Ni -0.15132987079536844 7.131262241201066 5.895932339516236 -0.047712475584614604 -0.18512482692922314 0.1973905316704536
Ni 6.02253433463167 6.581044843107693 12.143103761988296 0.2579490099798009 -0.8754050905895634 -1.6975960590499923
Ni 0.6170295766839226 1.64853735878165 0.12173048539734109 -0.01597863481644345 0.47573250348430973 -0.09940373331131913
Ni 6.026690124912507 7.506751745709005 4.812301712207294 -0.3911709773921456 0.9108667738312829 -0.5446408964202492
Ni 7.642516796639209 2.745702933280805 12.335551945331222 -0.23311523876557275 -0.2846326899185743 -0.1656183814651793
Ni 8.627272861586468 0.6281126076084406 11.63989851056966 -0.07484635568692917 -0.43861477269640586 1.7578442052077727
Ni 8.320852591546048 3.9052145970820358 3.860822445302129 0.5043553094273249 0.3793924966999788 1.6854733076445294
Ni 7.729982329416569 1.5153488978255645 3.1540989087413664 -1.1956760985370376 0.9517647975972253 -0.9072024376058182
Ni 4.614589527841973 4.746928360562865 2.139294633045752 -0.7413750254536264 0.03671226781936904 0.20941609537641998
Ni 6.935441403168003 4.367061423625778 2.149297158497252 1.1958725308185598 0.33719195207252894 -1.8993237846432192
Ni 0.43651405250070796 5.049414482470759 1.6928048368531312 -1.417344014697617 -0.9856676209922572 0.08313507805828264
Ni 7.100333926422123 9.217016442795362 8.476445379660603 0.7832675519223542 1.1363679476950237 0.35016111063868727
Ni 4.88747718786079 0.2250905307354778 8.832294619301305 -0.11982214906667106 -0.2340274661671969 -0.37008433192517554
Ni 1.979744609074887 0.29687949906456756 1.6541744574203685 -0.6030766719596388 -0.13707219439637036 -0.12348854217466476
Ni 0.7557572443298891 2.609623889307159 2.67610268116629 -0.04331948872324152 -0.7599023948338526 -0.47856894449184034
P 8.42292803593293 6.758977312754129 0.8170514569364372 -0.5599299613688357 -0.055388246962317506 0.6668215184167677
P 2.896299537968843 8.536842865075442 5.0858219758577485 0.5468723568539291 1.2110556663169014 -0.847239683898941
P 7.357854397491353 1.4774203851957874 10.18440222787767 0.6061740799380398 -0.13316000382615775 0.06438453692365687
P 8.487074967690035 3.1175538125206326 0.9836543187683592 0.17380425971008132 0.3623229428122018 -0.11974732996467764
P 5.61922874051066 3.1890611106195768 3.2723413008296576 -0.7088816808116114 -1.7569638594853483 0.7523960591544784
P 0.5696332502854464 5.546114536836457 3.7863867003186216 -0.342140811437372 0.7183168580825823 0.06865976726024305
P 7.269714703179546 8.441148867542024 6.463408272891453 1.8422290965127561 -2.3060393946381836 -0.28670371351499013
P 3.8792270551925316 2.1478047680319556 8.406727841909273 -0.3756325154369144 -0.48472725078375234 -0.23721357720466246
Ni 3.48813024940767 1.2165660468123731 6.265891872423807 0.37612539591293287 -0.256361610888023 0.65254598233436
Ni 7.96425808018165 1.8597253857642995 5.423395896861229 0.39714699246992247 -0.34773707457822695 0.2967569839859341
Ni 6.05723980102142 0.7893083245305172 6.309577539855971 -1.4155915507828847 0.668883543152119 0.4255553684092864
Ni 4.622310062674817 7.931741330006475 6.555699139939341 -0.7141002488980733 -0.03315488948541387 1.1485081826019832
Ni 3.7978105060461687 8.604582246653093 2.744522688841047 -0.2583516447348583 -0.31948553593170137 0.6815156300938328
Ni 2.8296960724012874 6.9910643473046346 11.347225594778251 2.2608018629566224 -1.4374736955679566 2.525442940244618
Ni 3.2299448518935048 0.4848089531087963 10.590437714458714 0.9897163371403342 1.2500757563338405 1.1989393426693415
Ni 8.897528521094086 8.750422780241951 1.296101408224944 -0.44401871732079656 0.5156619926893958 0.381060371320705
Ni 3.581413888578203 5.682424458047928 0.1238564030032273 0.7793736161845868 0.18410924118051517 -1.0581351920343647
Ni 1.1433225518849903 6.009032633763704 13.11643971524381 0.2604321814129708 -0.36248389387009833 -0.3969269060393164
Ni 6.5263361728328455 2.201931627667486 1.0239128444822592 -0.17902565601002068 -1.5457302512842153 1.1843665870614892
Ni 9.112595285672183 4.829924110015948 7.336154707662722 -1.657909796203964 1.5837980046902143 -1.7829826521466132
Ni 8.75346112469172 7.542362250871025 12.321102724279225 -0.25811741723686515 0.4841271553059082 0.383707579135565
Ni 4.272761924608818 5.2815292222898025 6.108871339470545 0.6947382994316939 0.9093220550519824 -1.0438210894045377
Ni 3.768766149527871 1.9751455344974267 12.59224310536219 -1.4114726435185048 0.44745962468154554 0.5442529169532111
Ni 7.789733358565501 2.342452749696872 7.941301494670304 1.647948314115878 -0.4893431522892088 -1.5445660557727852
Ni 1.162042078327785 3.6946545561862685 8.537864265975577 2.1689890546186836 -2.3275798398131204 0.7511326190610225
Ni 3.480086486441871 2.273928385510618 1.8182644513958104 1.0730589032237325 -0.13715369836658314 -0.9963217582719938
Ni 3.8051708723880076 4.342080506493188 8.037781398321275 -0.7036435723411236 -1.2855292120454442 1.8742429304151915
Ni 0.8759343876711483 3.02470422255721 5.6806956492911 0.3613922034678163 -0.26930145887814266 0.2481867883867145
Ni 2.0080593935216595 7.6866328192426785 6.921252611640272 0.49165277425899195 -0.5103328671669985 -1.0872614199763597
Ni 5.245724780248009 5.671850280555575 9.93107633446523 -0.026030105515174526 -0.3076535762937798 0.8761172861652395
Ni 7.803512112118855 6.591591315331507 3.0620112136627635 0.36336269693062584 -0.7246949936947841 -0.9754284597627523
Ni 6.232466389440555 8.96179550901486 2.496211449034152 0.22501986335194793 -0.7140143740524865 -1.19551720436167
P 5.244043993956648 6.913240247978818 2.7938038970091212 -0.014760446138626192 -0.12550634393564192 -0.10125647024934173
P 8.804503464429917 7.903177198142852 10.084448083551916 0.008879561877816964 -0.5128885437093167 0.011640669562721886
P 4.263840828139287 5.025680302422419 11.793162209109045 -0.20766825944737785 -0.9641847685281328 -0.9415235794851914
P 2.4141909250336404 4.062072592459869 1.0263961600522973 0.03133634821943636 -0.3741531026779104 -0.7069392123732599
P 6.512612829816568 4.285303176167434 11.184055415718301 0.4438996752444291 -0.41250881963797337 0.13524568271059287
P 0.5888071431322793 4.6447975056389055 11.389573097739985 -0.4106314001096025 0.3452896414789989 -0.957654423608783
P 0.31525363315957716 0.5320584415840163 3.3132693705332485 1.4548052448678688 -0.2509764353167097 -0.055731489234349174
P 5.310545873539562 5.999317319596058 7.8623110035389985 0.0480487758781108 0.7278181127047981 -1.1636537799941702
Ni 2.567262533711155 0.13454694262344397 8.373355922445198 -0.15505731811988135 1.5850192786918251 -0.8050666500753166
Ni 7.9483644911298255 5.06678568584466 13.12021040229196 0.007821038706315562 -0.4847935852453134 0.5616466869496262
Ni 2.403653687899339 5.113746116018124 9.994238805680252 -0.48453493226728805 0.018284143021168507 0.20021360294154553
Ni 4.588537340325878 8.386403256909125 12.631265052590303 -1.7214813503080224 -0.43965246993230084 -0.0974383820548322
Ni 5.066093054131186 0.9611604112416127 4.108092890520912 0.4843207593739529 1.3593856930152781 0.28459618025368405
Ni 2.861243138177601 1.90114476222998 4.052770086793452 -0.9201080899238928 -0.7868709530028963 -0.10627140696542989
Ni 5.86823445904893 5.309493073335084 4.265492062144206 0.06256882387115677 -1.8839182487214265 -0.7198921729895021
Ni 7.963223750156197 8.53972421300349 4.28971385491883 1.3095389446964802 1.9835484962212546 0.4237751365804121
Ni 0.4603996880170594 1.2016329070698972 9.726194026602037 0.8814016744926303 1.7204187133714628 -0.2942897533923641
Ni 2.4805819835423977 4.1848992829824 3.13500074362854 -0.24284814978262045 -0.5174026295295864 2.3714248620225287
Ni 2.4760752598600675 6.164976355279754 2.064764690149212 0.12940362210751907 2.3223692421464586 0.238382400701783
Ni 8.515260460883626 3.4934588960566546 9.937388518147348 -0.07334765965421561 -0.014183747699549767 1.4552585303552035
Ni 8.033715188408715 5.828255756547272 10.817799153705433 0.011773852706476497 -0.07802783873870432 -1.0168314481895713
Ni 1.6627409264526014 8.226331450380776 10.172480650825372 -2.6978030113090052 0.27553766959584164 -1.6061444907062146
Ni 1.5344470629383908 9.01262544169426 12.487881976320846 0.19700512330657682 -0.3441287884016783 0.21264282984383379
Ni 1.9030010152220873 5.252974325515693 5.36472075564056 -0.4441202758956673 0.6138732483545105 1.871726848861557
Ni 6.765802043904215 8.836623105756034 13.436618421640658 0.5560915614593519 0.07772881944104677 0.2623682220934191
Ni 0.25202836333586653 8.730105583313414 8.190761579612612 -0.815692505220279 -0.8488098565995382 -1.5789725582771128
Ni 3.634201660234352 6.643926567601521 4.4631571475530105 -0.07651063076322952 0.739716663914597 -1.9175037979863558
Ni 5.94650184267137 2.617353659229517 9.164692272632763 -2.386158311577961 0.4820548461579117 0.6307090889649267
Ni 7.340483194117453 6.929512475700674 8.629344292164227 0.20122867446962117 0.08928207149628495 -0.32230372210678687
Ni 5.648808732220709 3.9255594992791134 -0.05820692218236148 -0.9734749355808072 1.1947646424663618 -1.5005078891113062
Ni 5.221279498307172 3.034558063067551 6.0175538508573245 0.5984206612448663 0.13161811326033462 -0.09391622783418666
Ni 2.427572569737937 3.8324882671673794 12.190830704591338 -0.952527901015495 0.32383532825996486 1.165715033398573
P 3.1222637081722486 3.445787363990692 5.501007589128247 -0.390679639578024 -0.3630996730772263 -0.16032448005609162
P 2.5814106908450287 7.637252795616815 0.17511114980022327 0.48590378759035663 0.5072202896799458 1.0357064307172033
P 1.6836676392889964 1.77804101902206 11.578642161830114 -0.3383466345022625 0.17645018197336063 -0.12537830299820987
P 4.883810857324139 7.885778289500412 10.408289426449606 -1.8340992683167703 0.0823524342559872 0.12095446289890137
P 1.7383578393848182 5.867569532603996 7.867812346361876 0.25639760633228104 -1.7320850939657975 0.5492483132852735
P 0.6847920459853565 1.6514648821572624 7.541334385408232 0.19242881678980409 0.18383567580415436 -0.025293484459466116
P 4.956038492405097 0.867423329175993 0.33294714115748064 0.8713514893454799 -0.301171568113862 1.8078727305200735
P 7.40364197129667 3.7764312738236376 6.209460857954791 0.31514319980260563 -0.29542592387933636 -0.16887648339116076
