# total energy = -340896.95117006265 ev
CRYSTAL
PRIMVEC
9.06928071489387 0.00000000000000 0.00000000000000
0.00000000000000 9.06928071489387 0.00000000000000
0.00000000000000 0.00000000000000 13.27380906319732
PRIMCOORD
 96 1
Ni 6.463794348724336 1.8035443938448823 11.429625558843068 -1.2961378407992257 0.7720112622822447 0.7494606306752383
Ni 4.875890245192129 0.45585742474859464 6.126778966125686 -0.6104220565811165 -0.8162967144631813 -1.0332813662154787
Ni 2.6816503024394884 1.6657457409025092 4.657527356774063 0.48364738745601227 -0.6082052514354558 1.1828933449500725
Ni 3.346836704970643 4.260149561750209 4.721998153415596 0.6861865532069408 -0.15525092218792616 0.8866508387067116
Ni 5.171793670856919 4.594406976048228 2.639165256387853 0.28984123070270723 -0.08147543096767258 0.06284316057846596
Ni 7.281326530650381 6.163129550623403 2.6152459351248405 -0.04375863314318916 0.04328400749961578 -0.231102322100602
Ni 4.8851318423586605 4.426552726432759 11.495490303948285 0.9534606972424097 -0.2203096023604722 -0.13639445160305544
Ni 5.551397489308674 7.835377965881559 12.466735005890417 0.48092793164232006 -0.13521071570759938 0.17446914698758983
Ni 1.9897004521767994 6.380520212136415 0.390974882757346 0.5639118288347191 1.0375545396695358 0.06637379943954376
Ni 2.5655907156484163 1.6033490887869684 0.44644079046202984 0.9122106894536871 -0.19373442297510504 -0.6732950419562533
Ni 0.545655095038072 0.10872616631132984 4.758780435680857 0.13791500201263987 -0.3714979244432505 -0.047965986356317394
Ni 8.560031642819922 2.4777547308026295 1.357246898019978 0.8639724232725896 -0.2969372183175402 0.5698284514294701
Ni 7.039067901099461 0.6129001846857302 4.7660802998215255 0.04618009810048821 0.3212624253264661 0.875120469469609
Ni 0.8510068974723336 7.415034937938087 2.4603671055939214 0.03669838386229809 -0.3759960694239202 0.2881381319686715
Ni 7.629069965543722 3.8729094088389653 3.8823505301837726 0.5973688229415841 -0.22236854177202994 -0.9347842038788288
Ni 7.6697094129462995 3.8303019274961145 12.580305982021532 0.1758824823953487 0.3077481928901151 -0.3158250563609787
Ni 7.873568707459835 8.76451671771078 7.224443094351852 0.18166129386065485 -0.30701902803357445 -1.6436550860571626
Ni 6.872837052752696 0.62973367683568 0.3596631906891913 -1.003558385229749 0.42911403229482226 0.6045121188545847
Ni 1.8539605259830059 6.37439844757566 9.102926048773115 -0.029245784238994793 0.20799838909328697 1.373411574980725
Ni 0.011971450696586316 5.031600727775228 1.2742675130590566 0.3697542022792665 -0.4397396303294685 0.5584253517988512
Ni 6.398042062701418 1.9883581986138488 7.163980919837509 1.1008080483125429 0.9719081053143197 -0.4883021126192042
Ni 3.3103419189077155 4.197217822065655 0.3688576275954028 -0.09280911081293694 0.20851415238744087 0.0008119543783340855
Ni 6.198300221685042 5.696950377361336 4.772306361111834 -0.8555286633806105 0.3457768655280625 0.026581864253586482
Ni 5.18953318416186 2.745488970207118 9.515250925534124 -0.047666967058659845 0.4445946444289246 -0.23949851658409724
P 0.32397738447636715 5.712622094636867 12.464996424755162 -0.1420447079102973 -0.43214202048786865 -0.8420460555131435
P 4.0831444077765155 6.074658716119465 12.701788091821308 -0.19200484187850805 0.6851578548321103 0.0750993522379997
P 2.3767229423481058 8.611209594547828 1.412107884693251 0.922571978083353 -0.8614545419467422 -0.6616129776326347
P 6.369192680378811 7.769389878557042 5.904376620025604 -0.44925605446033595 0.26319508887008863 -0.2099549985990255
P 4.710058445201916 0.9080163967744106 12.642055994413841 0.26143491164587235 1.4632562038486994 0.06192836207368044
P 4.013057005516502 5.974189223076447 8.07853354730664 0.5888373884318052 0.9984470321451127 1.4413102957052273
P 4.761272674053147 1.1696742180222983 3.8857750906254633 0.2009839054486668 -0.5796230689223889 0.10305675668287413
P 0.1252095842212129 5.693812406193897 3.632829220543591 0.666190312590672 -0.5926580477294761 -0.2380466146289191
Ni 1.674579220431657 1.2226660259163542 2.558314431637908 -1.790356318902865 0.498651059953696 0.93789755269683
Ni 1.9668005180791628 6.384020954537083 4.877262427381822 -0.4499515378654638 0.48245953779549816 -0.7032447942408082
Ni 6.012633904517984 5.568211935968879 9.285826235286795 -0.6392029853685508 -0.08378351027555893 0.394758694743404
Ni 8.609803856019063 2.284615326231037 10.42199762299223 0.6531949287722686 0.2388176884669887 -0.8029094945229979
Ni 2.31438977519838 5.238062905887189 7.057392383017986 -0.7981200435541544 -0.8604685238843891 -1.3601385120209026
Ni 0.5882126953363532 9.055323207548689 9.172905526591244 -0.1511574688448429 0.22077857157709074 -0.2165208247420013
Ni 1.4679537952647432 0.8892466131670961 11.4929282321136 -0.8180211533534556 0.8997182134136311 -0.30730133516068364
Ni 4.224035685482174 7.043330463089913 1.595989367392817 0.026104410396535688 -0.12159672446859057 -0.35782839737595795
Ni 5.529812600931495 7.7178945020000596 8.185626336140352 -0.035672256590628885 0.7420142016995221 -0.6975775686527019
Ni 5.466255080869619 2.982696010335311 4.929401722877788 0.12267144559000807 -0.2473727771258514 -0.18131548048546192
Ni 0.8160384713732216 7.350253064964059 7.04280444480173 -0.19833001276558745 0.5202287861244718 -0.6627766589234327
Ni 5.007422025080457 4.729992724467899 6.640754156293875 0.4813133400061969 -0.2483762786897013 0.5203537417381103
Ni 8.031392332476498 7.28411079986542 9.146159310493287 0.864745296882872 -0.7109550184008724 0.15058282728829553
Ni 4.598216073997142 0.35967407382618816 10.340602641392438 -0.026463079287535073 -0.567922492656009 0.07412310436765944
Ni 8.190385894720327 7.236252204921567 4.783402626208253 0.32571249067801966 0.5584577476986834 0.24617438594237603
Ni 7.18384990028151 6.110573068209224 7.077011051311058 0.4894506244013506 -0.5466155036481167 0.016870293392777395
Ni 2.570515335139512 5.22824087474749 2.653235338668674 -0.6843407582474538 0.5394845490302902 -1.0590679882612795
Ni 2.482434479711295 5.180872020968496 11.414042720519678 -0.8497963888825236 -0.15213705914929282 -0.15290530477388503
Ni 1.1738551564852726 3.6267056421266703 3.876655928750147 -0.9433215519258785 -0.43542454789388235 -0.47948220033472905
Ni 3.692784422259495 2.7021378078361464 2.688357942541909 -0.2443573873382953 0.6675925922548374 -0.6028200758641425
Ni 0.873563105826485 3.2821999404899067 8.153530151280338 0.32343526460806876 0.45723907266581254 -0.31251064727576505
Ni 3.7753148778192944 2.7162224009662967 6.9358839723038015 -0.39705777519022584 -0.3502672971992484 0.1698496459377075
Ni 4.105173690914401 7.062212705779529 6.017708167142788 0.6519456297461997 -0.08198656627613622 -0.6749184364922892
Ni 0.7871700435608702 7.501837024769168 11.216182755275684 -0.11121435279300201 -0.48364147391874124 0.35215011604425805
P 0.06138361344674633 5.565482082438824 8.08217032891977 0.38836873205666017 -0.1518976894449771 0.36394633734823767
P 8.580301485476642 1.5918673792552425 7.98047920374885 -0.3648950744147523 0.19044366803897525 0.16444467287205228
P 1.6367331115249486 3.14325855816286 10.275175942551346 0.9735358707257299 -0.4096649224312751 1.1515356565743975
P 4.129742372684896 6.176942065328632 3.8426479394910107 0.33042815098613415 0.46138754761654727 0.12958308510817684
P 6.86911864761209 3.854326452416764 10.517224164786992 -0.5736912768189861 0.5083124943028601 0.40537066593129545
P 6.2932011762979805 7.790956628372559 10.237796901607421 -0.6738557995557298 -0.2032549608710306 0.9745583984529732
P 2.368959637956986 8.443183028596575 5.706954701045734 0.24202102589563484 0.35330942645968183 0.6497388519028681
P 7.018308317277881 4.035167912181864 1.4879678842020363 -0.5033515507531588 -0.5044620102085183 1.0888408486483376
Ni 5.26574235098263 3.0152275206752015 0.4731797511353218 0.7055171352147527 -1.2804937065040656 -0.0819791100769685
Ni 1.5845394003439988 1.0695856347741721 6.9470999519071865 -0.34514463126070233 0.12397859443720582 -0.008246299169192249
Ni 6.962731764347063 0.6563239013033478 9.170516678020425 -0.8523340677027128 0.22722432720243446 0.9916343800986536
Ni 2.679328566546817 1.5844577768165218 9.124456521465309 0.29456306165840884 -0.5529838690683057 0.12350499723489698
Ni 6.478631692163438 1.9472562178889026 2.7078169914923604 0.11575414964488452 0.44030115925989327 -0.5600713720427064
Ni 4.169075843647846 6.762862953399056 10.487888669011857 0.10829306538114898 0.5942709007425506 -0.6277014124868544
Ni 8.109397216901755 7.228624939742909 0.40522000215820064 0.2665760895271796 -0.08226861629292928 0.016271226356197786
Ni 7.5526975516679995 3.9291480192704284 8.495290581609634 0.5306543523331699 -0.6157149295489396 -1.1554977265459392
Ni 3.1975200653732205 8.378092800074302 12.272194397430475 -0.8129650789867869 -0.34564625348746925 0.9208094868662916
Ni 0.24922111644468406 4.775847008348157 10.322019684970238 -1.1126947724477998 0.642386782413171 0.11594801082324549
Ni 8.668237232411567 2.4396093356285067 5.750784721444568 0.47476268337187266 -0.4371800971324084 0.6214047808448654
Ni 3.3221954689535025 2.5513428754633125 11.630697863357316 0.7647466103000313 0.019578950573192085 -0.6558123117904576
Ni 1.0950884524702331 3.2941623219056626 12.632339166931779 -0.6053644395525509 0.2917438470420588 -0.2482538941792241
Ni 3.135622223703371 8.136949692065565 8.094806557901249 -0.09234734068516998 0.9889426921991031 -0.625529087425884
Ni 5.680534979057684 8.043200536118132 3.651943636822474 -0.43730248164288554 -0.32857207161400187 -0.11464908950616384
Ni 3.1973930954415897 8.344572738123862 3.5170154112630323 -0.37739989174998234 0.05208849316512319 0.7982565691320188
Ni 3.2122576467231845 4.138748168549827 9.064405185372598 0.5100153359265797 0.03239178606714421 0.672450691678087
Ni 7.4511669527677835 6.345113739773177 11.526909920458328 -0.1024872573326493 -0.9945281567066807 -0.43115240288108975
Ni 0.47210141364454594 9.089596019808083 0.44722891096622175 0.2954210387833299 0.48617735296671755 -0.34626691779060365
Ni 4.558157060567732 0.5804203692465753 1.6802257546768802 0.13495669071526437 -0.6166328133775186 -0.5515646201232759
Ni 6.1294008952138554 5.62198370201438 0.41376145084459837 -1.0135034122576028 0.7718716513805869 -0.7486656455777686
Ni 7.807381095957042 8.91466773114463 11.458403293847113 0.9267304803364168 -1.1111953050841379 -0.3449415141109608
Ni 0.032605878442702366 4.975888135631948 5.760965896105165 0.6016597370074541 -0.05964265136329728 0.6808653981043435
Ni 7.985828265582824 -0.23655042419604716 2.477623226230584 0.11514582663692427 0.5101446624155924 0.6301601584399922
P 8.657335956853009 1.6496931138320865 3.585415020360445 -0.43344274157716317 0.7242733327763333 -0.4010735812178383
P 1.6991932486063048 3.4391166374234956 1.6058785112106637 0.1622875173197334 -1.013086122214526 0.12923367218855808
P 4.688237755523138 1.0720524791601354 8.189223212917826 -0.04105203284530349 -0.22927015398786965 0.4102999849121127
P 8.440607352840642 1.642183749304228 12.548382113497302 1.152454311733925 0.09607569737935068 -0.23450209181077034
P 6.3103421170680924 7.905456298860742 1.4356816663566123 -0.5179405043109273 -0.8730756711254383 0.358420265323686
P 1.811588845941755 3.254983028716835 6.073962195351664 0.07554672418806345 -0.24313662755731671 -0.5380293046410024
P 7.149858235727869 4.009338600375895 6.103828244055397 -1.8668960031318171 0.03802738708636677 0.16683785569457718
P 2.467379473532255 8.484783819767213 10.142836089741 -0.0019931191706288255 -0.24502176039517154 0.4132274429715529
