# total energy = -340857.36214497057 ev
CRYSTAL
PRIMVEC
9.37508744398166 0.00000000000000 0.00000000000000

0.00000000000000 9.37508744398166 0.00000000000000

0.00000000000000 0.00000000000000 13.72138812262922

PRIMCOORD
 96 1
Ni 3.5978023586708883 2.600461792069384 9.175341023438513 -0.3029278886833364 -0.7620873183003133 -0.6239643140419254
Ni 2.3657095991448136 6.893323768601084 2.626095156522034 -0.4123262713135221 1.1263025930392216 2.2811104926069876
Ni 9.010265418893923 6.012609291455717 7.596380336164958 -0.8891208975137591 2.0422840623892506 3.1025946648083793
Ni 3.047897221762597 7.217364295607668 4.9131487084057515 0.284787984549516 0.5954638926093874 1.1039123982694796
Ni 7.927864682707568 6.657896569370981 0.9352840494039957 0.005097469127565414 -0.12032788505849601 -0.5788085434408935
Ni 2.873033088279007 5.845751482762766 0.7956618076305797 0.012679909460513646 -0.276668183655859 -1.5390386981966526
Ni 8.685578010844534 1.5093422244365509 1.1149519777619685 -1.1638412134146279 -0.42022495733530857 0.48854636741952634
Ni 6.154726244033335 1.8664299351515656 10.223641753581553 -2.20685111977178 -1.2650406051737892 -0.09030691321637349
Ni 8.058337776514726 5.017771873237234 12.854471329329902 0.5646877877687952 -0.3858248825888839 -0.4823266117620596
Ni 4.333662357666195 9.060740890407736 5.479252121629341 -0.40984181432877154 -0.531216395484227 -0.31743688093278877
Ni 9.002896600058511 6.622346237279528 3.712102488899206 0.5832334119814665 -0.8440438026694626 -0.8667080770361977
Ni 8.665871576757976 4.227086362092451 1.257152368619021 1.5459043149682345 -0.4170558155787076 -0.14577743547985217
Ni 1.2718337557643835 6.5985710151846115 10.684131992725543 0.321204318395021 -0.32275932158696674 0.21823960720532093
Ni 4.1611326209892425 8.250480196402469 8.50948386587086 -0.7627349791866412 -0.5471163545439353 -0.7451085243541297
Ni 1.991156100274109 0.5099719513746566 0.9983624511473819 -0.1923876791392235 -1.6880004449417574 0.2834420120445828
Ni 5.939980487997784 0.8763081859842435 1.9157663335247903 1.4361801735675137 0.3313504056900874 0.48812367805981094
Ni 7.606664807236774 3.377131547286761 9.546724805199482 -1.0339922762395741 2.993595574499141 -0.5266107783914156
Ni 5.177785867999078 9.352024861420771 11.548112876054976 0.5168662974101421 2.4331292810108613 -1.3854078281106528
Ni 4.355890690310929 8.586239582880129 3.0914154407856227 1.7371887337409502 -2.7243028573717467 -0.37647995103887416
Ni 2.0855913574358182 5.115816539116034 4.880437152832571 2.4608300893602393 -0.38692557185223037 -1.7753837567534327
Ni 1.5197016962089809 3.6761312153755523 8.39486873269996 0.2249674128474577 2.682538114730135 -0.8609290084605752
Ni 0.9242017583793898 2.0030249611464135 2.857424504972293 1.103443943273493 -2.021053435145248 -1.84664728018511
Ni 8.875404784100793 2.9289836109377068 7.221923400696295 0.4508403682283203 -0.2785582015897203 0.9000691689951467
Ni 5.00106546717527 7.312305807498528 10.525704262781705 1.4490601148539755 -2.441150865763757 -1.231325472309531
P 6.586992782027188 5.206464260896692 9.984642645984664 0.0344340133081536 0.0684435374843789 -1.2459879594177121
P 3.653931007993548 0.6573427030303473 7.435386644751332 -0.3892825021201812 0.5282714539232902 1.6386190662951523
P 0.8481276102369605 5.5784302355961835 1.7539635720532818 -0.41223885380603836 -0.2140494803833733 -0.0005525300693603387
P 2.623815135223342 3.9802590563688858 6.546131462823445 1.0126032690408366 -1.040332359524989 0.34503613070729605
P 4.253589734672234 4.221320683232682 0.8883279857665355 -0.032393585839357114 -0.547757844782676 2.8139767649898118
P 3.9496775206931685 5.598183545120627 3.828678890391185 1.5934406699863009 -0.7165196569728434 -0.7638906900576393
P 1.148916982544174 2.288018248395376 0.35137171981940324 -1.2937577706028236 1.2488138589022815 -0.1862617687471437
P 7.9937902985480465 1.3882442182062522 11.499524609670384 1.2301203962578364 -2.1725266354582975 -2.393325775860678
Ni 6.472222959911271 5.834520127845686 3.312357192200721 0.5973572529773583 -0.10960998442035963 0.15893377035615208
Ni 6.219245596737284 0.6348481178984298 4.236066758482326 -0.7602680057033875 -0.6770305977392856 0.6182505514865998
Ni 4.642505867710688 2.4195694772738734 4.933470148237353 1.069202762702436 -0.7626393341490414 1.073515531145177
Ni 5.3648188651574324 7.430544412017884 12.967836763326808 -1.07700528946599 2.27915182621872 2.4435751589345336
Ni 0.12147769727716146 9.06681594715754 10.503887496481594 -0.16419758985825272 -0.3234874580022429 -0.0563593526263352
Ni 7.174642021519918 2.4906795165443554 5.692990055750379 -1.056504341299161 -0.23814585921094472 -0.5019263882708581
Ni 1.5943836438462464 8.68884991640886 6.522214676906118 -0.6000723379156763 0.5109663869859393 0.23454271524071865
Ni 9.69852809826151 4.763163244824875 6.101036992498174 -0.7869519427524769 -2.3738717809011245 -0.8311013835761815
Ni 1.893964567364803 1.3567064235976958 11.558417034810702 -0.5500602676636076 -0.6553970786299099 0.7003936979452583
Ni 6.435050737669021 3.974287125582426 0.7310674542260154 -0.09533444833795193 0.37459096154627747 0.8884500966989797
Ni 5.887358121428869 0.37555007068012475 6.9122455078574605 0.43760741447781404 0.5587302846337797 0.758081796685346
Ni 9.397962790547384 -0.07308724524044168 13.061210760574815 0.15009123236385763 1.4880874039597662 0.41511797512604637
Ni 6.21773620763741 5.810951157677461 11.943274692437134 0.4126589720625925 -1.5504770219405812 -0.6472577373522271
Ni 1.121429225768821 4.8229200530397796 13.029884842945494 0.10792411207750446 0.5645327502481696 0.4018641954399337
Ni 0.5950096207493215 3.8551860130059987 3.8076993194116877 -1.1937901943682343 1.6366660563338395 -0.14392187032835213
Ni 6.844357686187145 2.75426010376777 12.337997754720693 -1.4919422589294822 2.191917381280083 1.4757227117468261
Ni 8.292911842775338 1.3883754694323283 9.147473575616296 2.6156092141180696 -2.967878115128379 2.993802548303625
Ni -0.008948521092112723 4.323087258879497 10.371284382776974 1.344469695135394 1.72975850271515 0.7752320832123875
Ni 4.548979994043934 4.2219769393630635 10.643584738955626 2.312588508610611 0.8833767959411303 -2.784552546191424
Ni 3.0734349603219635 2.725525460344694 13.435324567838165 0.6053335863146155 -0.3396273009868989 -0.5022428910700124
Ni 8.271696019588903 0.5356709414403448 7.121606213588864 0.8551856782188949 -0.8670942567310228 -2.31827347481053
Ni 6.739422330939353 7.01929682037135 7.439736685386995 -0.1126773104917737 0.9595354426815796 -0.18589127278160245
Ni 7.813882367948106 3.2407708984813346 3.0967939285284674 -1.978948278445082 -0.14274301952890256 -1.3538632205351522
Ni 2.663481130761036 1.4470822678386246 5.798205726116721 -1.6179283707150198 1.1449281785602088 -1.3392045900817129
P 4.121316624050319 1.999237425765362 11.243401904614359 -0.09128856040335245 0.0943106350591279 0.8232929432753563
P 7.956186822277261 4.4012286138326235 4.7805043443157915 -0.5290718383373986 1.1457506744615042 0.8039327935811895
P 3.4472572023616723 0.9002427845679667 3.531062047719981 -1.8332310067792041 2.1247164579535536 2.713635607465888
P 0.8231823772124518 2.3791534747300305 9.866323415712147 -0.08785510924177128 -1.4320872344450626 1.3087534726807073
P 9.180620135253042 6.810926123888064 12.405465572467564 -0.06595496673457028 0.33953525549372493 -0.7398907275986161
P 0.8729434670529086 6.761903790948663 5.429581032629622 -0.4749087220314337 2.619764373937024 0.6449869390401796
P 0.21878923130745126 1.6135088225030407 5.584207164561045 0.7906247636183739 -0.4163690739243281 0.40911470635475994
P -0.02418397591326766 8.966661886573947 2.6732012215607246 -0.6829811588957657 0.6006955733219719 -1.1700763956910623
Ni 8.31830895502105 1.2539554637553119 3.8583585426420077 1.1089535602378127 -2.0078279375939094 0.2436338789087094
Ni 8.245305148060043 7.71358768105086 5.919241856769012 0.956636780977546 0.5649909208315107 -0.8100191089845857
Ni 5.131707312558812 5.931233531288573 8.43048937794824 -1.5424634076074855 -2.6166106587993907 2.0760431611175663
Ni 4.714159662060628 3.3374280513987595 7.1117539340543425 0.4372397467257502 -0.2317204153005751 0.07444140693902664
Ni 2.1090572016406983 6.517279630805659 7.192902817102126 1.185569863340971 -1.3944871647041017 1.0769368981219
Ni 2.694990800106862 0.2856204806078544 9.65737333881661 0.4818869531214797 -0.7323949334422032 0.3417386909029469
Ni 7.9763807609178174 6.934292901311961 10.166725596902436 0.2623337693110579 -0.0043590482996441055 0.5691458235401488
Ni 4.71343778031721 0.6154866870346988 13.678111210816104 -0.5700557369489279 -0.6897277335909798 0.13197909614417916
Ni 2.3690471303221754 3.636887098778817 11.249328834980451 -0.8364832167133851 0.829132689885585 -0.16721117987359588
Ni 7.3597906260753225 8.957680552675315 12.286542586555097 -1.03605995740188 -2.124261629804322 -0.9371236506452828
Ni 7.377837669660779 7.995046560283346 2.7767425012858373 -0.8587494843107533 1.8816798463092113 -0.07707884456187371
Ni 5.312590252266746 3.0850694440048465 2.9176341299171606 1.112145070591917 1.980339502365654 -0.19311864376797708
Ni 6.999121631905947 4.528486052600919 7.204496987908428 0.24497702320016518 -0.11692194470074058 0.6745759655512059
Ni 5.814110562190863 4.676068681235846 5.184941872346496 -1.3038493505108708 -0.4741119371617513 0.11563870711294277
Ni 4.860242276683258 4.121147872473935 12.71010810576887 0.4594057412998282 -0.8181445663051973 0.4427470496972245
Ni 1.386725454018801 1.3405343975276125 7.984722713843708 -0.35473870270704067 -0.32388906431603576 -0.41143101319276243
Ni 9.254542700796582 2.8328139625742783 12.304709631261536 1.2145454246377145 0.17793602249026774 0.8891085562185849
Ni 6.183657764295524 8.843595111952508 9.256393343084254 2.3085493055442305 0.7476426036298931 -0.03700383091785885
Ni 1.4743731477748636 9.073875388102916 4.09933298119134 0.8596449995418292 0.2438881610113606 0.4603488219393878
Ni 3.8874363142703965 1.8478485115742294 1.7755609613040937 -1.2888194527609418 0.798501081042657 -1.2280676274938656
Ni 3.3775815514904504 5.9623306967810175 12.25531323232782 -0.059910560312703275 0.4069104996145896 -1.3374744947644837
Ni 2.861398604596124 3.0964414252355774 3.6325867461073114 0.18836364558149496 0.9328062542168516 0.005183343973152363
Ni 5.152688758555824 6.4974606956681775 1.557185171358782 -0.6124637696014936 0.08909078142108529 -0.22546929218454073
Ni 1.6115963046373611 7.7942228092994315 13.079625307593282 2.3356523324086096 -0.8670466913225391 -0.1365888270020486
P 6.912739574972761 8.912473880379697 0.6222508127214031 -0.022859678206992886 -0.8289180027716176 0.28973247303898486
P 2.9606901571226465 4.995656041643422 9.521422381338294 -0.9005962451432103 1.103893372106086 -0.28873205679892855
P 3.5316236154658345 8.16864505694406 11.571877785553555 -3.9938557485935924 -0.6270856332797264 1.020041470486437
P 3.492341998518792 8.188717119446116 1.160978970220562 0.1958141883222692 -0.7537944821639018 -1.7154320587901488
P 8.468647859403575 8.156232440992298 8.3293903085369 0.06139408683676523 -0.3493455567159274 0.7921995643046614
P 4.3969066984596905 6.966299450299361 6.819241826568738 -0.9085959755192351 0.7645195818908898 -2.201837211496956
P 6.334493548319623 7.718434601328096 4.797203250307695 0.08890257666967914 0.536912674538056 -0.49996772188259053
P 6.796675990771235 2.0712005980053383 7.951434590384552 -2.326068545374917 1.5851974561409024 -1.6849686000939692
