# total energy = -340862.3429066051 ev
CRYSTAL
PRIMVEC
9.38495067608484 0.00000000000000 0.00000000000000

0.00000000000000 9.38495067608484 0.00000000000000

0.00000000000000 0.00000000000000 13.73582395980517

PRIMCOORD
 96 1
Ni 4.497286992796614 2.8602607127716846 8.01578747844773 0.6565419908676305 3.403874990585963 2.010888835907421
Ni 8.09373136835757 1.2936872552619456 5.397863077441432 -0.3681413492661918 -2.1672134507755 -0.9195581309576937
Ni 5.963084853107989 4.84687639451379 0.8819469581372046 0.14554500775407192 2.0885968294128614 1.664138036501863
Ni 8.794683927414056 7.466722833358256 0.25026659483789454 -1.3331036193902976 -2.3024812449732797 -3.7475083274084624
Ni 0.8457801748513661 1.1095076040216887 8.305255949524897 -0.031054812423275544 -0.30442324228194023 0.8647015881291302
Ni 6.081748165733814 7.546560606255115 5.563379816352701 0.6980015435639979 0.8553818533901011 1.2178523775237606
Ni 1.6722855386088604 5.984538849680485 10.479320999220231 -0.6729512854635895 -0.7925620898504028 -0.7090922541605208
Ni 4.510041140365303 3.873872893793478 13.070995694009005 -1.5207057042154197 0.8460068399331042 -0.8918575797186318
Ni 0.8033020124338552 2.096823154074045 1.1395854314999 0.32518052943394965 2.2734982274773685 -0.5599111923157584
Ni 3.3545378945230526 9.235391812386858 7.716812991128975 -1.469969611313133 -1.9760676144631775 0.5410135840803071
Ni 2.6008043745200595 8.088625955349942 11.539698387993882 2.0830195924353996 0.6026519257173943 1.2918806081847687
Ni 5.8803940552951035 9.217307013001381 7.559043528757773 0.9000077196295918 0.6713132356395342 0.2916723703741751
Ni 4.057160974747476 0.8739744427879765 3.6453775068509797 -0.8220503291175069 0.11793701622881624 -0.4509828073434556
Ni 8.755473604719443 2.8342644002144612 6.9458074084435575 2.2074296179830695 1.655472647517381 -1.4343600896396393
Ni 8.954481477562737 2.609447913821577 12.808752025494023 0.7218045595208665 -0.9792781725261457 1.1184267898355704
Ni 1.5053272713189663 7.236115832579881 5.453396644334882 0.4210114577923459 -2.136501366403624 1.7111200616783564
Ni 4.1945284934839675 6.681681118882014 5.100839721307023 -2.435658218080302 -1.7768685688290755 -1.7083265580936189
Ni 3.778596877518773 4.281264204911354 10.746688850643604 -0.6844824260316404 0.7445685926902595 -0.527699383469904
Ni 3.750507721026437 1.5929170132310841 6.479943163972693 -0.8132553565336962 -0.5579643530020326 -2.6985727995954942
Ni 0.11636306128727746 5.619407970131266 7.399309796271688 0.9786230554406502 -1.316434386264733 0.6465188023036736
Ni 6.012918939634653 5.4956673993489575 10.491641562081288 -0.5597430421690102 1.1455367586784855 -0.3462023831012554
Ni 8.983152500978736 4.964976610116713 12.995929229886185 0.2845331882262325 1.0325277758789055 0.819583612744569
Ni 7.857258773590654 2.2862396076272735 8.841049336279655 -1.2991408892916076 -1.2776855476313091 1.6278852248174156
Ni 7.548268667224578 0.18534526207766014 12.36879305956168 1.0955884517848165 -0.5436301957675476 0.9706377232423284
P 2.3291100609707382 6.864199633904715 8.058848446283944 -2.340775255457472 0.7330091699874344 0.9042045313197588
P 8.212694999395609 0.4995224305196833 7.430888277315928 0.31072938700562613 -0.6602320381247081 0.29495952576587914
P 0.5983459580386594 7.514126217736066 1.882632308503287 0.7679684596714387 0.187238016617484 2.62243703567318
P 9.17693295645944 3.626494986683061 2.490730168483539 0.547559869839257 0.7007767923162899 -0.04671283067550665
P 6.858024336553577 0.6457193105752488 0.7092591786393015 0.4086966449807349 -0.34377011951067893 0.17489903543615684
P 1.6150561111814417 2.6475226575200086 7.047782402300698 1.128921261608991 1.1981099047895107 -0.10773462177451767
P 4.78991913064744 5.089937224448638 8.697852824861108 0.18818366836020495 -0.1307555081497232 -0.263445771428314
P 7.1376020084235 8.786509635631623 4.163218422020643 1.2644837042290547 -0.18993664649556966 -0.4837227207786378
Ni 1.0877532890369797 0.8942571975528399 5.874207496003506 0.324885366791034 -0.40386939879542055 -0.3091581858637643
Ni 7.818752322174665 4.0912189596825534 11.149931075197742 1.5586613575235866 1.1416705908548594 -2.6042084284802955
Ni 8.081784326521706 5.64107782056254 2.1142312985370033 1.2146330992555145 -1.7246726035518103 -0.19144099895523806
Ni 1.4280609748266841 8.26116826811693 9.794961032438536 -1.6617533383197702 1.1909516964781746 -3.051746214697944
Ni 1.4925168140479879 8.76726110239882 3.956301851490716 -1.1312406537707873 1.5831673130847508 -0.9461050282082867
Ni 7.343254426137016 7.776332346449521 2.0707170375973565 -1.4012962172061352 1.9146388177337346 1.782732226698704
Ni 4.7830681168688205 7.427306041755245 11.899797057148453 0.23150932773103355 -0.7195257907890189 0.7240943839963078
Ni 2.3336899167569927 0.5993736101054521 1.9898121958421011 -0.43435394053752296 -1.2013345823743955 -1.4634863175816344
Ni 8.12117296327357 7.001238679377848 6.356732842886949 -0.4247159032271266 -0.050054236343913795 -1.2280645421700722
Ni 1.6450222577501112 3.4668757505916328 9.963251962682628 -0.8074402925138158 -0.2796218669675442 -0.2344848654195897
Ni 9.326256901982179 1.884713890497941 10.50452616046028 2.621588828740272 -1.0133869412843968 0.09340252142256172
Ni 7.752682271487714 3.1346485070805454 4.004033709131885 -0.6333179873426835 1.0122854806901016 -0.08125637297833103
Ni 6.373676432306015 7.584663504804692 0.00672337845342777 -0.9411859936401147 -0.22142700379436706 -0.47787474663829316
Ni 5.221617463253838 1.5346552412616823 13.041752188619721 2.1547304878171403 0.4294927557904797 0.2675870472901972
Ni 9.10084916371525 0.06541310416023388 1.0957014035152153 -0.4949458431879669 0.8807745824315927 -0.7065124092484865
Ni 5.6903206552151575 0.5811020502073805 5.209668544427896 0.01911203823910257 0.3321196797559442 0.6493017643654495
Ni 3.231463655217844 3.938694746079667 6.1430581695871815 0.14446488731601573 -0.4103349519151062 -2.7297247997182668
Ni 2.9723357902295775 2.1398813064251434 12.69745026794758 -0.5416229355295317 0.889816638029203 -0.3458699394625011
Ni 3.249332600744542 7.931934823777595 2.8972561871762244 0.5503168637591038 -1.2198375262745895 -0.2470668158496584
Ni 4.875922815945055 8.193624780220055 9.470946559006448 -0.6951046816321771 -0.9336724588718888 -0.19827421982698756
Ni 8.111506464380453 7.066295155423578 10.893016181509475 0.41898568561156874 -1.4098507916443657 1.1098950982154756
Ni 6.782954118450605 5.801175689123434 4.209041380754181 0.01963268662926296 -0.7097401721571648 0.2627127499170314
Ni 3.0908207887981503 3.2536872177216365 3.5775224386014353 -0.8139855498315014 -0.10434025138098803 0.8890527632799851
Ni 4.302436652972399 7.130657145141065 7.413691294236558 0.46357915595122734 -1.1234746366721233 -0.5542254547848907
P 7.500555579484173 2.0318605275321313 11.37205314233605 -2.3054220727691583 -0.5227374114789385 0.14846372406276367
P 5.063434124570804 7.40917431761786 2.072845544343919 1.1765033822633286 -1.5775257985282574 -1.1288605835743848
P 6.869727369679518 5.601989502222888 12.489641188636355 -0.17906062301301423 1.4380866465616071 1.229563495313102
P 2.0394717222916654 0.9589917698004791 10.925254424565546 -0.3643744260245918 0.40818036746594866 -0.16923309539963113
P 1.7309884032462006 1.5576108298952451 3.780153840787092 -0.038048470132289305 0.7108588591426402 1.050183541287456
P 6.350748998523597 8.435371717101473 11.042915424490607 1.2660461636201679 -0.07417504065151742 -1.234942500236828
P 2.383768011993579 5.389842698845257 3.9438433298590505 1.5639043510900807 1.209165134162408 0.4430021031308241
P 5.809866153176859 1.510723617788426 9.107057308392724 -0.8915454477948517 -1.1623648859794176 -1.344383306069175
Ni 9.133931113810632 1.1788342324910785 3.049654642443997 -0.4514186093292935 0.5538099645140269 1.5510755747565286
Ni 5.692300879745691 2.9897167183364286 10.574633616801425 -0.10136137125832222 -0.1199573890929547 0.4646433355496837
Ni 0.4162544582583239 8.102449987262142 7.532904564954748 0.15230366663414416 0.3331864304575617 0.16480437020431615
Ni 2.4289190082797893 4.704328383166617 7.981996964598533 -0.029812712486058338 0.5087675795624076 1.9162138755303386
Ni 1.793689256746132 7.5619613098314336 13.71789844682738 0.3973102575206641 -0.620792344071847 0.8323488828300375
Ni 4.707172023132262 0.5496558969635217 10.804433511846977 -0.6492601124942367 0.9799867685573961 1.4852265374722033
Ni 3.062468853695128 3.6869340671410105 1.186595586456719 -0.23599615985779354 -0.41738157434924245 -0.638463793209681
Ni 1.4390038269717105 0.49073999395251733 12.99483119069153 -1.43604493354123 -0.5432440160727225 -0.0071510092224844595
Ni 6.359505157229694 2.4205100927378136 6.759371615131547 -0.22173013685708265 0.05221293455812943 -0.796315643355564
Ni 0.9684236449340566 4.218178568445773 4.894074248478241 -1.2479031741625541 -0.9361489454368395 0.5621832761793867
Ni 6.472941052492929 6.898304543591701 8.362246060717583 0.9768160841388984 -0.4949003346620122 -0.2218826032745469
Ni 4.447584295575294 5.114469484746322 2.9317468183238966 -0.31505938183954774 2.9407072111405417 -0.036190590987944124
Ni 5.315673435978926 4.9502610079182565 6.519928683568832 1.1112140741372152 0.1274755518468708 -0.09855166972366898
Ni 3.8403216961790108 6.078134959836872 0.43617683092853116 0.2000814482390554 0.5200269545263109 -0.04175394400833454
Ni 7.107157229385366 4.430869698945542 8.20524522578264 0.14004464676113304 1.0606942110107926 0.0780355520481882
Ni 8.06764120629653 8.807663313791904 9.47150965602935 -0.16951720229895323 1.455325636147713 -1.1364669351667331
Ni 3.8614284495873847 9.166722130444185 13.348843719523584 -0.7949303329722631 -0.7423109070043344 1.04353338296079
Ni 6.626187907275204 3.5096429694808986 13.030928525344544 1.4205334681691923 -1.3633809302176 -1.55994356667012
Ni 1.618566082624186 5.58041350129543 1.9209961086734741 -0.39522586418780964 -0.23725651462745587 -0.32127219551847896
Ni 3.179639959210267 1.561693283311271 9.282586850866196 -0.4574712432812767 0.3852124458158656 0.02070997885384175
Ni 5.28398045854003 3.1234616462255955 2.3956925299485277 0.16651363958593904 -1.5665456453676698 0.1496636579081358
Ni 7.6329303046176165 2.810276467038915 1.1617536227964407 0.033799207937632116 -0.5085860596792209 1.4883257452228174
Ni 8.894736883433032 7.351175324259145 3.9619468991452904 -0.3032225371056197 0.09358095598195496 -0.19066735401400714
Ni 6.516918929981431 1.1070675169224546 2.808344105755329 0.6577221272186609 -0.7282444016089394 0.2867345667529255
P 1.3835012304145191 3.7087728466791545 13.336316687754133 0.8644221092154983 -0.15603382310053776 0.6549090832498979
P 0.5026316645811303 8.104965153964429 11.853685980438195 -1.396763105222472 -0.9023682494419686 0.7588482425377253
P 7.662108115354225 4.426946789686004 5.894440510531346 -0.42703478116829036 1.0991913386447265 0.08405527587970686
P 3.1744125418476776 6.010431927783511 12.012018539832297 0.30599032965874395 -0.868288277039124 0.5482047025121075
P 3.5214304671602754 8.66898190200198 5.463615916805482 -0.009167268321564857 0.8040780609098023 -0.3127659578196807
P 9.081356621772523 4.55894611680418 9.355922730138634 0.6429076879136476 -0.09323514260676201 0.1671240194764283
P 4.92762450759767 2.814189991348071 4.832798030446248 0.29302888440206953 -0.2595816604872175 -0.09516449841899095
P 4.0181665059116405 1.5815612232692646 1.1722197194620783 0.5272946918323177 0.5640414124340479 -0.08025415696606178
