# total energy = -340888.3742768367 ev
CRYSTAL
PRIMVEC
9.11448587379225 0.00000000000000 0.00000000000000
0.00000000000000 9.11448587379225 0.00000000000000
0.00000000000000 0.00000000000000 13.33997138265074
PRIMCOORD
 96 1
Ni 6.603444957586952 2.166950768497422 11.491158146037161 -0.2515693317057022 1.132004271409689 -0.5496612324529759
Ni 5.113800742910431 0.4406744507458661 6.025371456397149 -0.06845870699303049 -0.5006701472662538 -0.24765379870137993
Ni 3.3578768257688973 1.7357262166225378 5.002075376050389 -0.493978337068375 1.1356184711235087 -0.18323840853978765
Ni 3.731087675566431 4.622447928254041 4.763303191710975 -2.0741338599099954 0.21972107684685382 0.07375286551243428
Ni 4.028867040934717 2.4839434699189775 2.4619985224733156 1.4051256182545542 0.16985967324003648 0.8168829259839544
Ni 4.649062226771852 4.887570091023246 2.467948458799489 2.0076207066791105 -0.12402641695600576 0.16915724785637318
Ni 5.214187689443023 3.04965225968095 0.40068464432569667 1.2604974658877968 0.027010210040256707 -0.1899009081616278
Ni 5.755852465681029 8.138588685345974 12.546549976658104 -0.16869547772860624 0.3648220550849717 -0.7501016066933469
Ni 1.938341235818063 6.884198463492473 0.47863446117976277 1.8507921555914189 -0.6248557155079433 -1.9254055693319356
Ni 0.8858906497627682 -0.02650310179112676 -0.10057835073426087 -0.051136927885131286 0.700333277020968 0.44358960020317795
Ni 8.446284611257884 8.874483153849235 6.837029176612551 -0.16937656295603087 -0.09282839408664657 -0.3537531988653198
Ni 0.0747442522003969 2.5419936299395034 0.9150241921539772 0.48837281795613957 -0.08638109579940606 0.5859063308279393
Ni 7.3877008877119605 0.6660082372309443 4.6314512173211275 -0.41898414294967196 1.3017790982454032 0.07065700019592992
Ni 0.647064689957171 7.5376615224768715 2.12106844701158 0.3015978570180032 0.15261888388171782 2.462760216503417
Ni 7.868672303049246 4.225657903708022 3.671413314177455 -0.18199862259541558 -1.3570932974366756 0.43343322849546645
Ni 7.810184647710619 4.089013532687811 12.57563065503171 0.3275891388754422 -0.9791534740228234 -0.19835058159087776
Ni 8.442547672082439 7.46456334641083 9.10465035215075 -0.2565672991409259 -0.13499088638730947 0.15338815794757454
Ni 7.280778854865235 1.0130750959776254 0.30886440299067014 -0.81928536477786 -0.4018698518668885 -2.0526615489688327
Ni 2.131768853333467 6.485549083844526 9.058720635338782 1.054644662382603 1.3234524694537786 1.290171853023778
Ni 8.678093328450856 5.279192202124197 1.1424935026605358 0.5995023243448192 -1.2316525166316465 1.3197698783958691
Ni 6.664411753061484 2.111571152814471 6.751466029774948 1.132210216772908 0.5115124892973965 0.6306864632571074
Ni 3.591781874694438 4.614126402724328 0.2362775495776588 -0.900885751359171 1.0103890349983373 -0.21812879265906948
Ni 5.90414514954568 5.741004968322976 4.616790566921847 0.45010631827577324 0.7503121800422562 0.3965456114404977
Ni 5.756062098854286 3.5570465693343776 8.862930543105632 0.14461298285810578 -1.2588820417715612 0.1917011945951602
P 0.5143468394169155 5.820856978362203 12.647226763838939 -0.6695209196258018 -0.5069315547949335 -1.8942348001560863
P 4.091747878425942 6.503969459633737 12.503968921926765 0.39657749311969764 -0.49693304882132483 0.6480506655671678
P 2.4840984161774715 8.886441359210663 1.3485774951491702 0.4888291887672678 0.1577646897487154 0.6327261193949555
P 6.561709727137275 7.820602504972899 5.688016993712311 0.6537531152685837 0.5701606379579083 0.017544436641666557
P 4.772627310678002 1.3402942504597912 12.55555417717377 -0.15049335289828275 -0.5491051028391898 -1.318192763716736
P 4.342359779811464 6.493724777601539 8.19058226955654 -0.1187551412547374 -0.2823762897842298 -0.3322639186432923
P 5.41107881156006 1.3988821651421501 3.8276246632997335 -0.520143168389201 -1.0138217148289699 -0.12348699951276795
P 0.18485544362636266 5.873447561392259 3.561131681867145 -0.37938349783891434 -0.5263665235910935 -0.8409466518013775
Ni 0.9761340850554724 0.31733358319024196 4.22008621854229 -0.4596579665199503 -1.3845333959254993 2.3493884510477794
Ni 1.86918051761493 6.864775494265947 4.346042943520726 0.1966762792122484 1.0376681824292644 1.7158557765911286
Ni 6.588023247623891 5.952023543420357 9.144149799235215 -1.2796506417774802 0.1885194544330689 0.1769114378804953
Ni 9.002723968967592 2.551317748906531 9.842297536272154 0.5173766613876573 1.156403783299976 1.1175803826748751
Ni 2.5657095219748953 5.369580557741022 7.041303943671121 1.3126798043183072 -0.09819248661203733 -1.360214873784793
Ni 0.6544401318614904 0.2377458932390353 8.984590699480885 0.6105246435972518 -0.4454801323576715 0.5624761248294572
Ni 1.6369616485612375 1.2685723617486089 11.187272986635627 -0.8977855151672925 0.5518451274781723 0.5556704147615333
Ni 4.3445199129445875 7.038543165924188 1.2828046313155819 -0.8354619745377224 1.7593621845141958 1.1524735950076344
Ni 6.160663237725565 8.2181490318398 7.965417101058647 -0.6757633009910877 0.17740714656999124 0.14441089414962868
Ni 5.567419586380612 3.306015401602342 4.805351049023378 -0.19643048175002945 -1.2549695940910324 -0.8434226241456958
Ni 1.5238417653747478 7.449269239248883 6.997548943169545 -1.3655403997627644 1.2169064686707236 -0.9063696572918778
Ni 5.172452458993346 4.961834921270891 6.7796133848032705 0.17811291438776422 -0.46115820521456063 1.193061543732326
Ni 1.0450304831705859 7.474525479383421 11.052446044082693 -0.09883037730635237 0.35309962444172094 0.9560641963035277
Ni 5.153494328542303 0.5760172731947276 10.45276118562728 0.11244282588346441 -1.0047385215807791 0.20442764102289307
Ni 8.465033108535671 7.764840080886609 4.3035812885532865 -0.274562707277082 -1.0742842909904016 0.7315904352630368
Ni 7.5440963494472735 6.31319415748432 6.813057167526354 0.1738312562932748 -0.5815778786559145 0.4887489703486357
Ni 2.4680204632372598 5.484295475941422 2.4470179536226735 -1.8540250607064197 -0.05595414676811654 -0.20648400933128955
Ni 2.7123342549392864 5.359937431771213 11.21332674427712 -1.09071286886007 0.326201000278664 0.6821931157768316
Ni 1.2136575848411397 3.7357725212644293 3.935425332576979 0.8515051440435142 0.10315137327920945 -0.32086056190235707
Ni 1.8724161600717186 1.6033838828969855 2.786986450833166 -0.2645287200798477 0.8075122834023319 -2.3654696728803586
Ni 1.42394700107502 3.5734435292773714 7.97057954581224 -1.2739358507808898 -0.6025362260751365 1.147537591158598
Ni 3.825541091847278 2.7238276215252313 7.388956863854342 0.4836774693629992 0.739734661636726 -0.9219937369823799
Ni 4.2993029489216905 7.170384202931083 5.851978390105033 -0.2360655796431483 0.18762008254725107 0.8850613827324049
Ni 8.31613886860863 7.455795211077222 0.4125863398752026 -1.435693206628766 0.7667315019405441 -1.4853707763595516
P 0.4319044925150998 5.745425493932955 8.037118937901084 -0.639816964803466 0.23155432203635604 -1.0745064343035364
P 8.893186078698054 1.7037981728869587 7.74684170578965 -1.3157404455215018 1.0557070422088464 0.31634287653766163
P 1.9412305278146884 3.4477547701812714 10.148063014092942 -0.10845581621125837 -0.37997922244138427 0.5398840984615542
P 3.8937265600704776 6.67397284865915 3.783269018184348 1.503944425596681 -0.667241893783638 -1.8626606248942308
P 7.263980857547315 4.180696145287351 10.327272033770065 0.019433169023947174 0.3060486937005052 0.5394035592807097
P 6.445372430465585 7.8908751904428724 10.380885262106183 1.4532432996973874 -0.22411020705348503 -0.5210805926018058
P 2.684471271867729 8.699430339694075 5.626519735164579 -0.3667933198787296 1.4123470757036578 0.010357946195556354
P 6.6560264261312145 4.290935850963009 1.6899605605548558 0.5677669409147512 0.07706213239132535 -0.11051115607839032
Ni 2.7780223540549924 1.7673534823269226 0.3144661659595217 0.13125070261858685 -0.5209656642904963 -0.6430382999542409
Ni 1.7479122841288095 1.3041097418585212 6.92509880704344 0.5561267855726616 -0.7561357287025687 -0.4473647509748941
Ni 7.403405146734627 0.9410615437210422 9.3947015450145 -1.4056084714282435 -0.7958893544514228 -1.0478988590183371
Ni 3.3093239599454805 1.4974188710586063 9.413844699527155 -0.6266020087750886 1.7601975359312974 -0.5435859727931734
Ni 6.87280535625026 2.181005305591417 2.2056444950377174 -0.2798028726300988 0.8303580776522538 1.6302483257329534
Ni 4.195488955730641 7.142229556314125 10.422306042795974 0.7436566223989515 0.35228612740149007 -1.5265943017857129
Ni 7.468364086986832 6.256839291821435 11.633909222539197 0.06443235944245677 0.7884321268424292 -0.7423276191748829
Ni 8.097154232927494 4.08719975001485 8.108661271242129 -0.45309239748729063 -0.24912524104058384 -0.7377577404160133
Ni 3.234785695124023 8.583448507968342 12.106623825195905 -0.1294802409817254 0.8319117952926188 0.7626568176505382
Ni 0.2763211314640115 5.371995896476371 10.254436354894882 -0.5322962588119672 -1.7004191303210845 0.23818134043457045
Ni 9.009933527230464 2.3669772737275165 5.67835928456523 -0.15173288173233868 0.9304799200765201 -0.4829896992673553
Ni 3.5794590899012597 3.0341758628031275 11.482140273792803 1.3802514807206938 -0.8654217541246064 0.3577664337897709
Ni 1.4494857902691656 3.661325401300909 12.466456432745344 -1.2153810331651327 0.033238964558787915 0.1380175890287752
Ni 3.4255245393302642 8.763049450534595 7.876039541916351 0.702994368792899 -0.8665458404267204 -0.02675695637887005
Ni 5.768330196732701 8.178418988264752 3.6452137247632606 -0.2964885608158958 -0.21443026076155974 -0.6446665795862832
Ni 3.5233685443263942 9.108369973803189 3.416727237642117 -0.1967189595247257 -1.184114104731051 -0.3670195769569228
Ni 3.60307472259292 4.492028751030975 9.119377538296327 0.37333909141704735 -0.03375781317673541 0.015933897621437074
Ni 5.192194435222654 4.861429745766712 11.162487965416625 0.6054253746974735 -0.05141177881307274 0.4182012420370604
Ni 8.245829725195483 0.20280460050003554 2.178750381806038 0.7462279826705537 -0.35864420840903394 1.5259456124581203
Ni 4.9560381083060525 0.5471243532284741 1.2186222452530067 -1.3634956014185937 0.15100680219959156 0.7042477815840258
Ni 6.132672651852896 5.90317901405154 0.36999981645238783 0.502058028752716 -0.5708532931495588 -0.708542809414954
Ni 8.31466232191004 9.000080768087399 11.523573814762706 -0.950300297236557 -1.3139717836568532 -1.04956827630096
Ni 0.29705294085052253 5.143340791368043 5.741910036762298 -0.06739966960089683 -0.37604260639113946 0.38772312805286124
Ni 7.202257559751899 6.303095307224822 2.779889912194136 -0.2082318452603317 1.0973748542612778 -1.5017929264713168
P 8.870937618875459 2.083170415081081 3.3878589267875068 -0.49904058208263086 -0.502939917137037 -0.23274731390319273
P 2.2736358247135096 3.421532394552593 1.685358656677581 -1.0289788821853827 1.2804795654366787 -0.6650333161680934
P 5.240519438901227 1.2857258240124854 8.209444697906749 0.25543035732300523 -0.5636544614082744 0.6065715724867747
P 8.635674511566647 1.8255221306627678 12.144843598474926 1.7364749955033774 1.4269298586138393 0.815390400598828
P 6.432192884007791 8.20642780310901 1.281825735541331 1.4104624570864353 -1.7822393462226855 1.272506831643847
P 2.2141091179943926 3.4396064198816405 6.018247574300737 0.017661678945821196 -0.3221975355462257 -1.9814594749027101
P 7.134682762076882 4.143481699791385 5.880925996986049 1.3046530773590885 1.1125075961376583 1.0559435836996847
P 2.4661611081353305 8.741265829487482 9.929648033773915 0.6939759673443725 -1.145990301276136 0.7705719587325568
