# total energy = -340866.764368721 ev
CRYSTAL
PRIMVEC
9.24877211924006 0.00000000000000 0.00000000000000
0.00000000000000 9.24877211924006 0.00000000000000
0.00000000000000 0.00000000000000 13.53651287671977
PRIMCOORD
 96 1
Ni 6.277206242741476 4.562557919158063 10.356461261384187 0.21976529982122794 0.39390688826607 0.6583708165462532
Ni 5.111879478507514 8.139927404746022 8.75985593867852 0.4888780397273322 -0.5103734905969468 -0.8280713385006062
Ni 8.552274651976985 7.558605094557276 0.3914681446241119 -0.97545185680152 -0.26034244991264194 -0.6755460427739591
Ni 5.741276905130552 1.3722680359187118 5.443302746079928 -0.251320963140322 -0.5772915925757348 -0.27568576513793164
Ni 6.4313832706290635 3.7009608247398376 2.9752716590378525 1.4472413164776818 0.7073855558820591 0.3684768782287396
Ni 3.6138466420359876 7.894862695211685 10.59988801341169 -1.932090180440963 1.1357858499393085 0.22232380457702355
Ni 4.202373745549534 4.612584526467239 2.2153315162887104 -1.1271274029333622 -1.9766340284896085 0.11204276223156834
Ni 1.5047012010250318 0.6171539023568371 7.470043479048123 0.18596583477327971 -0.9727275158918215 2.402884366083391
Ni 8.412238996353354 4.092276364627288 7.126472874437463 1.7169508094275205 -0.3042378657440115 0.5425001959281626
Ni 0.6026361050757845 5.038851175436104 4.666009132579407 1.7620443593320494 -1.972180106483313 0.7606554709497932
Ni 1.589151737416247 5.078343431529685 2.258350329114957 -0.1955812463758567 -1.8401393038632632 -0.14870746464245357
Ni 7.470418054310837 6.837469099270952 11.697577583725755 0.7935766471578461 -0.16890450841561877 0.048473265010039096
Ni 2.7229956820383716 6.719417774498477 4.5280720233041665 -0.6043172292349592 0.2252551192912056 0.38006149774254544
Ni 0.2659364131236536 3.2123482042658598 2.9568342322175822 -0.7787958893042458 0.14894863411898218 -1.2898707768435915
Ni 4.720563938620063 5.9474875238337095 12.189332012020573 1.2182161886210825 -0.5540179667597749 -0.7696016243994874
Ni 1.4959333652459417 3.086037726169833 7.60691050541235 0.37041420446076856 0.4519035193855121 -0.06466710116108217
Ni 3.197152472003154 2.0699398968468596 5.905763539076105 0.9057978439488077 0.47580372304187735 -0.04046196466978838
Ni 1.510102483825653 2.9627238501755193 12.332899773640023 0.3691690191997578 -0.5300552852965904 1.0995656912650096
Ni 0.5622726146674458 0.7562785539464606 -6.011701747266434e-05 -0.9879610450121245 1.1186635884367249 0.44897246178164607
Ni 9.205210203133554 1.4599463937096129 11.229106013859502 0.10037458186502068 1.3883530267819055 -0.2367754612259793
Ni 7.470177586240947 0.018503093100894197 1.6626082586274995 -0.1250250334238492 -1.3104668558273882 -0.3147850451322385
Ni 2.9624463870179536 5.86995506883781 0.1770871608078233 0.5959973965153542 -1.1657553997182053 0.23635225764563164
Ni 5.751302573890609 8.218578961144104 11.175460362098473 -0.41639967005194745 0.7433159512300812 1.3431247510717255
Ni 8.287639541062317 9.01535141318296 6.16904925416781 -0.2157376667190736 1.3389425946695779 -0.8081774277901566
P 1.213762582773093 9.290206417067981 9.929573094942372 0.9128326393084021 -0.013797310894408494 -1.5588703882105992
P 4.264053805476488 0.12228263792535872 6.961747622176403 0.4163595608426313 0.27534689374127413 -0.06388805690321255
P 6.844803375402616 2.694722186282382 6.654305495312429 0.3015626329046936 0.42057874113030147 0.5767416336095358
P 6.733374171324054 4.931546923633358 12.511703506515989 0.96711376924947 -0.04491871488956135 -1.0987863898968238
P 4.802424818873994 0.8491389986435055 11.586022596349094 -1.0538741027651657 0.6200832338199643 -0.0711683926147097
P 3.8391189796639393 3.5155599428541406 13.461994473881807 0.2823994297126814 0.6235740205820423 -0.4602562622255815
P 2.9409984849380906 0.2521973624381701 0.9743285255829656 0.10389622186503397 1.1933603059196674 -1.4757584500807681
P 7.19143809815 8.008197146305536 9.681151081201484 -0.7262556533136848 -2.3092327047645003 -0.3127320192579517
Ni 9.571184107963294 8.47538036224349 11.629042334052533 -1.5247734465268903 -0.06925189231828718 0.3602164379921603
Ni 6.83083772980512 5.052927806296627 5.746858538983591 -0.34903265346119894 0.15615800738322785 -1.4827366811708143
Ni 8.544440942161701 2.503022890719934 4.993226983560311 -1.4270643273091745 0.5359204858281157 0.6408778019678123
Ni 1.6224195700084274 1.4693061508915108 3.6972141472355027 0.5347619467436403 0.8934650334150677 1.5575349572286272
Ni 6.035184379168449 4.2601138286390485 0.7745162072932832 -1.6634206987198643 -0.9844144653114467 -0.8165293992992776
Ni 2.433583111153047 0.40719845590372844 12.326118574069106 0.8514879176523334 0.6801881695316608 -1.3276554517915329
Ni 4.254481326540455 1.7921345347197184 3.379241368664703 -0.11960360529796177 -0.668415345266449 -0.22896933491799923
Ni 2.3815402715655574 4.962946504297927 8.790543363905336 0.0616645668893325 1.7761131787202895 0.17208547724676168
Ni 3.7847269520090565 0.9712967781479594 9.00696555168412 0.2703211583919086 -0.8577578098214453 -0.34962066475418496
Ni 4.051785241166469 8.16329905138501 13.096778968349412 0.37137553993277334 0.3774502853719435 0.16801490672181385
Ni 2.1157768104767865 1.9546354573342895 10.292000095741226 -0.34850891974724496 -0.7556734443541695 -0.2571403980355765
Ni 3.057311040589818 4.535986197435145 5.835766983439702 -1.8172950522752382 0.9201268589769701 -0.8658488143596959
Ni 4.893700948941336 3.723370599099263 6.788371993539623 1.0061749969169898 -0.2549680729746061 4.986255288993045
Ni 5.064673746633593 6.523242073327294 1.0556095078375833 0.46871236341273476 -0.09646059152259516 0.5874765035285366
Ni 8.624590799610642 6.821866421043815 4.838938045532506 -1.9456681762357138 1.039562314128184 0.8069422698314748
Ni 0.813321279633292 5.040404969118475 13.37801377510407 0.26070214724490587 -0.2668378278289985 1.4352468631199669
Ni 7.311764620814516 0.47523704652490617 12.840045083285036 0.5996671320574576 -2.3157684490004895 -2.6845368903277187
Ni 2.3172243116417253 4.975848541124751 11.451389148403274 -0.4329673446026414 0.5129193969472521 -0.7393975900122814
Ni 5.0242473645762065 3.684118811075573 4.7477285066229795 -0.7195101070597351 0.3000557093418639 -3.2173275722776014
Ni 1.7368361274167863 7.276508302259779 9.024914643347072 -1.2699884360973674 0.766667481471828 1.163721400007312
Ni 2.765068345497318 8.806097948518493 2.8671683133413155 0.6428318403703897 -1.8601861952118093 1.789178753654996
Ni 8.680703098842436 8.30852326805513 8.37994043505827 1.2279030768915433 1.683742698106668 1.2857636966537533
Ni 8.624535306979128 1.8511139532463614 8.260129068989635 0.35944639259535516 -0.34402183051016877 -0.30538123531983535
Ni 7.224992642671665 0.7195433567618952 10.325245731280802 -1.4384026351401293 0.9435251832962525 0.2047883667964215
P 6.8144396571929615 7.453446557839708 5.843645087360198 -1.583337520114028 -0.230164640777681 -0.0329815971323432
P 1.0453516949023631 1.8779261430391698 5.903327412552674 -0.011899579651063377 -0.4896555413233051 -0.49856518510810915
P 3.073255923377952 6.46345801164371 2.4160779605421987 1.5477961326743084 1.8151013870580288 -0.5118192219045379
P 4.890667351751946 5.600020411613629 7.9444573848722495 -0.2849538207034189 0.5970083542783717 0.6686166626439775
P 2.808722548954391 3.456691509590524 3.8819195214729008 -0.22548034792813423 0.2546196884962518 -0.6567453651276882
P 0.2728961139926044 3.002271598900614 0.6818573858240697 1.0068527397103046 0.35069538587560245 -0.00937655611889353
P 1.1395781832118252 6.726132382911577 12.151768124872078 0.5220390998603333 -1.335827960299996 0.6666844786182711
P 6.266015228719643 7.974605606696194 -0.05254967228864373 0.4473616656511005 -0.6423721271251518 0.42234843143621453
Ni 4.477876163468876 8.552774085660605 4.727370109875159 2.3786519758985873 -0.5655064270153486 -0.6488204538536568
Ni 5.237403810990437 6.154928229202078 3.626106814091644 -1.6787668421586315 -0.20725482605904302 0.9710627265948889
Ni 0.6618966862687614 0.07591207015571298 2.140081658202389 -2.1053007724311033 -0.2425031077383759 0.9619522796531884
Ni 3.941872835682601 3.1710061937885046 11.050829460982913 0.8418064286985116 0.08467285485904773 0.8704426043779655
Ni 0.873688013947766 7.688642827736609 6.759471431047532 1.2787124462339268 -1.805845672787716 -1.5033420161259916
Ni 5.584815430579004 2.610743337259029 9.087209746606632 -0.16369725318306647 0.3986215201329199 0.19422987455428484
Ni 8.557537203198825 5.572440573751554 9.20018534535003 0.17196720650134256 0.05736491107271411 0.9105885804692317
Ni 5.0516329782279845 8.734854658427427 2.072832912703083 0.16704534371969296 0.18450364840545644 0.6606030483108817
Ni 2.576541378703043 9.141375179349502 5.468683225979695 -2.396788280487982 -0.6961765745401172 0.07491011904532906
Ni 0.5481580638420561 3.533484062832914 9.819832716616196 -0.9089700710292022 0.42851702214077164 -0.055600362973123596
Ni 8.84907699162549 4.932795507842405 11.466035503614 -0.6234909739499327 -0.3293575436297747 0.14821792660054472
Ni 6.949351493173539 6.927737113199138 2.5985368080805027 1.5093103178942844 0.17397189563619717 -1.7753855565256456
Ni 2.643308263185376 2.541118582253765 1.519689760796755 -0.8700708228608435 -0.4374829730848079 -0.4141119024590353
Ni 1.5412430988764931 7.548949376673975 0.7938701874107136 1.412485401053735 0.5061339985943026 -0.5067649473100821
Ni 0.17255988695353572 6.826685031213548 2.6115183843458305 -0.1637566456660922 0.929139861108858 0.06376361551020632
Ni 5.245607471682475 1.2043195866439254 0.4037209176622327 -1.3271353176220047 -0.39739510392498656 1.0826396049336324
Ni 7.63586008639561 2.080631477185075 0.6250264570141804 -0.03680148509906565 3.058103267264224 1.7705115162627958
Ni 6.885322245179192 8.755423927174997 4.026300250144018 -1.2511137106800518 -1.3306692989171922 0.9436465393654652
Ni 6.536994997170656 0.8751271228583423 7.83961700590869 -0.5129667052454198 -1.3482052509184264 -0.5408834862603459
Ni 6.042074714248008 2.5182278717545583 12.324101416913601 0.24038426162316023 1.721578538007519 -1.468712084756948
Ni 8.171437970673617 5.0601418483933465 1.1243916997210384 0.1649905180731933 -0.1193125564201042 1.0512968289562927
Ni 3.2047364649766283 7.3873178386197775 7.322860372485587 0.43992166443328756 0.14253424595220612 -0.3959192907104085
Ni 8.144977234213725 6.4298017306309365 7.226751759090634 -0.1232982805407296 0.16044583612530433 -1.1723045136906325
Ni 4.763413498920195 6.438551068866189 5.930873954835842 1.2291431199462315 -0.2610698149969697 0.021065562421047592
P 7.659749664262055 2.8144752850879295 9.937938609142991 0.4605599095089294 1.1796265012733427 0.41786159930945455
P 6.25832949925506 1.610164947215923 2.5949085148567295 -2.841731566505577 0.3646657320127655 -1.5368290921398435
P 8.038107674691165 5.245422496244098 3.421299234088579 0.027307943786333614 -1.2079410319473196 -0.2295126090159789
P 0.818321165732634 8.226468163590901 4.346858060466143 1.5247227957946128 0.946515376272828 -0.5801843407424975
P 8.04536796064748 1.0829572015244944 3.456399248397888 3.8904943161861065 0.9022016419571172 0.6883244254855501
P 1.3153048496703827 5.300452689161383 6.9188767897008585 -1.4222792472157053 0.9710778961035404 -0.37937012810247567
P 3.8732839431322503 5.904471485639039 10.207586554437688 0.4731827404792625 -0.719482082035277 -0.9200656667217316
P 3.377198314947824 3.1594359801179963 8.871884463177427 1.429672711466299 -1.7231484535978001 -0.3411676488908253
