# total energy = -340895.3739196129 ev
CRYSTAL
PRIMVEC
9.03176747272812 0.00000000000000 0.00000000000000

0.00000000000000 9.03176747272812 0.00000000000000

0.00000000000000 0.00000000000000 13.21890464139006

PRIMCOORD
 96 1
Ni 6.101627268972892 2.28240892265669 11.46194061260764 1.3550199598474146 -0.7405293896238795 -0.012909766083132603
Ni 4.576613333614111 0.2821280296297473 6.176758026575983 0.1325791916220233 -0.4890698440231641 -0.016401838396791105
Ni 2.7297884919434043 1.402633486296823 4.901040742958749 0.6872479045919196 0.8646275403580851 -0.5799637400912592
Ni 3.3624728341750774 4.3072589327008455 4.894431295532658 0.4053128161101665 -0.34435427414892306 -0.3154545603954374
Ni 4.741885646336233 4.502173506221591 2.7021160596274685 2.3421451392218047 -0.3931422421859036 -1.0053162484611202
Ni 7.3169328664140645 6.383030047675725 2.5060264531603793 0.7370643138934145 -1.6057045749553185 0.312768528922842
Ni 5.247836227590977 4.534651742002167 11.664731790528895 -0.537154615345533 0.1972781744623054 -0.7240257355419014
Ni 5.735822623370869 7.865784343096432 12.306297972879205 -1.155553005263907 0.5409081688506943 0.37590170993790095
Ni 1.5801348121576826 6.680906770222768 0.6687942517072898 0.418066516231409 0.3261287522798319 -0.8969301091455326
Ni 2.6731954370487756 1.4705162505145108 0.05569168450227606 0.5897089924034811 0.6849704214116525 1.8163350023548137
Ni 0.5590727279150919 9.313197332452237 4.724317955452808 -0.31003030405607246 -1.1877905251413738 0.7964328856597186
Ni 8.461131358654885 2.4036423372514237 1.39311400339562 0.2827971793717323 0.28840526958712914 0.3107527840443939
Ni 6.980960148727294 0.6009593558571316 4.938714954558169 -0.6452291369579727 0.49329570917905363 -0.8941787716526407
Ni 0.6444798305324045 7.8055334223811315 2.6860024833048537 0.4374030117764918 -0.7928960761510538 0.1567449902349494
Ni 7.787424728626946 4.027834111071411 3.561001017855947 -0.11379959702167497 -0.328266367448125 0.6094211261204279
Ni 7.621167953251852 3.9290536703783765 12.803884234290681 -0.20907490998691733 -0.13784866755107872 -0.929631970253928
Ni 8.052317436415738 8.569539663458626 6.88646799122353 0.2460257761796537 0.7362053083272289 0.8756033226432984
Ni 6.8240331891367765 0.7986259089224658 0.46059033554818546 -1.2059376283640457 -0.021115441822376537 -1.2111032317253851
Ni 2.0511956757204457 6.371767433655042 9.252797387573871 -0.9062830111153423 -0.3967996364328328 -0.1761244232028257
Ni 0.36975785021858376 4.809912918833256 1.2872914936152338 -1.2231768750604677 -0.5373348496771392 1.155168111120662
Ni 6.422137600770801 1.9104355798805488 6.927551695038514 -0.6588744956555491 -0.2313308931716403 0.902937234571561
Ni 3.4201948600020122 4.494469408579535 0.24667563282510518 -0.20374089936851364 -1.4071940707478088 1.3743577409440784
Ni 6.015346794442347 5.568147860504801 4.6715480477233395 -0.2825444399309779 0.7216862887754474 0.3711742225552446
Ni 5.417624424042322 3.0127176393467163 9.168988907796702 -0.255375849935986 0.2338469747252747 -0.12995820905940844
P 0.16502574547050652 5.571697345115971 12.43585596754039 0.16903897711095406 0.37720500213035685 0.6077612219195017
P 3.9861615360181366 6.264722925737528 12.564251573729672 0.6718912196301912 0.055974715593406825 0.5132536403582193
P 2.3744065059884307 8.678796954403458 1.4247071259652677 -0.018216523008026692 -0.3586712049922275 0.20894789749074982
P 6.316556239181555 7.741091761565112 5.861076980838105 -0.5621187414900384 -1.3782059110455749 0.00579835184933195
P 4.7051353845478125 0.9972516356918869 12.60734484580416 -0.05815398263291274 -0.27227005458816333 -0.3473377822572792
P 3.9949313822202885 5.8793645035879685 8.273883852529616 0.4132778365935141 1.497864280840872 0.27741046113852225
P 4.870651554991312 1.0388971154427862 4.036881232534538 -0.7149219734684203 -1.7420578889077933 -0.49918533519061126
P 0.2861643265069273 5.709224068205743 3.4124338622249684 0.39073697517852063 0.2602768867820292 0.2836201894936599
Ni 1.3439269978169175 1.2643029359032485 2.63348365871073 0.7636446354851042 0.07380737289945354 -0.779366159985419
Ni 2.002089956048869 6.393651406206859 4.787622516745809 -0.7757337054391543 0.6163152821370999 -1.1057715629654052
Ni 6.003551306141615 5.472853682050727 9.117210688134172 -0.39890536992192593 0.14427539701302894 0.14349660986547544
Ni 8.739002716281467 2.2111031185722503 10.14680508309476 -0.4201213418779087 0.5699814320675668 0.3811094793910856
Ni 2.3939873778383443 5.154917403978474 7.007063763035697 -0.6562257451787924 -0.6281567548567182 0.257449187525247
Ni 0.717906293616087 8.87913962016673 8.951353116880744 -0.33218755687940216 -0.6168076483924861 0.11007869652666204
Ni 1.3347416903116769 0.891554667479173 11.385826295528323 0.003926588747915818 0.30797779240241796 -0.7528722274599485
Ni 3.923246243902595 6.819345701825843 1.5579934342332997 0.8421476140880142 0.9554515024201932 -0.13792194399117536
Ni 5.793427236220845 7.709715401414467 8.04612254711599 -0.8237284881508781 0.4305489649691359 -0.22845897094048398
Ni 5.271752347820946 2.9193291638263736 4.846923295524481 0.27061709236577264 0.6310307339704034 0.5395783942956771
Ni 0.8537106586515341 7.091554141255977 6.7642853378689125 -0.2163421330722919 0.44634916522618606 0.9497567660282612
Ni 5.023026503782772 4.560563882840451 6.909045603516155 1.0601316536391032 -0.3040710011488441 -0.23271388956209596
Ni 8.11122262377973 7.001769340951555 9.050151621108697 0.4396005336484429 0.5163762451476009 0.05070549677466751
Ni 4.500791645800448 0.3441031147528649 10.335174334738367 -0.23973608651620001 -0.7054492580912948 0.6947712095521583
Ni 8.121627219891861 7.258244441469076 4.724185188471168 0.37803444001018766 -0.49594754497960397 -0.1367816597391451
Ni 7.27857495001804 5.80299187795934 7.0416445942806 0.1792025479075172 0.18565113174633832 -0.9962945045784842
Ni 2.4982681649135734 5.097150219314247 2.5452604509998733 -1.7525593026597495 0.3670224051704002 -0.13212204947994666
Ni 2.5398233269898887 5.006552559938565 11.329698376657804 -0.40946669037754 0.5212561989477216 -0.01624294422142364
Ni 1.1466370694546009 3.4438309954407678 3.7702824238728443 -0.16615342803304287 -0.12600230973545395 -0.2659777938215484
Ni 3.655653037643726 2.437963053593523 2.874662557860624 -0.9460692898743449 0.4133230880091527 -0.6974708678715086
Ni 1.0962217435015493 3.289171009482321 8.125858602946144 -0.11692194470074058 0.36118677232522955 0.21704558689721976
Ni 3.640407414173868 2.6912318766632946 6.951266406854158 -0.1946872738066776 -0.6470870161023179 0.46044035321192955
Ni 4.000928475812698 6.711217381813315 6.093333396915799 1.1748195668030024 1.0726110170530365 0.011375074606161054
Ni 0.6732658797759669 7.420003396649862 11.416334702826209 0.26061138730331246 -0.6333275004243802 -0.44288923170204364
P 0.2231198801167295 5.365664665853877 8.097147517372488 0.34761597561933033 0.3243140676685963 -0.7125838122535469
P 8.506028274690825 1.37973795578966 8.052863858346974 -0.339891353281563 0.7804753338891978 -0.6296027432746253
P 1.6776959642438274 3.10266501146539 10.406569553320645 0.5245690653710385 0.07329032405371894 0.2804127382999558
P 3.937958993092405 6.1191669613771955 3.827018180693317 1.072893324180146 1.5824582028328682 -0.2806721626089295
P 7.07298482736141 4.018025611611538 10.351817172634046 -0.2301232460167843 -0.1541276072167604 0.23425140925254495
P 6.367928932485202 7.832655820058848 10.151880936406407 -0.07941623444579872 -0.0010978610498690769 0.2628965837930633
P 2.361960730430691 8.406967849206579 5.797745324242729 0.3893642632007101 0.23946200691920694 0.6235310831592487
P 6.792142018241001 4.015930241561178 1.6407966782923422 -0.6031617754742773 1.036557208753273 -0.4213768115515646
Ni 5.253562368159632 2.8103608894402106 0.5173179637779454 -0.6768447069807246 0.5662739013089925 0.11731532348441732
Ni 1.4948026732102753 1.2413622465587932 6.894227182647081 -0.5370468861230752 -1.070768050307027 0.7460876004379473
Ni 6.760539863903894 0.9571325246414651 9.515099784455582 -0.011350134905496584 -0.8869182334354854 -1.3769036472943834
Ni 2.55528571287875 1.5231624230297987 9.204376275875646 0.6680805876348493 -0.5111041981153843 -0.5324844635633732
Ni 6.208771126332448 2.1283901921877924 2.6854994138574177 1.117988159636255 0.05572120482170404 0.19893910710449608
Ni 4.2543237436268875 6.763872586096061 10.510338239180982 0.2303451322196033 0.4907444035121097 -1.0913415035830043
Ni 8.101197361900853 7.443603405018784 0.32605854654763367 0.20496680135581474 -0.7555672577936084 -0.4387692959963992
Ni 7.725530026234209 3.5605756216086544 8.236553751270362 -0.3282619965727508 0.32194299633325846 -0.20521234170771757
Ni 2.8471472782984653 8.17827446539124 12.452723696445787 1.3886253066066858 0.08801965984409357 -0.29912676976969127
Ni 0.2683012968276108 4.880053624915556 10.30358121216872 -0.4711675098214467 -0.7407078241832727 -0.1382952681701941
Ni 8.505459273340943 2.400968934083724 5.877614147054522 1.5400038903233992 0.024545036329215793 -0.2814460646604766
Ni 3.6176925190158733 2.586327897633432 11.244516165050207 0.3615158735298742 0.18014460010581232 0.5242327650775422
Ni 1.0334058008280504 3.3382135067816883 12.608389821299104 0.08168549009594965 -0.18239740069573102 -0.4948766805129283
Ni 3.1676756736312917 8.25441226506595 8.13720069652046 0.6164587496934996 0.3295853433698646 -0.6286457786779946
Ni 5.720902143529515 7.948343729434097 3.528284343414469 -1.1229128506313821 -0.026875998455237585 1.028587560284235
Ni 3.076138710439931 8.405829846506814 3.546962941695283 0.4714886406062912 -0.41208150229256774 0.1365821421338293
Ni 3.2746659909440554 4.041119841002787 9.175387011864268 0.131620941473812 -0.07073901838677495 -0.21852834209033334
Ni 7.304478059088866 6.078885278512522 11.200497136811226 0.03528196313074569 -0.037116188126007046 1.098360615213315
Ni 0.5001494770161835 0.2744383828156255 0.3440046684875679 -0.37874612136523156 -0.0623983597315635 0.45795898155097264
Ni 4.624987480121553 0.4344253052210645 1.7258208339694163 -0.4235115985063803 -0.46993415163497776 -0.6066844439155551
Ni 6.177087686088217 5.777648738470939 0.2746560484113741 -0.7509289876906486 0.14496265288804067 1.2302072995446875
Ni 7.842879780821811 8.822528501737184 11.468522964731354 0.23037701389880325 0.6942652164500173 -0.39967747220126004
Ni 0.2940716389167976 4.935346105296168 5.6719282876628325 -1.140334131431623 -0.5439505552214439 -0.09538638462180993
Ni 7.754070411402901 9.115672578136 2.439363880726328 0.68856019564544 -0.13500477034438038 1.0998991633450284
P 8.476413109194578 1.7839095495551645 3.662284161311718 -0.5235357390105178 0.6051469242251062 -0.3874202521004618
P 1.9236761509746323 3.201924135833723 1.522037967981222 0.19919056099366986 -0.7229808392171548 -0.2240112195817755
P 4.716822491639043 1.152968338442972 8.29611825765882 -0.30625515328435643 -0.3561998606335995 -0.7485396615228657
P 8.249182871707509 1.7687994025971825 12.327448565913397 0.6400450216538719 -0.06472777919568853 0.3604537508139469
P 6.235956746382374 7.857375767592618 1.4135104438470312 -0.631903109273028 -0.2976211317584423 -0.938995670857015
P 1.7603547000235344 3.2467217024276205 5.87276318475259 -0.21004832964378015 -0.8178830851136947 0.7392296969758494
P 6.984247712082169 3.8699949429675913 5.813198678364132 -0.492658589815687 1.4171226427154304 0.7529940977497934
P 2.3980968320319374 8.256896001117022 10.245114065526463 0.1753950012359689 0.9947623842046739 0.1518506382571256
