# total energy = -381164.6111176292 ev
CRYSTAL
PRIMVEC
9.30491292653974 0.00000000000000 0.00000000000000

0.00000000000000 9.30491292653974 0.00000000000000

0.00000000000000 0.00000000000000 13.61868062300066

PRIMCOORD
 96 1
Ni 1.3143561608556382 3.2102042409514495 12.899859427364191 -0.4870965223468772 -1.1332736250404158 0.32563458625223274
Ni 4.096767033156728 0.31198349272737486 3.421638845334381 -0.0629038386130723 2.204226537664739 0.8053669549245548
Ni 0.36442877306938737 1.253353152158047 12.004594680654035 0.6560095154029282 -0.6557776018977803 0.4473850626898682
Ni 0.30904314026422064 8.12196998152194 5.902717558656743 -1.0031158983756918 0.4584338643048621 -0.338931560471455
Ni 2.4697378855309307 8.781288191907118 5.714915571950771 1.6936545579037412 0.08697090686460505 0.21450430853260477
Ni 4.331539289479017 2.6273258896954226 12.90907873502398 0.09627161544024065 -0.3937906744031799 -0.4508701930249912
Ni 3.9714391618712095 2.014364755169213 8.919010207119603 0.34940366364737246 -0.4209744339068234 -0.2965055300967603
Ni 2.6210264636905 0.7991543017990193 12.291880143182201 1.201621774597511 0.0619180776610353 0.2366952428073472
Ni 0.5861936917073622 0.4103326996721676 0.9568158147750897 -1.0894162615358334 1.0969359669516463 1.0683396433711922
Ni 1.7049950124636737 1.8976346233645633 6.354735337441837 0.013848475847318084 -0.9000331735508886 -0.3978697295685599
Ni 4.101037988158588 5.602180969727382 5.533542349538447 -0.880918821318941 0.9627683477965807 0.3517963322492651
Ni 3.029865724848946 7.4210495057482735 9.585495061388075 0.18944942244650598 0.7203014926127788 0.5738797386807084
Ni 2.934592722095035 4.782725209054598 12.622936846286072 0.40692695467482176 -0.4163145665373088 0.41779732173042244
Ni 6.110331565820145 8.221504634364852 1.0007917634336752 0.5335751255243908 0.6330433935250581 -1.0233556224613345
Ni 2.5821505377694294 1.7651698839168954 0.8531655989750471 -0.7581525020222813 0.16017381341084028 -0.17914932607207854
Ni 4.9908854146027695 3.06338202096376 4.537853400316145 -0.8085870045237494 -0.4857258672515957 0.36564712208942834
Ni 8.59825125107577 8.31329759970984 13.170871527794857 0.5000443407567968 1.4546111265791917 -0.1330648730091902
Ni 4.668805160933089 0.7804672453061314 1.0250906128712727 0.3611178667605071 0.7365400659588283 1.1998988783691333
Ni 3.7400445889164047 2.8678578870768647 2.518706850429163 -0.4055588706827016 -0.9029290070414449 1.0734057450401902
Ni 7.8818101806548215 2.916289958503186 7.957272093442588 -1.263072939924457 -0.6764850096484608 -0.5190198534180351
Ni 6.335650030678622 2.0212969152484845 9.795589758319444 -0.8016419406644839 -0.03282038896413057 -0.09966392895124125
Ni 5.68110524058964 9.048022823896922 5.529811079482356 0.014131297195059534 -1.0306776100440442 -0.9747412038877405
Ni 7.232978607060703 3.8789483280618655 4.030584909962327 2.474881682357299 -1.4578877404479345 -2.13958848996938
Ni 4.266451424036727 1.7224882486368693 6.368380992148214 -1.2043384021977257 0.46888282755232796 -0.9031161833515866
P 7.635369563608497 7.822779813483144 4.689538367763469 -0.5639848481644997 1.5071624183133463 -0.1444088372670997
Ni 9.134893490339984 0.8257440207822768 7.744657626109252 0.9228242033034751 -0.539094255570407 -1.1416168547987888
P 5.719553140519239 3.362320956355388 7.20030533605083 -0.4649554674734637 0.05907032379959503 0.3399761996858855
Ni 4.814799243676409 6.4076979709387585 13.002366999865261 -0.5656771482652582 1.3384157756318305 -0.35788187632171264
P 3.74802820414864 7.555291483551835 4.2955637048958115 -0.13489986933539996 -0.24250876416533076 1.9636592134964954
P 3.1528115384427946 6.520231587044412 11.486267301368384 0.056507448168425255 0.44774501713244824 -0.06316583402520735
P 1.7413772217387775 4.135456860820637 2.010471579629391 0.21421943030233428 0.48667126188400056 -0.2748622407953718
Ni 4.975578832951223 5.09256019740304 3.6150107528772017 2.292678399950245 -0.7574886431860374 -0.47818713567238935
Ni 0.9068093520931807 7.905761026351526 8.280021370346764 -0.1406480846730868 1.4032304581143702 0.507998562606867
Ni 6.776498192068873 7.5634705019540895 12.115994958373575 -1.0259670919422526 1.1542409713207027 -0.9266312357543912
Ni 5.446891279038836 8.7246864069914 10.057381620599035 -0.3649251563217393 3.07209598199889 2.147069371727457
Ni 0.6932690459304651 5.404479486231695 13.388797239387587 -0.7514051559961188 0.6290283588283941 -0.3565695852681924
Ni 9.057997690480788 2.114913643513656 9.827335329517366 0.1415132608868595 0.32663911625734715 0.9287683367020519
Ni 6.813708538588346 1.9724275129178332 5.490234493623072 -0.0022661703263573874 -0.3005501324797792 0.46096177293303836
Ni 2.5913996211503645 6.410005589327563 0.8842635482380459 -1.0043353726050896 -1.9661781232636073 -3.4757512079009754
Ni 4.831557391733816 4.52299717644693 11.241675570506962 0.11279866656098637 -0.039673664440538124 0.3607586836488755
Ni 7.58434142149477 9.270801047545143 9.063926780953958 0.12509471031952002 -0.7816580413433893 0.7459423331093347
Ni 3.4243288956416524 7.757189482746518 2.197373781261987 1.969651940744821 3.64218874283334 -0.345042044244567
Ni 7.809296994751781 6.547308883461434 0.5736022836278046 -0.754026652779366 -1.2715138716029586 0.6093388508192666
Ni 0.2924776039029757 4.321880789932327 4.041330223330841 -0.16342368780670566 -1.4530337547897427 -0.6627118671237683
Ni 5.532570916636063 6.568477560213571 10.149744046610937 -1.2935058024930175 -1.9701733604659297 1.0836253658856692
Ni 3.3091340744585866 6.33449622148422 7.579013428392231 -0.37989411892674574 -0.056956877001018036 0.30929882520668667
Ni 2.480233827234848 3.762720661551553 4.976579111083466 0.013804767093576224 0.9090032382599829 -1.232167508594852
Ni 5.94310367193468 5.886092470853207 7.9769110425208565 -2.056625418712587 0.25252809607454574 -0.8262389132775576
Ni 7.352034967079873 6.213243902030543 3.171573034238547 0.8288938344019015 -0.6263245867439858 0.7895924656991176
Ni 1.189363266433011 2.1982019185063564 2.833910773496721 2.752366705487499 0.04862830253066464 -0.17514277601584674
Ni 7.688323822683846 5.600627049280082 11.963057549655552 -1.3561476456939547 -2.7935858600382857 0.34001296646109186
Ni 3.042920517588836 5.811494984469955 3.0604174757271747 -1.1595490137971773 -2.5607341593467448 -0.2889703980619797
Ni 5.8183806199849375 4.435316982585215 13.36373910906077 2.7839604211333797 -0.8411603104740802 -1.6999295922791753
Ni 7.586435026887838 0.7927208850489408 11.37061746994656 -1.7818361972469956 -0.3960306194772921 0.7868398426546449
Ni 3.3645634403541864 3.8534714766564346 7.070846083456323 0.057242783672553026 0.3320435751023701 0.02795791866550669
Ni 8.059273478684178 8.321327739506366 2.3628821272512783 0.7729273463386108 0.8733890886007991 0.5504963267597616
P 2.2895761627727302 8.69352425382968 0.5840219250462858 1.7278779978629857 0.08749849723330093 0.43338309198382136
Ni 1.5081030563866398 8.068038706596491 12.375227039125905 0.1982449092509489 -1.403269795992738 -1.191005946754878
P 2.921119208276531 1.745704006217786 4.500006597757179 -0.18397040160980574 -0.5362400739510635 -0.5072863670311908
Ni 9.125318735009015 4.660923899742292 9.346118734183609 1.339134141855094 -0.5105673517753078 -0.3543666640796026
P 0.004184419312279869 4.148483738821953 11.404623204477708 0.23214953241819372 -0.591702368684426 0.6667035047816647
P 4.420168584452256 1.2886746013673296 10.91381975742627 0.1297491783723959 0.02617100196841299 0.5146242954535009
P 8.916107074307881 8.420834477610704 10.775344974763565 -0.5186007636027455 0.22662166062142905 0.40618442008184236
Ni 8.476682564584918 2.7008998356642837 2.0165997952377244 0.46601141954180386 0.027356023415449657 2.3527378271359862
Ni 6.884732938434093 4.354001349118429 9.783714828529959 -0.8191406116698796 0.32437294593098975 0.04410007564300791
Ni 7.54415350286071 1.0399077561064838 1.0085381033880292 -0.9778026164218836 -2.090753727854864 -0.7366609078074088
Ni 0.748270385834593 6.857450933934194 2.3345412236681296 -0.35797752135931254 0.6389687578705577 -0.25572089198023057
Ni 6.37201363012801 1.9020823717107267 2.904687662660442 -0.44220454693019323 -0.9005581928164231 0.2863627852358036
Ni 1.4490912990406783 6.183365826843238 4.478040489973103 0.44569481947163886 1.4330465130345382 2.0253785448831634
Ni 5.084018287399321 9.084749314947775 12.672087256985039 -0.4177117039951516 0.7050926460828244 -1.6346803933623781
Ni 6.413764774122228 4.088671758970196 1.9449110246139107 1.3580291789873837 -0.560694350338686 -0.2956190137267489
Ni 8.935331024272681 1.3145422591128 4.030230392782435 -1.5873795513938855 -1.014611300609801 1.223523459766609
Ni 0.2237040624775994 6.418929000758464 11.085360478421457 1.917660121058562 0.4109401895992729 -0.6251781318443684
Ni 2.134025934524159 5.091918158415833 9.863411407159438 0.6999756365712332 0.14219563166586477 0.07401331826267253
Ni 1.7661096801155618 2.7544961337268408 8.535071823260674 -0.5372659441124167 0.6935247387395669 0.7706614331225696
Ni 5.585469346234265 6.246974211141093 1.8246440954319039 -0.34923885593473397 1.2891248998165026 -1.5111000628048556
Ni 5.817524568001994 0.7059702519817483 7.498745528113266 1.767608740793704 1.013837398558254 2.3398730553581766
Ni 7.387998455276363 7.62836296422636 7.024434108611492 -0.09090160937757893 0.47025425397855786 -0.30482073483067507
Ni 1.6195666075136146 8.865451128708479 3.614370574872566 -0.8407964993767584 0.39523357749729354 -0.9551751088303551
Ni 4.352801015359736 4.5620219809737295 1.2487090701505779 -3.9665400914977758 -0.1348430479555355 -0.40707325044469894
Ni 5.7315564781061665 8.071444304702549 3.3937482995335633 1.1666190332700812 -0.7154349085490969 -0.20043086115867417
Ni 8.017996885245722 3.241012807424562 -0.046021168504792084 0.03841022434708224 1.1080858129208788 -2.1307163842907304
Ni 8.627738519923035 6.043466462021962 5.255244502339905 -1.1058643797895276 -0.7496974292763927 0.9921030922049561
Ni 6.368003212686177 4.799632235717733 5.620538632305093 -1.3145585093982586 1.5900241881055843 3.1895002656526876
Ni 3.409552694023017 9.246487310246971 7.872891421680349 -0.3961553179806145 -0.7012048809926439 0.3937955594991863
Ni 2.7440374116743556 2.771468294779984 10.93306324770807 -0.10022725765387899 0.5236128721053563 -0.44855440040762107
Ni 4.367000312381171 4.310677674851195 9.038936576491004 0.6314829910164738 0.3739088478775883 -0.056524417449289745
Ni 7.681103210305974 6.713596981148233 9.394043687859163 1.2362956718306128 0.7964303145565574 0.46555427739972727
P 5.36178854603881 8.093952888906253 8.142867885309908 -0.14248719476435462 -2.449960750745903 -1.6743784832829485
Ni 8.89499422703289 4.899725183332131 1.800675570400768 0.1674160967955504 -0.271139540528146 0.09966418606155739
P 1.5135464304086184 0.6720277908580337 9.174659896421572 0.374406099228981 0.2825848062506101 -0.2825565241158359
Ni 0.5157499184239601 4.188150582335959 6.553486415107915 1.3873299848340301 -0.6026768654180588 -0.46527428426546324
P 8.853029070042936 2.1875570981967094 6.094209873802231 0.4537218035411735 0.37255259096001003 -0.9446551831356377
P 1.0201069015444837 5.927676126415978 7.784029503885657 0.2620239513801229 -1.4137740379581716 0.25809273464651683
P 6.3979371173506285 1.8650953430998476 13.04960990342832 -0.5609476040000726 -0.03917872708199059 -0.2235347941659892
Ni 7.962120883532934 5.145002686271196 7.440334868137937 -0.09661537193290456 1.3313362430772298 -0.45843772095960406
