# total energy = -381164.6540061716 ev
CRYSTAL
PRIMVEC
9.33663274356117 0.00000000000000 0.00000000000000
0.00000000000000 9.33663274356117 0.00000000000000
0.00000000000000 0.00000000000000 13.66510578150145
PRIMCOORD
 96 1
Ni 1.0550301695757798 7.641072272235236 7.561162833104374 -1.4974212797661823 -1.3575890061261715 -0.7233071122083221
Ni 5.784893652135214 8.111377139551506 9.51834794780631 -1.3916710354115451 -3.255709000269277 -0.6770066864798857
Ni 4.3558099627609 -0.03548574027652162 5.560154365037029 -0.5240887833005102 -1.3362007702583827 -2.2254579362396902
Ni 1.2498110030140397 8.312348160535043 5.088297749349681 0.2101329189377865 0.6020582579974535 -0.674963945018244
Ni 7.1016016291491155 3.1135522956806905 9.117304089914434 1.412561248596993 -0.808882167166665 -0.03165387945985516
Ni 7.687466000610019 1.0287568848813466 12.612810564067585 -0.7710483841483431 0.5812701176075086 -0.31879468051226384
Ni 2.4776342357880687 6.251697282152118 4.1330248329074015 0.13717889517756374 -0.6413740248779406 -1.3776137859875308
Ni 8.902124581138436 1.8832641918479085 10.435426566797279 -0.2367525784078439 0.500748565912673 0.8384567954999882
Ni 7.929882334585236 9.002418690657839 2.219801253736289 1.12092461655676 0.5276019386600914 2.035310459284895
Ni 1.093945255079119 8.403240280826552 12.145436465786704 0.4416247631673233 -0.2630248818408115 -0.9922699568001234
Ni 3.711432913553013 1.572970537429007 8.747607976642872 -0.11974861551625829 -0.29971246706983223 -1.327473931908346
Ni 4.671257438484466 8.837206973291815 7.738850159215496 0.9032393391930122 0.21727158686509676 0.009324362724719426
Ni 2.4277205968483244 1.9986182900709792 2.2644723733597836 -1.9219060408191095 -1.7635250576426338 0.48127091680403566
Ni 2.866355605712741 0.37012466471700617 12.660255597295457 1.123696265764626 -0.06215667603440262 0.6141447568483422
Ni 0.4601830236996264 7.2589052185349745 2.5614968052457328 -0.056378121679412585 -0.3438925040211561 0.2628942698002182
Ni 6.495710180335846 8.343028335910276 0.7431791648061207 0.036693498766291646 0.5771676654033608 -4.075653595897691
Ni 5.1455677212712105 6.683936697549695 4.572440384273755 -0.949644665930429 1.7236973841227348 1.4154359990416268
Ni 2.757135675238157 7.8656556375656885 8.86743712296617 0.8041053146033119 -0.6082620728153202 0.7573585453660763
Ni 4.189785958341423 1.9579479176015582 0.8975174396152382 -0.02898430304749202 1.1326830426442684 -0.8317102208047741
Ni 7.581429861919657 7.995911001734855 12.26637293675988 2.5431210742506716 -1.7310126868372253 1.1018231198406185
Ni 6.041539014495048 1.1292003805255226 9.862147976348494 -0.8362705864819469 1.1008507286250202 1.1280049204423088
Ni 3.52929388092366 7.39065444395187 13.256560191551426 -0.7926415369380866 -0.9493477035153005 0.16657920271655183
Ni 1.8159283961065256 2.319200913833614 7.006427729056303 -0.537640810953332 0.906548348961587 0.3267211344481922
Ni 4.250380705202429 8.980216177863467 1.0647710785742523 0.31478170269812883 0.6843806103464536 0.521744708548366
P 3.0946269409985243 7.416899718747908 6.22236531655296 -0.023298051295992134 1.5658704736775162 0.22287324932259034
Ni 7.830876680391999 6.866710621209332 7.0244791749085485 0.08731800579137865 0.5247115044861738 -0.6546200912545694
P 2.625694558703605 2.525979320417697 12.595797351782512 1.40970372454354 0.9857956619296895 -0.2853705965258634
Ni 0.6645563136748657 6.1430095397470375 5.520347631101451 -0.9154068277934816 -1.3529301671979215 1.1047444072524715
P 5.742094527387779 8.288651786492942 2.590767149068422 -0.6676717822322049 0.189529383754822 2.8930885808213143
P 7.2857760477285 8.883871464017748 10.492505137746443 3.602897915653518 1.7664620287837707 -0.0885765607888281
P 8.178675588761696 6.480314072851439 0.08987909563289272 1.2372228116305726 -0.36017195790747003 0.45744244692587027
Ni 8.373932590472668 4.828028839800822 4.103494930692919 -0.1893391221208868 -0.8563691570040347 -0.24119081668485556
Ni 9.544933076036209 0.3669511432288619 6.815826906121845 -0.8153610900227893 -0.4334309145026212 -1.814847362065694
Ni 4.173960365748294 6.71874366462178 2.2985389454509626 -0.05169228616796904 -0.021673885429007837 -1.2424228677742732
Ni 7.615275155813516 7.136744715001939 4.412326468415606 1.0016655390824103 0.6579733239975184 -0.05863195071059579
Ni 1.925017613721933 8.905215006594675 1.161915008187507 0.8306154450786987 -0.43384357656000766 -0.741762233589716
Ni 2.9478644100419515 8.321806169559727 3.2146614932433852 -0.40029427984965255 2.2873024803503124 0.672094851000565
Ni 5.742626715457282 5.211176239944906 3.079021692939435 -0.1469323750199018 -1.8373722826410872 -0.9651926409673571
Ni 6.601886368518182 8.606050618471354 5.918138606126398 -0.1470362475876177 0.6676170177348696 -0.530604215821525
Ni 2.084477965284201 5.666953306627012 1.0386667869334687 1.442767082756412 1.1209066188346308 1.2672401839282692
Ni 2.6075254712781017 0.19650437585282707 7.187422090504584 -1.298649551477486 -0.5746328147966491 -0.8205382633483547
Ni 1.473628764455031 3.5296580096027936 0.5830241677636586 0.1984174302730712 -0.7508207442475586 0.18353305696207103
Ni 2.0326689898864014 4.47558028829757 11.468576337410228 0.9435974312950846 -1.9686597520348805 -0.34293939607926743
Ni 3.965277286073357 5.174912758156285 9.762228265804302 -0.37816762315394226 -0.8559305268047194 1.7510901743133909
Ni 2.6818077218214245 6.9307132390417205 10.994315538777318 -0.5376171568042483 0.257497267154363 0.4872217350708319
Ni 4.4894358513702555 4.3104152540955365 12.457041917113767 -0.6328523605601746 -0.7264374303071875 0.5183053438495138
Ni 5.9795624459798935 4.355408487550573 7.80750335384472 -0.8936411539816158 1.1475681872862173 -1.9789480213347659
Ni 7.236217200835092 6.535801681571772 2.1312376896646774 1.483788519474096 1.3311639791654235 -0.5267357340050541
Ni 1.6733673499091912 5.542552011222383 9.357782138920724 -1.2662395105778967 1.8342993001427184 -1.4526887127454982
Ni 6.65987619482846 3.1476029954961118 11.320132278886684 0.008317004506127611 -0.7831297407929094 -1.1268924041044206
Ni 8.410588210838817 4.4770461396469035 6.903529632649453 -0.3724104089551909 -0.7682618225421414 -0.7193357862653998
Ni 8.973503138881485 2.0888194995354135 8.074260289525121 -0.44126249473189816 1.3989660264110617 -0.1270675177751747
Ni 5.50211505457292 8.549069148503293 12.077411626544805 -1.7005410006109292 1.4803704949314829 0.4456919912581615
Ni 6.626572425636903 3.7373794160995053 13.351355024352626 -0.9742850901869287 0.021090502121712065 1.495281093494728
Ni 4.333084598529823 4.051874555277645 4.71550000666252 1.204634593281906 -0.7143506743459827 -1.2413059805610107
Ni 1.405004513387482 3.652490750697307 4.94158937086334 0.44639493086245696 1.6721449659667398 -0.3189396907305604
P 1.1750525841980033 4.4444519545480174 7.297043496189495 0.9221932545876957 0.23883902862322734 -0.13574087717945651
Ni 0.7219224529142174 0.2167835422907477 9.128659302723735 0.3705892965860521 -0.2937724474363134 -0.017716186332840455
P 8.370982214508404 9.445591303062232 4.710211737845559 0.5963972030569341 -0.47811257368071214 0.31730472623029865
Ni 7.97279349892625 5.676803454229225 8.97651233563238 1.8937318923777386 -0.882514705051151 1.1369253628603904
P 6.44597393741927 3.279277527850622 3.3917064590179833 0.418228238620254 -0.9896687717318504 0.2122283680142345
P 0.9712619001093783 5.091583310431404 2.8193297872975127 -0.009707199985434895 -0.8506497380217543 0.8992230189447674
P 5.615106984698018 1.7473975113669595 7.7018864299670025 -0.07387447869196309 0.7721012508928896 -0.3563412713074702
Ni 1.8999487546584815 1.383801020302529 4.914094854598887 0.8101664331957272 -0.8171955721283668 -0.9525749522033466
Ni 7.3254474004885015 5.5304143885845845 11.758550677870177 0.8823072170260353 -0.3562283998786897 -1.4950779763449864
Ni 4.30570959116519 1.5884413379758 3.53700780694162 0.4452919276062654 0.2492036596870031 0.14457930140669292
Ni 4.877690389655013 6.437076126362484 11.55659370846314 0.8487360659388092 -0.23633940212982524 -1.2759209995317187
Ni 7.1297609136688065 0.26043603527594755 7.914624409266244 1.3039146565311672 -0.23157874751638827 0.2651738098630143
Ni 1.1662294662036043 6.004061770442648 12.713002904289487 -2.164757018815207 1.5320936343373872 0.2883301933748196
Ni 4.297689423591446 2.9217125015738965 10.42428889753218 -0.2691405078202462 0.5531939281965828 0.7614162603752177
Ni 6.784791005036996 1.1773960790303781 3.5614548462607045 -0.5712356161896419 0.17608611376572256 0.8527729550123442
Ni 6.021698669798648 6.107511661847878 13.582827891024948 -0.6618009252737248 0.09440036655945677 0.9585746214302073
Ni 4.1906355919260685 2.1760516597699864 5.920366326712074 -0.6827093932916178 0.0037280995838645473 1.5464607016923368
Ni 0.03997852797906647 7.500005087285631 10.227415724683821 -0.4010715243353093 -0.06851707103479167 -0.432018607536127
Ni 1.5898605061611424 3.3165306927158626 9.295606700126966 -0.8780219593871201 -1.3674754120019479 0.1646950983199615
Ni 8.8124835696419 2.223976595923691 5.269155795959107 0.7396521292252488 -0.40851666775944484 -0.21146269349280356
Ni 0.06708090566598912 2.765650684350212 2.839554801265203 0.426534187382788 0.7224673899158461 0.4969849851051828
Ni 7.66816718061592 4.325960747704716 1.6581103582534795 0.49826693714139997 -1.0685926399222627 0.2675811337529263
Ni 0.7117165796023892 1.5741469531615935 12.898739341536027 -0.018354848358103873 -0.9514979170890838 -0.27838748033981087
Ni 4.987853320042225 1.5516550047504742 12.288797661414852 0.3483505397925098 0.3096148137852087 0.0403524356751176
Ni 3.4277019794452923 3.9405258725250474 2.520077634825888 0.1702363398531649 1.3568865807425083 0.03231311031040887
Ni 6.593231309914152 1.8601746989376977 1.0191849689365233 0.3365725733209752 -0.7082077946730384 0.8130920914829546
Ni 8.910126075446584 3.71299213123033 12.8283364619204 -0.30637573802262075 0.43259376331330657 -0.053881580509803975
Ni 3.480397934958931 3.849605742335144 7.924722911300892 0.15489431017945582 0.027351909650391606 -0.4463671629483151
Ni 3.850184613568639 9.094804672197077 10.411239085869989 0.17787020224933883 0.3512893107058595 0.6156200558422881
Ni 2.2391112776897453 1.3992344743181289 10.536780384139291 -0.8466192767061226 0.28449796411292294 1.4371013998302027
Ni 9.211232483191953 8.746529595554666 0.2629998746423624 -1.6752377459594503 -0.11799975114595163 1.0003583902352127
Ni 3.3108166734432993 5.349181009336667 6.0805073188053385 -1.0057011426043647 -0.02082542138578349 1.74879366496973
P 9.10355309712909 4.282311989372635 10.762077068215534 0.24462298229485613 -0.17215592547338093 -1.0834795843364244
Ni 4.591793356738084 6.328808532433327 7.993363034644197 -0.2835356001996536 1.4614641449452832 -1.5472484877009547
P 8.819289974951866 1.8934317849652638 1.0055945662353092 -0.20932610676577498 -0.504131623452293 -0.6820324218292512
Ni 0.7791205327631997 0.3908659944784429 2.9476449991711915 -0.7322242121922937 0.030716712357566456 1.0536005373888047
P 4.4462445880452925 5.026609682787994 0.947966067614325 -0.7808419731999972 -0.4549914142822164 -0.3157299255440111
P 6.707997200270929 5.4658422361515 5.58214120161376 0.24090902377837864 -0.14699510993703718 0.769752548155055
P 6.031651520361643 5.75586606076528 9.570507046934047 -0.9088080915300413 0.6457374440529589 0.9774660590180715
Ni 6.696130339984282 2.654031239246464 6.026188656511354 -0.7786269678265494 0.27885747799769395 -0.13987932482786233
