# total energy = -340888.05549792375 ev
CRYSTAL
PRIMVEC
9.09979526597284 0.00000000000000 0.00000000000000
0.00000000000000 9.09979526597284 0.00000000000000
0.00000000000000 0.00000000000000 13.31847019315792
PRIMCOORD
 96 1
Ni 6.461628149356643 2.1842602663099098 11.270249362162433 0.27886956218255193 0.03334977910503934 0.296196997717406
Ni 4.983575697304351 0.5372801241897508 5.697162535575029 -0.002085164663802861 -1.3213140829545373 0.7840759067562625
Ni 3.2784469532038605 2.0523314339738197 5.063336313134745 -1.6196255559117847 -0.9730229356450534 -1.9241812100065312
Ni 3.5325041383322437 4.622168226959465 4.822444711854056 -0.0153091195532446 0.20233604860118704 -0.37201445906835284
Ni 3.9286728267433366 2.9395250770583448 2.544866954667931 -0.005817892233357722 -0.8424458620547233 0.8720685700171626
Ni 5.457929826978494 4.5950781363356175 2.4101499450503 0.0596868743376714 0.8693552848510577 0.9926167986165807
Ni 5.581768941288181 3.026464521405083 0.33385693007859096 -1.45033692468387 0.2813211090468381 -0.7707496219610016
Ni 5.844525530728421 7.784365295138249 12.20315491698355 -0.5292777837006175 1.447245944463372 2.1156155240935504
Ni 1.8708724157910377 6.580944665399601 0.534190743683605 2.72059481239254 0.537470603924055 -3.2347609372627
Ni 0.6505807655563824 0.4455641972872663 0.1105042742693161 0.8973291443561643 -0.638837631609332 0.8382914735667175
Ni 8.605976713457553 0.05699474793562103 6.475640014167727 -1.0591253238617762 0.6172586198869756 -0.4117827401052263
Ni 8.758216288915047 2.482779051299939 1.2081516133178682 0.8377199173339637 0.7208707348526875 0.3390953397428289
Ni 7.339312506347141 0.9245938017892661 4.496501873752475 -1.3693551455231643 -0.7738400879608673 0.8239994824240776
Ni 0.9655337808677645 7.606600793849415 2.2752609493013987 -0.8570186176625758 0.2868788056402737 2.5193147158596934
Ni 7.833877281394331 3.9225122653216555 3.637247332193781 0.0676475239456448 0.45959908825755685 -1.1173620960164823
Ni 7.86133136383039 4.248676228449154 12.351695425649446 0.9355516781724728 -0.963734825474908 -0.06666047744202713
Ni 8.214321523517883 7.8779566898531534 8.53057307961933 -0.7746749251573368 -1.4628029183613647 0.5431002914060067
Ni 7.254930104481189 0.7731449985437989 0.03281659180946627 -1.0376324440953228 -0.27702042478895517 -0.14988888654506444
Ni 2.1035632815426006 6.660840868180045 9.224159477788511 0.2855865691914114 1.0818808723907367 -1.0657106903887776
Ni 0.43042031794020325 5.149992753847489 1.3114379299510286 -1.6335035994454576 -1.9180846101904898 0.5595360683645266
Ni 6.7312186850711555 2.0727695742295005 6.748748530747266 0.15090987161041106 0.05442331194588691 0.9842949090144467
Ni 3.526862265242964 4.545220357857935 0.43481460909312764 1.1359658271605984 0.5919425097196902 -0.8070024336454489
Ni 6.563755152067909 5.86852169094847 4.514562237494884 -1.6939468923331795 0.5386797937408078 0.1067869131492677
Ni 5.4677485061129 3.40062080497268 8.810141540886093 0.476822908335011 -1.3615022251376487 0.7177316750030737
P 0.24532866147154947 6.029014780747865 12.29329475933916 0.1427425053082703 -0.18820526562675974 0.27054870102168244
P 3.995811116505764 6.4931953392706925 12.644382151828317 0.16276702805931326 -0.7656981755800233 -0.05787733193275839
P 2.555977804735689 8.59664942326963 1.166009551279541 0.46813437942207764 1.1859627279040157 -0.06588708961111234
P 6.7302359071781845 7.914656164319387 5.649721662730432 -0.8253081739331721 0.6027295730328652 0.4461514473930833
P 5.021831236767789 1.1889519552032375 12.860261145753357 0.16711373506378316 -0.4801923390278763 -1.8990797869532132
P 4.2174457309613995 6.428313798743978 8.072950743573024 0.03899592164722316 -0.3254198991382653 0.45515082267821616
P 5.234830145478705 1.4382590471822596 3.76265434123457 -1.3201414028026748 -0.0681692007770697 0.4697107227702621
P 0.23365271411533226 5.809009029651875 3.542100782461202 1.0657867950423514 -0.5080373862646025 -0.6680985853569783
Ni 1.0278127799371672 0.086535413435183 4.278505357459894 -1.341176111985787 0.34906993445703755 0.439472749821327
Ni 2.229413450614757 6.753312988072399 5.020863928526836 -0.8668718563075716 -0.42278551897363315 -2.4144867262090095
Ni 6.493386434972104 5.980394574431702 8.89733759946044 -1.4710746714518537 0.22107681954379993 1.6320766371909439
Ni 8.730853204432043 2.485044900330956 10.043724352143654 0.4019277016880175 0.3839045256377195 0.29544417871178147
Ni 2.686796462044534 5.451423473335211 6.860570455376788 -0.30761475263604443 -0.34176800147898556 1.5175206216192185
Ni 0.6982072742252077 0.2895145375354447 8.966567022184023 0.8583738461388895 0.0889434572099436 1.0937516556863938
Ni 1.741254931462491 1.3371512215451855 11.534141606056773 0.036502722911724225 0.21459326870198528 -1.4539796636427798
Ni 4.523016857313029 7.175534390442536 1.4278998402067178 -0.007684256018135153 -0.1298707915519247 -0.09551442555924196
Ni 5.787533512731391 7.944867484732949 7.613183585773262 0.2844678822059359 1.2383828933769447 1.0611287274450498
Ni 5.248188644986871 3.2019085748910685 5.208094946871764 0.8572788133024977 -0.9106793404108251 -1.6692661017570478
Ni 1.2752362142879945 7.780070191754152 6.918652628851391 -0.3039367895638249 -0.3312578459762811 0.931811237293434
Ni 5.582742619385846 4.796511205213511 6.874541371108999 -2.2345048769333067 0.7788033455034136 1.2482926962914889
Ni 1.2052860877762324 7.865098679086779 11.411798498095276 2.133806850290596 -0.728927543718893 0.1322320926952497
Ni 4.782907011232103 0.36589457940992437 10.069602350032838 -0.8466727556518774 0.23490241257298256 0.24089359715941094
Ni 8.362275095386588 7.486201402165127 4.455494556188718 1.3377259486536575 0.5786473352726809 -0.4750084808340916
Ni 7.526549894548781 6.106190144732026 6.8577868279929 1.0759835330696954 1.0747154649905493 -1.238979646420679
Ni 2.506993606607315 5.425561855077578 2.7520219748337897 0.0687412712304558 0.36220724316994396 -0.49597248468026844
Ni 2.423038895120712 5.587037722769944 11.316863973593309 -0.6247865528329046 -0.6618058103697312 1.660989206460236
Ni 1.269257648772419 3.6962458550556265 3.9925315502777377 0.5769966870431353 -0.9239552315841248 -1.3378246790150508
Ni 1.7616566725369505 1.2315480970272987 2.4046900678671257 -0.7436283402641773 1.0228545144551997 0.43658514386088676
Ni 1.322427752741227 3.9840177817901083 8.384097314508203 -0.04567616188087618 -0.5863110224655258 -0.2569483366294284
Ni 3.7950059335039357 3.070998919629171 7.123543619945294 -0.20776107627150026 0.5368939054849786 0.17381094457830068
Ni 4.507110415119382 7.100925168734466 5.815736508321076 -0.07047368054053024 -0.28991784957691363 -0.7398457332932935
Ni 8.494941011142407 7.622734730925694 13.835226864455054 0.5225222101443389 -1.6235066361337458 -1.890962042942085
P 0.4401789384255959 6.030343350862437 7.862811900526561 -0.6349740348888677 -0.7899596192305492 0.5755350148959443
P 8.820986676930938 1.7708292662046825 7.8092450454824425 -1.3862336664460575 1.1755957828473946 0.4053120447792181
P 1.879335225424957 3.33120756638393 10.51615751502885 0.5885476251055283 0.9563009949046822 -0.37203682766585605
P 4.35140381765057 6.372868745948847 3.640657025494673 0.18330140056723915 -0.38192606175510996 -0.17746859593554598
P 6.876542416096632 4.159916825041359 10.290436182501608 0.8630018318292041 0.46709899617902784 -0.1461304479438967
P 6.428268299767451 8.019349309306746 10.126938340292407 1.1999202185253721 0.10886025073852865 -1.0409972468024975
P 2.61613655149896 8.770109721379063 5.5207857530702515 1.880868149041193 1.30384806495929 0.9593816907125349
P 7.227949211401004 4.002262871377215 1.1696030604455998 0.8750021987241898 1.1848643526335143 1.5014759094515302
Ni 2.8896036000135257 1.8005400978764534 0.45677696506244436 1.0858575976502978 -0.6686315750423129 -1.808589296971124
Ni 1.883138939862568 1.3212356795562339 7.043805753603163 -1.4708928944583508 0.6035446127349928 -1.1561423021084731
Ni 6.931850971962183 0.9422747040674441 9.090055794374457 0.30592193831465375 -0.16603927105268176 -0.3849638201401692
Ni 3.0169370357204444 1.9350077731027195 9.10012471787976 -0.25265690834292615 -0.06938996055804823 1.0693516295754746
Ni 6.5201762323508765 1.9772763222957903 2.2605838894534966 1.8409977952088166 1.4149829706646082 0.08509425866718248
Ni 4.340766156938686 6.930431403894558 10.44619555878319 0.08709020605128873 0.5248791404122896 -0.8395891093322185
Ni 7.212270264089991 6.294355712054807 11.276629228650972 1.0382060572106055 -0.899799717383844 -0.23529604846697538
Ni 7.874344071116954 4.135674970348067 8.250499579713123 0.56362155128781 -1.0826264923075095 -0.4311642299556316
Ni 3.591907602085175 8.75716981245494 12.290790495671144 -1.1723155694342262 -0.05062604968698378 0.42620405773687886
Ni 0.1301379926200092 5.412485449223876 10.123981816797718 -0.3083385181759464 -0.5022290071129415 -0.12487153856512043
Ni 8.767552678898276 2.5829313984299573 5.6415172872831825 0.7918331821041782 0.47508612814956247 0.518581737439352
Ni 3.922448566754518 2.691191663176989 11.358657513471444 -0.138826972303948 -0.49260485375961616 0.49718296004860185
Ni 1.3504915214627404 3.6893937091907434 12.763928892692498 -0.3841379818047642 -0.10205428356028877 -0.6540817022525961
Ni 3.2995129793356064 8.81165028694771 7.849639946822153 1.295654473404904 -1.182210202840119 0.12051377581705694
Ni 5.897859431012725 8.190552858180466 3.4102738678325313 -0.24739514572335455 -0.01634990211293313 0.7347446646213024
Ni 3.249445905565902 8.43143353970679 3.337275309893497 0.4236540376215155 -0.348173133674381 0.3500119866553327
Ni 3.594018754596002 4.663745191709334 9.474666832768301 -0.08740053820285593 -0.3600745130976573 -1.1955136048172441
Ni 5.048557335579425 4.737480833068097 11.397454490755548 0.3519837656697229 0.16495220863609011 0.04369872643953119
Ni 8.21326594726247 9.319555361912453 2.3634425157073085 0.9903146328459653 -0.5094574065405807 -0.2557571445348047
Ni 4.7672189641257825 0.581294014122376 1.6875033505736752 -0.8453869469609182 -0.7302766015476198 -0.5109159933639782
Ni 5.94798110355426 5.427017822326423 0.1751938091150901 0.09653695328648536 1.7106143256865314 -0.05694659258837289
Ni 8.338579228411614 8.649501034402753 11.295660540552454 -2.506383352510006 1.4250709510282296 -0.350174480375126
Ni 0.39553716261690564 5.1098626565511625 5.630223531329788 -0.39414240131564376 0.3668018045191619 1.335395757858584
Ni 7.452595858102692 6.075587533120337 2.332743446265383 0.02637514755941909 0.45923424871897045 -0.816978056800922
P 8.817510555124317 2.0272341985218305 3.489492135862731 1.6599085718015476 -1.0478695484422986 -0.9268315246906553
P 2.1459319284840297 3.4558019637039568 1.5654532560210077 -2.4704282745716357 0.18729406666640003 0.9156832213833197
P 4.947049118948918 1.2440785151626825 7.9318811668527704 0.7337596750002137 0.6196011519772232 0.28575060557310145
P 8.827038040808954 2.001245183129923 12.266830734632315 -0.8464714382743487 -0.11569527138249107 -0.38545310107176195
P 6.716677212173303 8.046976287853605 1.3821779186952896 -2.1457784208301756 -0.27977459049532466 -0.013944635105550177
P 1.771939441231928 3.322162369850472 6.1654398219442985 0.7556515899772986 0.9693984515185884 -0.3364131649249754
P 7.096711963508117 4.152300296370831 5.656767634235317 2.0100467996220996 -0.6824975343911278 0.9149100906627211
P 2.5513369091299913 8.896505878169537 9.955249772328914 0.8621765077144312 -0.4169498861284625 1.1629809222968615
