# total energy = -340870.43538413604 ev
CRYSTAL
PRIMVEC
9.22902226134088 0.00000000000000 0.00000000000000

0.00000000000000 9.22902226134088 0.00000000000000

0.00000000000000 0.00000000000000 13.50760696334003

PRIMCOORD
 96 1
Ni 3.6195393542994134 7.036123286520303 4.192896035614367 0.081344304706447 -2.156050492180145 -0.1463155673715093
Ni 4.8906802368941715 6.434917108517425 10.20368605641608 -0.7133155482132489 1.0475620445042086 -0.09875735797657184
Ni 3.3227155497935024 0.725330063145013 6.1511615991169295 -1.527232192480028 1.1508180616820827 -0.19575813827335317
Ni 0.640777455491218 5.532411050354592 0.6126833897211651 0.2952698579174463 0.5049127245926918 -0.21235126674534396
Ni 4.025745527159408 2.097470593441138 0.4965869078860146 -2.615823644121721 1.7476919472651191 -1.1014276841744126
Ni 5.181255993528356 4.769540094554001 11.776431376895706 0.1860859052909118 -0.49041221698367155 1.2572115960476735
Ni 6.967690088634247 7.122497703110404 6.736946081412781 0.11941102967118143 0.9709614251303343 -0.12379347500959324
Ni 2.42106779067361 7.8731771208924535 2.4809558371203266 0.053404383763069316 0.508158485223499 -1.97665254043237
Ni 4.047682912375208 8.734687863477422 8.09743220276885 1.4986749496676255 -1.6083312139448882 0.1538221601611996
Ni 7.929474154891771 3.2073896912926045 11.374120774208025 -0.8050933895481941 0.6928397968574004 -0.5140601954199147
Ni 5.816766446182949 2.9812417370107553 3.6527813685227155 -0.006210756796402207 -0.5011473440129885 -0.6451430050020697
Ni 3.263206816149633 3.085741952744243 4.928114995797128 1.1314532840022258 0.34067579685607136 0.6595383544917932
Ni 3.5583693967014662 5.95650306778683 8.01679177752691 -0.06277734033753704 0.5950455741250462 0.8627521777122431
Ni 4.075489955562085 3.7306660078052793 7.224165532002188 -1.3574784486902363 -0.15533885391604216 0.5245153293149677
Ni 1.4673868057032002 4.174471216159246 7.281261799303856 -0.06323319692803304 2.533873844620791 -1.4978321420513558
Ni 8.319861784100155 2.5385809273807105 0.18195570549458176 -1.7672600992050338 0.29808752987189957 -1.2780545009349538
Ni 0.5010149926258298 5.223414165874074 9.45081290011245 0.4578425105777663 0.4762204988643217 0.7933421625495369
Ni 7.622000059035825 0.17661763918881038 5.3531594482963705 -1.7125439386090764 0.3489210675839991 1.5830971219684475
Ni 0.08267542458568658 0.8750054185052646 11.857949482126719 0.24742419918907707 0.8403712389138817 0.9046835278387064
Ni 8.914607646726061 3.0810259225190544 8.766679345224182 -1.937480498218599 1.2961147008707743 -0.9171322951250205
Ni 8.829276109618243 5.874761620224214 2.763602018080377 -1.2583428814386393 0.1902058409965563 0.33699474846005834
Ni 1.8064979888623693 8.763362434729206 8.169521939158273 -1.8178421830279596 -0.19540049782361832 0.29117743301562754
Ni 6.5477049859773695 7.560663979042471 4.067761572566834 -1.3610211717361722 -0.04972590647021759 0.14366938799791387
Ni 6.297912277415806 6.0510913139276505 2.0428633933639966 0.39516955702857753 -1.4742499838560417 1.5669385099307143
P 6.920382122030886 0.5729856746318757 3.2817811457606214 0.2761318515364148 -0.07921748817143132 -0.10822544536800716
P 1.059427118669456 1.81429651242457 0.38093711071407194 0.32475552608138913 1.0473517282656155 -1.3615629031722551
P 7.5196040603108365 4.083039295531173 2.3425029724720705 -0.9464600975548604 -0.06551942185904845 0.3473730063705889
P 0.22584431945913183 7.6681820849591995 1.5764996866158452 0.2862170036865587 0.7586150434809966 -0.1480981131932288
P 2.9770517610376914 1.3275025197478463 8.79997581067709 1.064714130803463 0.19523414744908313 1.1329851472657195
P 5.28987235305917 2.83594924418268 5.903162089523574 0.4330051398191123 -0.09065838301852129 -2.4103205106464616
P 2.697393937390589 3.585225850625731 2.866435472446606 0.5463121134750849 -1.191817901133212 -0.7683212150251671
P 1.035920799719249 6.2463866477734795 7.531382138145251 -1.5214209851148894 0.7117217213635678 0.958196155044866
Ni 1.136083375128199 3.2443334662269114 11.37628221115272 -1.4359498027242623 1.8655492592959353 0.8327522889160432
Ni 0.03617130579566 0.0616341774028924 3.9211631731304135 1.0771580129937708 -0.28245856508539097 -0.6907677448197199
Ni 5.306004683457664 0.8982274835788848 4.760444893405423 1.727898823798592 0.8369575852466424 0.47309789407494
Ni 1.5343064439866516 2.0436377083070365 7.374180515370829 -0.3351607805751131 -1.8973805448739194 -0.9713650883266562
Ni 2.1370907847459035 3.8575835178968565 0.18600909194253265 1.115518357939524 -1.1226449416819761 -0.04593172953510799
Ni 6.952139186619681 4.7785568490158585 4.614157512009294 0.10565202821387612 -0.00629406053882787 -0.5427506213760718
Ni 1.6668905735660284 5.945188286855163 11.761411143644251 -0.2626497578895799 -1.4075056884509567 0.1538931226084511
Ni 1.082139741730492 7.189897250536144 4.2377416991569055 -0.8290846102564688 0.6288360403119299 0.9115751127522171
Ni 0.5908687504975277 4.954452778686842 4.974905214268135 0.1971979560436733 -0.5363984539057988 -0.08864443791228604
Ni 7.133803255020102 5.362698565401566 10.071420328094568 0.055890126299400524 -1.2174983366184515 0.45292450445085863
Ni 7.145505654874387 0.9633253129260303 10.716232711989802 -0.3865974990888503 -0.4516883180509124 -0.05746672675790102
Ni 4.521150197331437 4.9524316228760465 3.536264043285865 -0.5386545969298271 -0.1811370459260687 0.2023054524735677
Ni 9.067357189303555 8.198961596331127 6.731772291698024 1.0333117052327816 -1.5981851266498217 -0.17532583856093029
Ni 6.39905312915327 8.287274107534321 1.8176244977459066 -0.062325083291466854 1.354560246602177 -0.8018617699847739
Ni 2.437357014445544 7.248741494598383 6.288763547939818 -0.741112515820859 0.4162166075068639 0.013860560032176129
Ni 6.26074700595429 8.263961598045423 9.329095943899333 0.388166386237867 -0.32440277072766066 -0.09843982673615304
Ni 7.921657173285637 6.803524245883449 0.1003471558482921 -0.005673139125377326 0.3595330387718905 0.7756133778112062
Ni 7.015496422423832 2.1752712486238015 6.803633148342661 0.8648908213218007 1.0400752492088603 0.04178016926057966
Ni 1.7866279045672004 8.607613460012406 10.973498159638126 0.17699397029197259 -0.07430745246432365 -2.2483271275283796
Ni 8.13101753660933 2.2935227070882704 4.032506708652507 0.021582868377098312 0.4499785344486573 0.5926914720705728
Ni 1.0097011483107143 7.924398192809866 12.853527458121178 -1.3497026613995593 -0.83634874801805 3.080188014978405
Ni 4.92659959039013 0.3144050913532389 13.0066904608828 1.1309460053485039 -1.1995152697774698 -1.54699112027451
Ni 7.48900062346793 9.137073221243037 13.234806965550229 -0.3786378779221415 0.09425947010621831 -0.8882181831938316
Ni 2.549203531664844 0.335389118599837 13.494585475880196 0.4536392711296962 -0.7751526361247038 -0.8858386272180615
P 6.312540277233662 9.128379482550027 7.24892422923333 -1.4499348041494446 0.24789676795012147 -0.8553833960519979
P 1.1348928312944428 0.38111338503364356 5.953571930410078 0.3560306820455868 0.2736291397192191 -1.1352207214644578
P 2.947583493896737 5.966904175543752 0.3505099481907358 -0.33086960939892696 -0.032035174058673864 -0.12310699046552992
P 3.274558513169168 5.15863566068699 5.677720155422208 -0.9964271735016065 0.4086555073301542 -0.23493712246565987
P 8.98816295180386 3.1664405208245765 6.042262831513921 0.33389965447450237 -0.7274265336933343 0.265377184123072
P 2.6337875179933268 6.767143441289136 10.018605404083436 0.6239224050603964 0.2954920012305814 -0.43356152654321456
P 8.972215201844708 8.976626674344981 9.940301767203565 -0.3594754460610777 -0.863137843186436 -0.22735879589776972
P 3.2941240397394225 3.7896302291530897 11.458745368233163 -0.6647512661513003 -0.2454308229081322 -0.10549853335514735
Ni 0.2026213314833149 3.0086980773628818 2.194337485105636 1.505350304805272 1.3823566999891546 0.16492032695689016
Ni 4.1194293291474535 8.870659044118725 10.539121320125751 0.6903203728696563 1.281388450404193 -0.48120818188690034
Ni 5.9072570065703776 1.4899979095225984 1.4347640588538906 2.338612186367882 -0.3645492610395593 0.7685091626662571
Ni 4.64034301603655 8.06924769258352 5.882711499746675 1.9208757997823822 1.742545112956857 1.2434690496506005
Ni 6.827575077129715 4.620509847829251 0.1786784797940641 1.7034072664151312 -0.36283150701750416 -1.5547676788961353
Ni 1.5231208693625247 0.7005086085644942 2.0895317887450373 2.0999351372438158 0.6157588954129976 1.716835881116211
Ni 1.9464007328616575 5.513482326300068 2.8658411234319243 0.3870919222267656 -0.1555561121331708 -0.8623888808355535
Ni 5.207724828530003 1.4424223012821913 8.554367540675411 0.5422865372554596 1.825590459514811 0.41832954008480855
Ni 8.282179687408481 6.927913003956041 8.686944287037214 0.8295296682136875 1.03236476793848 0.19603915984888173
Ni 8.64920866201813 0.7560110237724443 1.6880453377190179 -2.961886416321318 -1.3663559536855243 0.22066878547210383
Ni 5.0342469026144 2.2880775841276804 11.07834446369538 -0.29385292296526166 -0.1742557454252031 -0.9493626159136358
Ni 5.204430067687746 5.9724508177459805 6.0073725139672955 -0.229516722781037 -2.795224938303605 0.0389360149435652
Ni 1.386346763810084 2.0181840657217713 4.178997128531912 -0.42635318172023345 -0.17868524195146646 0.30804027020923724
Ni 2.606608048300214 1.5959286236609866 11.310662019162239 2.0332044686854855 -0.7044604118154641 0.32603233591128367
Ni 5.124838982243466 3.989632364202141 1.3597164209240133 -1.2513690212239674 -0.3534392671693268 1.2091263105046723
Ni 4.756121096613836 4.120509124717604 9.376629098638691 0.8993333192703866 0.21325680927874888 0.6050389378923322
Ni 3.681281511259321 7.373287146044413 12.263164458027449 -1.4306247909669234 -0.19808292975178787 0.06622596100776983
Ni 3.895560943291478 1.693110224974563 2.7855523239269306 -1.1213691602933462 -0.25686220467352533 0.705513792780643
Ni 8.019337141785437 4.970132887008948 6.827338814167358 0.5999684653479603 -0.13675826270037736 0.97300056704755
Ni 8.45509464298409 7.244210044812535 11.273907439178258 -0.687166657732023 0.594031531038235 -0.4547980673244877
Ni 2.3654721623437918 3.787101477134104 9.368240840572794 0.6883586211575952 -1.063278426798201 0.2467888795979234
Ni 0.9538286493218832 1.532792884384047 9.65052339806734 0.37535586473676 -1.284823187117355 0.41035912028482235
Ni 5.485656825069257 6.914254051444731 13.589867744472942 0.587143288558834 -0.5694145038205031 -1.0999531565114151
Ni 8.003334017694483 0.6841677022695446 8.217716814772672 1.4377768286306722 -0.8166936927912838 1.2992864137305367
P 6.729507489707298 3.2353167117650536 9.198180421491609 0.8190963886955055 -1.4355309700192889 0.6198178959737196
P 5.9295727816868276 5.877170394957627 8.322009377511899 -0.24620832450410501 0.6254933490919421 -0.9396667287821107
P 5.893376557531856 2.596539185334106 12.917283387674306 1.6106470065622582 0.6147232550596317 1.536967674600237
P 8.13228191261882 6.540201791118116 4.913567288470387 1.964438000644049 0.14200562714224577 0.8437206150020888
P 6.037238551955031 8.030411968145957 11.600143213791123 0.1156335649066202 0.1315062702728187 0.05976812119756803
P 8.718094081980574 5.242518241345974 12.19080431129439 -0.15103919809942373 -1.0123394738564886 -0.5700485378600764
P 3.6452052643899218 9.111010463207943 4.156425709506973 -1.6606613908071723 0.12856055738093342 -1.083042753909322
P 4.17725838079331 8.300674647430553 1.1239573631656246 -0.14768905068026822 0.2093551602314975 0.36628861232816917
