# total energy = -340857.00945645553 ev
CRYSTAL
PRIMVEC
9.41794530809949 0.00000000000000 0.00000000000000
0.00000000000000 9.41794530809949 0.00000000000000
0.00000000000000 0.00000000000000 13.78411493889985
PRIMCOORD
 96 1
Ni 8.627977291923349 6.722821175664499 10.571864707446199 0.20935901688623945 1.1992455610558508 -1.7772416358977778
Ni 0.17160814502347627 8.936132455915587 5.476635853353925 1.7877283943617146 1.3763161502220296 -1.1850186188231913
Ni 7.788160290593407 7.935504041836026 4.751480450146619 -2.270195131246065 -2.951911307386477 -0.9311849165633447
Ni 6.3035719311572125 7.2454794574772485 9.03620377347414 -0.09510124928122331 1.9895021427015285 0.03800270449601842
Ni 9.260665426453743 8.448367660734597 0.8478071859610866 -0.18221588081254425 -1.3737355339790471 -0.6873890581554742
Ni 3.0863171201479203 3.716556588949769 13.720956198928896 0.5834409000065822 -1.1037028533618347 1.095311801084662
Ni 5.287714699835127 5.595022248767482 11.511954570360048 -0.4604125852977877 0.3282853936115185 -1.0737484730915896
Ni 0.7183754245227704 4.468061518985238 6.144144956338735 2.721486470968874 0.837670295042951 0.601303639219616
Ni 8.359895484373256 3.4124228875194116 6.244617478358966 -4.125679807217146 -0.1620689735510241 -1.0939113211927096
Ni 8.22474797204781 1.0771774719319098 0.4711468310347688 -1.7628216038177058 -0.6439093897052847 -0.17346384565152706
Ni 5.160657202358988 2.839604630051935 11.532383035097686 0.0817965617525172 0.4292798684487252 -0.04940528990600524
Ni 6.6072064814967515 5.997111997284737 2.647515279798205 1.4013211569067994 -3.5545940863418073 2.121423389024579
Ni 0.5542611384231517 8.651785857160892 7.696456817264897 -3.1676160639850868 -2.564252199802332 0.03777387631466397
Ni 0.9045107498780933 3.307657666118139 11.800442239579514 0.7836624733679278 1.0194112931016057 0.626938823289217
Ni 8.168353316730405 5.959929949991298 8.02017701914008 2.1846640421517796 -0.8296885623890549 1.4022058735045981
Ni 8.749092066035212 0.20966794480114828 2.764693352854177 -0.0620890560212608 0.08645051558476079 0.6731572308268085
Ni 0.4253548983219615 8.799901879902514 10.129876776265844 1.18257272838586 0.5360040466808575 -0.49856955598348324
Ni 3.1331713970691117 2.224462127261075 9.648521834526576 0.038722356270862346 0.09556790450499669 1.1670638341169834
Ni 2.797129697606795 7.300263644180881 10.671895527840782 0.14091290829869924 -0.1455223820462526 -0.3686964504387134
Ni 2.0761954173976958 2.177136953084395 6.076975230021221 0.5440773106072953 1.1062688143167978 2.9102589219530137
Ni 4.453642645022154 0.5016364865331938 5.563393021910773 0.5914306030802783 -0.004235635347902383 -0.003285355619491116
Ni 3.1825591012248355 9.32408586882305 2.525318383793227 -0.1328697262792486 0.8260661351451194 0.7369684117454985
Ni 1.9617579663686715 1.6834388524842403 4.050007411712383 -0.0024890849704408747 -2.169479878212173 -1.3632076378645297
Ni 0.0759152301464616 1.1990739354878852 11.76769133546023 -0.8504669325869869 2.04239102028076 0.08641734835398021
P 4.069908471523875 2.7076027113931582 5.1237209634329135 0.42727543642418675 -0.990425961612849 -1.1635370519106478
P 2.974865157718699 2.414874141490752 11.974936042984629 -0.1723094203321097 -0.31596980946895903 -0.6014489065482286
P 0.830929286529837 5.902536992492254 8.014594061278997 1.4062365919305457 0.6122902201381069 -0.6137932870461945
P 2.6840013409480314 9.433296360316142 9.609830090632036 0.41284537704178575 -1.588222359010155 0.561154063583924
P 1.3207255324710063 5.20348059877319 3.821398095706431 1.32169512044304 1.3563481917405351 2.6298533827419095
P 4.4363889695810235 6.049569951546252 9.52600849556591 -0.5732534179506192 0.5510205746943478 -0.3079860199325341
P 2.5248569044828475 2.0138862925513434 1.3547440920020688 -0.573205081211187 -1.0420393149137668 -1.212074594499719
P 2.060015387699081 3.2716905337438615 8.051673452970741 0.7202662684994693 0.8205688594759739 -0.2833520234339378
Ni 6.959108000523949 2.8331062479261817 8.883145213138901 -0.4556570728906733 -0.3994244756501895 -0.008567944174669115
Ni 7.447014064881585 0.6352856037916728 4.858859151315857 -0.2117041200796483 2.191052719286943 -1.2461890196849248
Ni 8.595909188824523 4.000281603327218 10.364771628838067 -0.7322355250462034 -0.9321156559077302 -0.28361761839049865
Ni 8.078430776822158 3.7567147068979017 0.8789673991513285 -0.5537973661085365 -0.8449339185838998 -1.4115194375960403
Ni 9.405268555669416 4.699347414991392 2.4008479958387468 -0.6514468357329103 -0.4057465612134754 -0.3161230472173717
Ni 4.027282851956978 6.1070570884963935 13.477155737460855 -0.2081220591553448 -0.9069481555031671 0.8373535351334804
Ni 4.316724559016068 8.214755532286327 0.8187368147907066 -0.7619304810074748 0.2479852138988697 -1.2199871644785762
Ni 9.268115021035586 2.897948800007067 8.337115358741704 0.8656066164419027 2.1745048422305904 -1.5350745713425822
Ni 0.634750664509437 5.199864107851032 0.031043430670880532 0.8344083364622276 0.2503848244792978 -0.6999224147357945
Ni 7.477142071287794 -0.03109522936898436 9.49742032318515 -0.43535769921168893 -0.21007532622697367 -0.37949019862010774
Ni 8.922523525231943 6.974223802425158 2.6870339192733828 0.22752643182388557 0.4704414302886995 0.5767223503358262
Ni 0.14611282581677137 6.5487587141454116 5.507195201646162 -0.0992137287877001 -0.3583251345067184 -0.41154311329059445
Ni 5.839248401354484 2.6749695315877453 6.280001639930948 0.15507248762853296 -0.06957507998566081 0.723582991577528
Ni 2.5494565771096114 7.547004388112195 8.0585928172429 -2.2258101773727863 0.7824535406614912 4.396773067888389
Ni 6.1687163751301695 4.556872741370531 13.31967262651304 -0.7912755098284953 -0.9842285745528855 1.3267956748943988
Ni 6.620071394516721 7.871075879339972 1.7721266997885954 0.5205326905181358 3.4365516548833783 -0.7809147354194615
Ni 1.4081240630898315 4.642180488174984 9.801084069154529 -0.014833465468406713 0.42923564547435106 -0.7252452097712995
Ni 2.5220503568401305 9.056606809759984 6.446210477022983 -0.46537635706096625 0.8281998936586705 -1.618175967949452
Ni 6.3610308142720235 0.6593362102185364 12.43172804208306 1.8831201783001632 -0.4716490774435555 -0.08678681587825698
Ni 5.547885433492999 1.4183048617535114 3.640811823609795 0.07051738929427209 0.06555027509698388 -0.5406651996019527
Ni 7.5755219259046305 1.1584543382293733 6.956525599974846 0.4123566103308253 0.8277296388904714 2.573147445409433
Ni 5.947752546964343 2.264874529727172 0.14701412316377802 1.1884191598643081 2.0882597577884163 1.2877694142298726
Ni 8.736679214380512 8.714980268847563 12.233112055868247 -1.7516529887953962 -2.3360107441892928 0.9704114661641352
Ni 4.848866711554374 6.782766396288293 4.9824056388550675 0.5760813743177176 0.4206453327021788 -0.21174500061991272
P 7.219269316236711 5.178362939165388 5.038796526994429 0.11141361328800167 0.7670472334087499 -0.25742039116984056
P 1.1227414903730601 6.248514624045396 11.683277351646696 -0.4280269698782305 -0.9466940679425373 -0.007503764576212884
P 7.702136779960609 2.421410195396945 3.482211744371957 0.6975048064332375 -0.5197209932501178 -0.7902092733475101
P 2.2468862545674786 7.386889903300703 13.50466932230459 0.0028199859472983688 -0.8851547137771594 -0.7648828787675795
P 6.669054127032724 8.270490931446048 11.31711612192877 0.09385297869641901 -0.8263062761803833 -0.5495038809395053
P 7.670200528093321 2.9747144705969424 12.369754196082619 0.029862077666755023 -0.01817127159238806 0.5232446901326602
P 5.717220086566972 0.2950510351664789 0.8894655825652084 1.6335884458497802 0.5922302161634382 0.35540487553612987
P 0.029003503760100628 1.678503849246712 5.809398224329014 -0.11331854362019837 -0.4901800463682074 -0.31135647906666375
Ni 8.07871331517545 5.355354381613619 12.100771091185518 0.0063238853354987854 -1.4601156013371885 2.3533271239805535
Ni 6.70240307066648 6.550792990289126 6.66237303677184 -2.140130221405463 0.8835457174188267 -1.6102999076354847
Ni 3.0273984555410918 4.612325602176958 11.678163407452082 -0.03638650904883411 1.3360207930370924 -1.5157725285798604
Ni 2.542091744033758 7.2147675384742325 4.277320818471229 -0.18955329501422194 -0.8762296433733876 0.7929117598803376
Ni 3.180873289050184 5.541537738489001 7.492975520606368 0.25956032033097876 -1.780963307723739 1.5210096086090836
Ni 3.7017327433469642 2.729329910761437 2.912803724828734 0.755792486430537 -0.37795730691534907 0.12045849709908932
Ni 1.882779078677996 -0.07646712172989512 0.2129727017401726 0.054759869349699244 1.5535160658772214 1.888117888625071
Ni 2.3747913671034984 4.561647639541193 1.9684268133009117 0.18873516998830075 0.1427296497924639 0.6836984966777644
Ni 6.098872894195988 3.3775105649974306 2.3590276105787362 0.2302371458868293 0.008216731482837462 -0.15265487932597582
Ni 4.4377357357317235 6.8304871241595855 2.5188812183106877 -0.6010781534723713 1.0475738715787506 1.051647527427492
Ni 4.15196702726545 1.0238342308300752 13.325268769497276 -2.231198695378209 -0.11170826171028503 -0.39788695595974055
Ni 0.6094192175476423 2.2790956268429508 2.369544629882836 -1.9559389620341023 0.8294304236316618 1.1689440818588321
Ni 2.0841818348507952 7.053249779841383 1.8912354515920737 -0.5186794393594809 -0.07561074465677946 -0.5194217168421442
Ni 4.701127406617142 3.965020816836175 8.989944710683888 -0.17066391430888675 -0.30142045089987446 -0.09156598243445521
Ni 4.44234111089041 4.781405970732967 3.574441680832103 0.03858403092078516 -0.1851731636686553 2.090262132930426
Ni 3.0260611073355017 4.442661321024142 5.618542624884665 -0.19579361949697893 0.5068081418431917 -1.8192331498382153
Ni 6.606076328083577 5.175980199052612 9.556939852689982 0.6647296688847455 -1.6752737414037084 0.6928390255264519
Ni 2.1958127382371027 0.29024505777695453 11.845200081919268 1.374810769321097 0.19045832332699456 -1.7847531137834747
Ni 4.842584942166145 9.20724684179103 8.200018331778532 -0.5137357222009604 -1.2745788836815275 -0.5634917105781649
Ni 6.523565710976731 6.791044770039798 13.164022247683587 0.1365865130092035 2.201524565352544 0.19922681354824398
Ni 0.5949758569272727 2.2620962359197847 0.18447399983795656 1.7402709722106997 1.0313370980049141 -1.8835824626485624
Ni 4.536247441580097 8.171922717927014 12.232615730160962 0.11022782051001662 -1.1839868351245675 0.14331329021007577
Ni 1.4560048960279894 1.0687672469488698 8.203712049850589 0.5577383530341556 1.7208002650805978 0.518739603173455
Ni 4.806259927877695 0.4481726957339539 10.793347464387576 -0.9547750451784589 0.7112995462244847 -2.626953692596611
P 7.622329113100273 8.521921812042036 7.218271955849584 0.4120287946777614 -1.9117715234882688 0.5393228266414454
P 1.2523418330288416 8.593517030766638 3.2850715501558474 -1.2302777477713072 0.8107552158196619 0.025753197704704037
P 5.061759360761113 1.784710016249782 8.627532764914168 1.0239572606010754 1.3486811621135804 -0.04194292009068905
P 4.88528590529392 4.995136817054478 1.532325097814172 -0.4065711139972998 -0.6855067535310968 -1.9448279397226056
P 5.739352257574971 8.689627160612016 3.8840877055352188 0.02802888111275818 -0.9436843345819359 0.2706176065864049
P 8.158558653816225 6.087364165271827 0.6676362452437918 -0.21794495878303755 0.208262441387951 0.8528883975442859
P 4.094385710864212 7.55917237319404 6.820958989092015 2.5881436617079494 -0.05959457173418124 -1.9076713852769662
P 8.973512280056331 1.5027932473334122 9.696490254354256 -0.3194814221666433 -1.367325002467013 1.2317005962607628
