# total energy = -340854.45189127576 ev
CRYSTAL
PRIMVEC
9.42944842734540 0.00000000000000 0.00000000000000
0.00000000000000 9.42944842734540 0.00000000000000
0.00000000000000 0.00000000000000 13.80095091667057
PRIMCOORD
 96 1
Ni 1.997223169621544 8.750358351667979 8.954650179307299 0.35818500938442827 1.4734004913715528 -0.32903692706556237
Ni 2.551174972658067 4.815779580087561 5.641676673940181 0.31294387815844166 5.4259594380988885 -0.16784315703063998
Ni 1.9529330506561065 4.678854560394754 0.2194091192563933 -1.3060610134502089 -0.5032453641925978 -0.3371775538948258
Ni 4.916910413790843 7.205890145241129 7.0552396205097665 1.5906895896037252 0.1047112615671616 0.9417374952682104
Ni 5.395869813988932 8.478337625264968 3.863410952998399 1.2124517753334796 -0.47931482151892935 1.5250323566152315
Ni 7.792307538994705 0.8099528396140312 11.10351396573842 0.3348576475123975 -0.1254857751103516 0.05857127267598945
Ni 0.38591997613590623 1.8739991384015449 5.533918823926721 0.6392217544216281 -2.6890154949243623 0.18599206002552485
Ni 9.421254173314114 0.2998819174839504 13.337307850638732 -0.9413924532239659 -0.7610146540614249 -0.4424308040083864
Ni 5.05847472207871 3.646292246749607 3.050009764117674 2.928860596214601 -1.1086167457236842 -1.8153091321934607
Ni 8.894958942329035 9.154513937994913 8.485542666759857 0.5144060087951076 0.56266587224276 0.22420122410539453
Ni 1.493464320226286 7.080591635381062 4.999560471645634 -0.6842885648532796 -0.2239016905871047 -1.2310591060220217
Ni 4.332463774745331 3.733891822050632 10.36541069382312 -1.9298792888325733 -0.6215379639886199 0.33340240312310965
Ni 8.51813932680917 5.0854146560544935 3.4584491488363476 0.3149969040327285 0.22984890930947513 0.2900410054183392
Ni 4.718439384626584 2.2926572163122225 6.933914680190265 -0.2753841747371128 0.12982631146723447 1.6316454631907962
Ni 4.3859193175205196 0.7510913940917936 2.7588793176602984 -1.2549737078560903 1.06459611716836 0.3001593247992637
Ni 5.845267893566062 6.830173775179844 0.4209437761940974 -0.9090245784162215 -0.1367250954695968 1.0884765233303832
Ni 3.5830677954693737 6.580151951809912 13.009286573347104 -0.1179187613963711 0.27242277811594373 0.3905225451748694
Ni 0.028850340214318107 6.134469074888175 12.681721681356292 -1.824171210569781 -1.3489930369270444 0.32816069510819607
Ni 7.564039453000388 7.535543660044554 10.397512307833326 0.7459870703043411 0.3106393983949811 0.024869252437853945
Ni 3.877219437182556 7.9203123005352225 1.9245975583224597 2.9985873712867774 0.23814534499031245 -1.5536520772344533
Ni 9.045622668288106 7.621728818090987 3.413471623085179 -0.8459780435776979 0.2805564629666717 -0.8986558335873879
Ni 2.2772683565822684 0.7230821606715392 12.947762251606889 1.034297980405451 -0.4123147013492964 1.2557458101354244
Ni 7.793778532939481 0.2214873696758062 5.114356461917941 1.7510240969621456 -0.4653287916524824 -0.8878759693630646
Ni 3.862971540704639 6.129961798570211 3.9213605708638433 -1.688057523431938 0.797325315567001 -0.9660411050105814
P 3.169105582843939 6.00929314785684 1.3156626418757886 -0.22993992636138463 -0.07273547999151345 1.0197655911172308
P 1.4197543223653486 9.495548796973617 1.2918353688049427 -0.4037030484208854 1.574627651044856 -1.5033201617491205
P 2.3761361226782047 2.6667140034614527 11.245870347688857 0.23158568949492372 -0.27109917420851376 0.23665641914961177
P 8.970592547656217 3.792203530733252 5.622824377826152 -0.8332140590438102 1.5010146535443953 0.5671912709169393
P 5.308232520894452 4.028043463763814 0.9702015998350499 -0.43746497536267887 -0.9128478088170537 -0.9242863896712985
P 9.316125253504522 1.7666071509846049 9.47618825359277 1.7163190893807925 -1.3758975746273723 1.2886201922659422
P 6.509270788458156 7.861331101018763 8.644087525661512 -2.3276821697189396 -3.1040663642578994 1.2192006640215391
P 6.936198492584013 0.8135671471719303 3.139881836474409 -1.1878360336673286 -0.013681868362466758 -0.49489467823505734
Ni 1.8511421555673484 7.963989505357003 2.580377974241196 -0.8312564210968072 2.2309775805063383 -0.194276154411188
Ni 7.145815129714451 4.910526677248455 0.4656827369016584 1.6364038038113884 0.6137647478011042 -1.8525926991352675
Ni 8.897089997659286 0.4347400020953815 2.2040260593601824 0.06471183835608856 0.3795341644841657 -0.010984781146277855
Ni 5.9391097636840176 1.67085110284877 5.078529272859143 -0.2332733616099918 0.5969361062795397 -1.4593697243100994
Ni 2.634814179646236 6.99510425651356 6.8385782425066255 0.7464858643176305 -0.5001844658790869 1.5966126399563791
Ni 4.2797908761843475 4.598581666472512 7.290117749807207 -0.8917099983971739 1.5797472316596084 0.21530057918165502
Ni 1.3241397159549728 6.038722456200704 2.764675599569614 -0.6209574088948016 -4.692803201010627 -0.2548469740157095
Ni 7.323890262067502 8.496244147708095 6.9574873581552845 -0.10028485036469181 -1.0044706126313734 -1.601494650639029
Ni 6.277164916979715 6.660820882563439 12.027887503579873 0.2657646493694778 -0.5963756057903793 0.3798200711557007
Ni 4.2784330356199405 8.661730966495284 8.770407244779394 0.18699761847190374 0.9876759096715377 -0.30262192740714333
Ni 3.7032366854194554 6.4940610882471175 9.15430837602058 1.041314006711968 -0.39590592097396976 0.6062141891473559
Ni 1.0248490248834417 2.8924078500524137 2.117797525851275 -1.1868500156049753 -1.1492741142337304 0.5879997230218582
Ni 3.494270680226128 2.497521411467235 0.8431633567518362 -0.7827415042155552 0.45409024262418574 0.6867437112619915
Ni 7.491112099353657 3.32543640726974 2.006106652925214 0.027943777598119612 -0.4148518659488533 1.4386067807311353
Ni 0.674386603430468 4.097651651586437 11.765586652550414 -0.14814490727076424 -0.8949256771209942 -0.34447691576971645
Ni 5.221811626638919 8.909499151706234 11.587168288276915 2.448614264020338 -0.002313992845157305 1.392956329881872
Ni 0.8177792817561034 6.979366507194141 8.327204312777372 -2.1672628159561964 -0.8611475522292846 -0.4330349646157833
Ni 3.876738535315995 0.9204678603291087 10.524508118398902 -1.3266293245198635 0.9733219549427108 -2.658214450383106
Ni 5.694679603193903 1.7973188643059654 1.2154266628222448 0.4772581961002168 -0.13626846754815242 -0.20631843028770275
Ni 8.003461176208466 3.323079045178754 9.444928689321465 -2.2679271611474943 1.570408984977818 2.5150438563984814
Ni 4.259281825992773 3.494902453266512 5.053549721198223 0.0356318902709967 0.25495727434132864 0.3881152212849574
Ni 1.1063100292995398 0.5059917427678393 10.950143988098898 -0.3317846650140286 0.5888864965021858 -0.6003549021531016
Ni 1.930773847000842 6.149989946895224 11.150077524704404 0.12081588043850806 -0.4912231429207411 -0.6023135685413691
Ni 6.070395973255186 6.196561992364736 3.227711490315514 0.9904455019968748 -0.08456538274690598 -0.4310017362358383
P 2.134685667871096 5.381819935926658 8.599055309109831 -1.546007930425634 -2.2533996569552803 -1.2125057684998666
P 2.587176606511599 2.27837160204085 3.1398130015013517 3.237535414684044 -4.936006934360455 2.0364124340998218
P 1.2677233263935055 7.74670672670668 12.655789755410614 1.6261065356504383 1.65450642694937 -0.5598037202036166
P 8.288692559769359 5.335313896595695 10.841198970536416 -0.6583836720620596 -0.6080342730752303 0.1822778443987312
P 3.285304675032801 8.359479428637474 4.1844346366591445 0.8922597002530569 0.12293652632593666 0.7171570334465261
P 4.438752516703689 5.840619175522638 11.147911580415206 -0.870179580524566 0.739392704916275 -0.01283931785651337
P 4.5279739571233115 0.193404586558313 0.10607469348049703 -0.16120174045472238 0.045316207438296154 0.13650269504614557
P 6.790164625771636 1.0908645928794023 7.064748276239966 -0.6715993994213852 2.031000776165947 -1.1795640234665234
Ni 1.4655342941722889 9.429420075597289 4.275673036083814 -2.091008009957515 1.1969169129226742 0.29383981033913914
Ni 7.546010347728529 6.1310839029255195 7.523891690701229 -0.269350052727891 -0.5730335886303292 0.7704408324713312
Ni 9.426713823916838 4.177679379851216 8.019331880749819 2.2305358649832296 2.194813986101588 -1.4213657342625003
Ni 7.034707939642119 3.617617294274859 6.831608937220835 0.5273083186790725 0.21891066513041654 -0.561782184086226
Ni 0.10570505910463049 7.609885430945876 0.8128910557242356 -0.21174345795801597 0.05722864260516596 0.5611648622172012
Ni 7.66957383908963 2.9909455854556115 12.299724355739786 -0.3305302237816372 2.009438990834772 -3.3100798617106735
Ni 5.684429792822297 3.5569293646045255 8.643963056943107 1.3645595239067339 -1.6665628438932718 0.4718974460089357
Ni 1.3845259032776598 3.561568653199585 4.425716304340538 -1.6957230103969958 0.26719983915410755 -1.2627939752314574
Ni 3.3192035419011736 1.2115898202829565 4.966547972923472 -0.611814823163585 0.9551221441052324 -0.3062980907071499
Ni 7.705434031217703 1.9206937666997876 0.22959009465494187 1.4665554434252615 -2.2561844187892692 1.3221322079804585
Ni 3.25133980202588 8.070598848559737 10.956768175574565 -0.8815667393155849 0.023028342574373247 0.5476606570831793
Ni 8.709340251284829 2.082851990214505 7.512478286401515 -0.591728079716039 -1.251824363593831 -0.6598371166791346
Ni 2.3123741928412263 3.0078242980270686 6.614685420553178 -0.0034805023494327153 -2.8026955356490375 1.5602803811842485
Ni 1.9893590096860159 2.528044535821316 8.888295151170237 -0.22341575208962167 -0.029006414534679077 1.345159007892935
Ni 6.401331893036108 8.708453883138619 1.6443835842360202 0.635288480805493 0.6685079049802551 -0.3826403142133152
Ni 6.586299952143203 4.250701027981586 4.584068802495569 -0.3414664110781668 1.2747974274502367 1.2574429953321893
Ni 5.3819708071004815 4.297527668556924 12.3343238306216 0.6248184345121046 -0.0836824659213204 2.1421367103125304
Ni 3.02956860595432 4.135143138281472 2.7762823075607903 -1.365935064098022 4.422891619352312 -1.4277202157256186
Ni 7.951222032272226 2.467790360775725 4.14282436691874 1.1880417219202313 0.06905134627170689 -0.7585080855894872
Ni 8.22351621267779 6.93920648661211 5.44740080635304 0.4826426003405817 0.03537889371992616 -0.19559487322261151
Ni 4.230210836686739 1.9395149456342167 12.422359989381874 1.4410277314678022 1.209019352613163 0.8611184987635622
Ni 6.071612372094135 5.545392576695966 9.70012256511902 0.8999976923272629 0.7000003191615815 -0.007664201413477124
Ni 4.714403580726817 0.11615477378155144 6.333781210846499 0.4419950020225485 -2.637507299742741 1.1658019366854244
Ni 6.21697674807267 0.4652357810492076 9.06504450308332 0.34851303351230295 1.3960851053188408 0.6244499954290923
P 5.041218831572696 5.8235141561904475 5.579613930698386 1.3809207388735767 -2.0691322929303464 -0.8093989589020835
P 9.302009369303699 3.619588048982922 0.7647367488192547 -3.1410599107631128 1.8077043232630094 -4.076074999705825
P 3.070633853579289 0.9813038323387556 7.696113964454783 0.2604990300951643 -0.32816043799788 0.04543884905908948
P 6.133469553361597 2.2250857893362115 10.505738801430475 -0.4917617890330304 0.7148983193193365 0.8921321735362571
P 0.44707277761058173 8.682664341863237 6.1791967202577 -0.9926844186297228 -0.351986079662568 0.17445937679557696
P 7.228539680211318 8.856449075210694 12.883546765303604 -0.25803025683969755 -0.10297833803645491 0.35523029763147856
P 7.735165081909215 6.616238450698719 1.83777591251146 0.11948764854538776 0.26003648863644896 0.03172047103173247
P 0.17340849835773678 8.06271582972748 10.222695049890016 1.5995673517093292 -0.4698968706391391 0.4356942566155012
