# total energy = -340886.55253033416 ev
CRYSTAL
PRIMVEC
9.13106457277107 0.00000000000000 0.00000000000000

0.00000000000000 9.13106457277107 0.00000000000000

0.00000000000000 0.00000000000000 13.36423598440468

PRIMCOORD
 96 1
Ni 6.56754545320581 2.427237797356528 11.853181690292928 -0.5948434854165691 -0.40620678867934557 -0.6822252545663476
Ni 4.538951664836466 0.6930943553660983 6.429052773442412 1.0787269001427873 0.7590912117864669 -0.3624268153799177
Ni 2.7712780413122546 1.6897125957920067 4.984966722754536 -0.6331081853247226 1.215249906903907 -0.13016955373926614
Ni 3.2967434035639727 4.256947872322833 4.649791829211693 0.6051955180748545 0.10560214881254716 -0.13546499781025056
Ni 3.628968050203528 2.6115026766767295 2.417389944415654 0.8758848584394593 1.903081709023755 1.559075819353186
Ni 5.339453817474894 4.5217761327254005 2.818797926592641 -0.44621032565547664 0.3766920670496802 -0.40927385764044355
Ni 5.324707148490646 3.089851746693946 0.45989244957272035 0.24478701867654615 1.0270616105580117 1.2444895204953146
Ni 5.651471418627056 8.273940503632009 12.831203604989225 0.21476424706221076 -0.04576152250583086 -0.12404518600908314
Ni 2.725759685345396 5.738225661363489 11.522764081295465 -1.0367379573055113 -0.7084422792813476 1.3555830314397364
Ni 0.838663610029058 7.528635635210164 11.790757168614405 1.3225582397742834 0.07164533225112822 0.22778354214001414
Ni 0.7566045606001782 0.17703307632606918 4.493109156083886 -0.29589283621342594 1.04304590180141 1.2423843012268538
Ni 8.410039018313258 2.2548067774812703 1.5028882791242602 1.4166798987510572 0.9074263806911662 -0.05690751182032135
Ni 1.4809034154008085 1.7889033482228966 2.626754293521553 -0.7935164833438721 -0.8764307036406002 0.02887451694250511
Ni 2.102226691582332 6.891104719742547 0.7484240400162848 -0.24094064834726248 0.4773674679845714 -1.9394072829276663
Ni 7.777703678481578 4.155072586962303 3.8031942373371774 -1.6918133909299444 -0.19000503783965986 0.21319201747908445
Ni 7.78817700933293 4.1335689303320216 13.084415325279249 2.1554550246879907 0.1159133009305681 -2.2288901018496903
Ni 8.065176978562745 9.469735564627765 6.936158304532131 0.38866415180989194 0.31914872141757294 1.221856099366515
Ni 6.805281845573539 0.8479508156165989 0.8137093241671064 -0.916263519366822 -0.07149158028208333 -2.0938326238905036
Ni 2.072030261656073 6.717413612981948 9.5533834192599 -1.1276182265268515 1.3901965077485476 -0.6657779076436018
Ni 0.05688196559589684 4.803907760140445 1.796554267072371 -0.5790008619573577 0.42780122702066964 0.3571421699422107
Ni 6.813107167752796 2.4509146473108037 7.612428673766045 -1.9729830620005828 -0.6731382046634149 -1.1167149493507866
Ni 3.719529946789146 4.797789947001469 0.49100198593763256 -1.2052997376697305 -0.65647694195765 0.7793571611243545
Ni 6.065373436204133 6.032958157631947 4.7657399110047445 2.2216979549766256 0.03884294100912665 2.1922981616582695
Ni 5.721607124180002 3.4266601876555405 9.716908912038972 -0.29273063643536035 -0.06815634526126327 -0.3723751848418813
P 0.41087963526513627 5.649325618496221 13.231034652346658 0.4935535908261306 1.5727993395868656 -1.94961199137481
P 4.301151355018031 6.55917226716336 12.8523858481531 -1.4729214948526055 1.3380295959370054 0.04456467398425228
P 2.5576567899893545 -0.15367946605107669 1.5956900258038937 -0.790834822746651 0.2588663795877477 -0.2445440494278047
P 6.408409263077342 8.331265325850653 6.106159161499453 -1.187705164516419 -1.0022329815501063 0.08841535262061548
P 4.838386659263987 1.348064690705551 12.850808913333546 -0.22839855001619377 -1.8181481443041527 0.34820501535358095
P 4.193541761222759 6.423859024019352 8.234948119382205 1.586910839287583 2.4079646088197757 0.5994527020538063
P 4.659920005829234 1.24221739233688 4.065614636061017 0.4821510054161438 0.5577198410913943 -0.19877249961964477
P 0.3167219255241026 6.085324811888704 4.064197494868227 0.26221755544816777 -0.7714255649821037 -0.04885301694696102
Ni 1.0279387043781496 7.753168508474968 2.8436417265755156 -0.6979619485753141 0.1923534834671784 -0.9207174413731176
Ni 2.333607863137036 6.672123533624752 4.975919664160362 -1.6628272881102395 -0.5562828515345516 -0.3190150240531861
Ni 6.3864125289701885 6.260266874470258 9.454180796445307 -0.5483507411716686 -1.44932545270022 0.8221752847311453
Ni 8.676656967335587 2.7731042541895614 10.48956223140492 0.8497120566988334 1.5402304045119086 -0.19529919635906365
Ni 2.4328990572761775 5.813036471882341 7.34557240396323 -1.0230753722167543 -0.27640824512625295 -1.9510446100562786
Ni 0.603634578251935 0.30046223917100623 9.123776884044426 0.7902735509265423 0.05739293609717212 0.10572607598492113
Ni 1.6893930085384783 1.7475487576162962 11.508611844602779 -0.5651328457260139 -2.1704764377974874 -0.9876396571169637
Ni 4.28456934209209 7.164251379801245 1.847578654864308 0.018925376149593214 0.09093837615278531 0.007027339160426607
Ni 6.039158150350402 8.49314083529508 8.61774060059437 -0.7944065992583093 0.4402769908901772 -1.7909209331570832
Ni 6.7735605278947295 1.0809171399488042 5.088579649667823 0.7317079346775076 -0.17923468669703327 -0.849683260343427
Ni 0.5653955068140192 7.85582906537274 6.986608348374156 1.0574636198886367 0.5386839075058658 -0.4832326685160968
Ni 5.622279405783315 4.88526554382444 7.541398123903218 -1.571750843717693 0.3084429049642946 -0.4431633112990368
Ni 8.345391082456617 7.598150428384827 9.419621543955163 0.49559350407429487 -0.11595906656683899 0.5275158067041883
Ni 4.878225493182423 0.6777030332361611 10.824349054711336 -0.23130363947813068 0.2661168905025739 -1.2871014416285702
Ni 8.208461640916193 7.714772382729604 4.9367757042417395 -0.39125273847267455 0.3127716142466355 0.21746313405061257
Ni 7.5739348456317455 6.663905575676874 7.1327062916650945 -1.3195811594238307 -0.0889434572099436 -0.29759542072682943
Ni 2.333059999273844 5.755793829243176 2.7389604651290047 0.5918113834584646 -1.585219053407457 0.25376351114354356
Ni 3.5638179058056267 4.801506290206787 9.39054093009694 0.8494778292008403 -1.4236691855846964 0.47427083133711867
Ni 0.874814407041774 3.9277182148020597 4.056152114037254 1.7825633052210077 -0.9626950713564838 -0.14788985383716466
Ni 0.6682076393806071 0.3696684023694044 0.2607037586191716 0.5394925194500901 0.06824684809254053 0.5992490706834325
Ni 1.5850432047291982 3.7879033569154923 8.265873208246509 -2.2296825158439986 0.2999950313072575 0.44220351848892875
Ni 5.57067062987064 3.0635268880675763 4.98095727238241 -0.7310523033713797 1.3969543952976715 0.7724203247952052
Ni 4.031839742001677 7.487929350175007 6.168102476084805 1.947160444510524 -0.3476684261238206 0.7546735423347454
Ni 8.559331921033046 7.396801327597424 0.6987866609046619 -0.3524267667444124 0.2085432058531634 0.4227245838287107
P 0.3313900673546265 6.14543460874524 8.10956490875855 0.1803189209001475 -1.9293997780929932 1.7517522333774218
P 8.868674120319954 2.0457054030297033 8.308090684437635 0.0400223060292085 0.8125968970140909 -0.17303987074023103
P 1.9766197698812074 3.6604610912726745 10.492100667304376 -0.5291065482300757 0.6210108878405562 0.8954627805713867
P 4.311980797380457 6.131792798551762 3.8810813034478513 -3.2135737616621234 1.2540522244830852 -0.6389561594650673
P 7.136228143198981 4.506225930075138 11.09033787339743 -0.40216244340664287 0.7610542490501085 -2.3165528925749976
P 6.464273114994141 8.212059280284487 10.694221343032439 1.1180262119630422 -0.25095303827794196 0.20348918836902374
P 2.260349333563895 8.877248189778907 6.158373326980954 1.1037429625711506 -0.31996016157527474 -0.7998835632124806
P 7.046314552184806 4.010993522007226 1.5142345397309638 -1.7300572649024915 0.2870068465777057 4.177717649649992
Ni 2.798470351055345 1.8862952809696396 0.2687573574080922 -0.1368485084213385 -0.42158841334173847 1.29525029598795
Ni 2.123365105637152 1.5220936468484516 7.380453069919779 -1.9710665617041598 -0.5289106301691858 -1.5931550204250822
Ni 7.205377693798182 1.1966533810480888 9.651517707541268 -0.44174611923653595 -1.0281232190533067 0.20484313129375686
Ni 3.0533366202122076 2.1412802539635267 9.251165276407363 0.6199063419224679 -0.04848303520205199 2.8506268121126777
Ni 6.290572877169155 2.2769222154254494 2.8131184045442184 0.49586784078160406 -0.7446570386390078 -0.09612120590530543
Ni 4.413116466525678 7.365700922296899 10.440648945699147 -0.840038023944179 -0.0323295653706411 0.27957430155906043
Ni 7.8320609047745995 6.569956054203853 11.86777587050192 -2.215551475759255 -0.17272105394823156 0.13905734314719922
Ni 7.696893758660776 4.425096423000807 8.304028273892069 2.83238046430798 0.56836009441406 1.204632536399377
Ni 3.178194794633636 8.727763534707002 12.542949598903013 -0.4570464970390322 -0.15120503425332668 -0.022146454190052182
Ni 0.2245730499481058 5.313037648204659 10.754921919754782 0.7985599593050504 -1.2800067395653183 -0.7950249495685985
Ni 8.674483774011591 2.665722937003953 6.1236661512477495 0.6393803914866796 -0.6226725918136954 -0.8156837634695306
Ni 3.818547208996691 2.9448139199782823 11.757560270930732 0.24533517787053233 1.0919883931383836 -1.052257135987033
Ni 1.1654890582968573 3.6282193029238323 12.77971079359426 0.05093766739013163 0.7192036315629098 0.6103171555721361
Ni 3.527047109521065 8.794201159183404 8.36038520328574 -0.6889386620307811 -0.5405705830056174 1.0954362424776685
Ni 5.565849427874551 8.393036976425538 3.671516070925448 0.6644388771172041 -1.0461358535806435 0.9101064986264906
Ni 3.061207597713397 8.720723484064987 3.8566776207684073 0.737741028245465 -0.17532121057524 -0.4373557034783242
Ni 3.8857335807527886 3.181637205907359 7.141045692769314 0.8400606496519983 0.36466521779213323 -0.33767249125337334
Ni 5.020651835483539 5.091563681509341 11.540965945043576 1.5030674223083664 -0.9138345982103552 -0.6420782500338168
Ni 8.055443263926701 -0.02519717217463317 2.559825417781156 0.8815091466047723 0.19351690764766027 1.2030783045383797
Ni 4.6135707230032 0.6542498943593554 1.891467115838171 0.030914430190669338 -1.2849625409086969 -1.309522746746564
Ni 6.1131380340100785 5.923065797740043 0.5402494685999506 0.7631838937986016 -0.02289798764409605 0.3536354423405329
Ni 8.212744110113476 -0.07972058383948896 11.844749152331964 -1.2349018768068798 -0.519077446128848 -0.8999534693528887
Ni 0.07999999440971683 4.975836571474443 6.129867970179082 0.7697831442826742 1.2360624727738843 0.24790988057624402
Ni 7.619736264594587 6.5724123105238315 2.947228173402081 -0.33642499199951736 -0.3450775254681928 -1.0337948155167873
P 8.600987836764402 1.9069040932900407 3.82095507067542 -0.12190679950984165 0.10594384842268205 -0.03325567672933628
P 1.9281703422462722 3.7921310397264563 1.65874185160577 1.0499259167506951 -0.996410204220742 -0.06185739962642896
P 4.94051761442734 1.6042823573916198 8.504077111110828 1.0212262348231573 -0.7506726487054685 0.02126610846762789
P 8.508426237078133 1.8612031160354516 12.477678924455208 1.6356486708129185 0.4886620670617843 1.895582572433232
P 6.428031920443997 7.938629557229806 1.6179679966941531 0.13112574700494836 0.1549429040292041 -0.2013477165459887
P 1.9303161423771071 3.475776182990692 6.142269781828868 -0.445872996920716 0.06504865287021701 -0.6722162070697777
P 7.073178143609981 4.390462295782694 6.056150148067298 0.1172595305458174 -0.3407817263063163 -0.049637974742101604
P 2.169349145887724 8.760480138403944 10.484189513119885 1.1170774748965278 0.1519416553090351 0.172483998236761
