# total energy = -340853.351569989 ev
CRYSTAL
PRIMVEC
9.49182093539153 0.00000000000000 0.00000000000000
0.00000000000000 9.49182093539153 0.00000000000000
0.00000000000000 0.00000000000000 13.89223938690774
PRIMCOORD
 96 1
Ni 5.319539150885234 3.551630558459935 8.39156508485101 0.42481566202978455 1.0075582504177616 0.4434242782699074
Ni 4.910811851370449 1.33773926951106 9.19478669845009 0.09719721257830358 -0.9424280935773317 -0.4139512085114548
Ni 6.590370574914774 4.274670015057291 13.647235671304971 1.326947884201547 0.22014453753751764 -1.002292631143448
Ni 7.809490558714025 1.7143462471206865 5.285205336347604 -0.3795742736934818 -0.32465088218272475 -0.43063329715282606
Ni 6.649523602725929 9.278245432024406 6.7239413768987495 -0.28103905903004506 0.921811959988877 -0.5903967624991251
Ni 1.3186227422306256 7.877129274404378 3.571583315161127 -0.0061660196013958325 -0.11733383542717858 0.725888499782253
Ni 3.640502477490077 1.8805005718694454 4.533107619265481 -0.9327831142884 2.16826940284384 0.3419932301159142
Ni 8.99300672234003 1.7509562003086878 9.152040283054143 3.2715120287398043 -0.6543362414655635 -1.8902323638649126
Ni 8.68605072645028 5.177959150430936 3.789483250695395 0.29585581232790337 -0.08023924456772633 1.1802435660320514
Ni -0.3024170071382612 6.729264390056082 5.929888862283237 1.7082620234042707 -1.5679906053443124 -2.2158103858475964
Ni 4.4488828957450215 7.8939582728493685 5.814707514099219 1.5584610685873224 -1.646286867253055 0.45482043592199084
Ni 2.9082179873420038 8.158277009283456 1.3178235309113544 -1.210877231757508 -2.5396500849829358 0.5303131669436673
Ni 7.176015924072069 2.030376423785064 10.192694101223077 -2.7368338999592217 0.7128532638648497 0.5804242246674455
Ni 5.0640098405989535 7.169903191416358 3.170986709424107 1.8868896726449245 2.9342709685968953 -0.306304261354737
Ni 1.87708351634762 5.336994609509226 5.357570029661061 -0.20308475384175348 -0.10184113910821815 0.5555140916893271
Ni 0.8619788324789549 3.047795213587677 3.9524530695342306 0.4340708620794653 -0.6675401417503471 1.05504266915197
Ni 8.729200544234219 1.4770697084134898 2.4818767157942987 0.6810273776035046 1.4863809627916207 0.9504355372628407
Ni 0.4466737010846559 8.283663963292659 8.726813351279388 0.49856287111526393 0.01964734191728229 0.5092733155542326
Ni 1.7007919268841125 4.708863870030569 10.538611174336266 0.9961134989159295 -1.7404972292888925 -1.2109155411946113
Ni 7.626611645550109 5.314745781333785 7.353661996377143 -0.5936209258633777 1.5433005587968003 0.17108120435196345
Ni 3.922513968070504 5.265597132744863 2.8726787115508414 -0.6180466630059098 -2.297424399275662 -0.5931028485763785
Ni 1.5936102853495229 5.951172372273761 0.4543592284624948 -0.09190922470648688 -0.5543576094873808 0.6159337304279651
Ni 5.287608665397954 0.38959653450300996 4.148277877215417 2.0490720318453617 -1.3890909333891948 0.8026932647471337
Ni 0.4625240927954787 2.2150872583815135 6.599022369659619 1.1945787517078006 -0.24536114601246128 -0.4543116146063724
P 1.7909452417349385 2.219994529783691 9.93595173622655 -3.321413798666254 -0.6323664220626916 -0.5878516274797682
P 2.646291189773195 2.766799347842903 6.355810595347429 -0.4091962103249727 -0.9155482384673523 0.160773137557736
P 8.436700591565966 0.6016200837218276 0.5755413058156743 -1.1997577248055789 -0.41761657317818396 -1.0133015806594419
P 3.946148602096463 8.861212789227405 8.477599898615948 0.15795520849296665 -0.593035742783869 0.502449864874496
P 7.621903702386704 -0.21589146623310623 10.849061109497084 -0.30437002044650163 0.4727667359877664 1.0088854538696173
P 0.8713928204415838 6.604788650852699 10.201807198463369 1.0531513656665283 1.4324402469091073 -3.49160822953789
P 3.578967002634538 6.316427132094213 13.628411492108071 -1.3561309335234066 0.40988423753093284 -1.6215479697454782
P 7.008940892696596 8.616893319416892 3.8534154103266585 -3.2199794080781516 -0.4965111307925578 1.1890814760386554
Ni 5.421652160062449 6.090711631235859 8.860803691746876 0.40248614529464877 -2.301325791212598 0.6016983035548734
Ni 9.149849570791817 2.4334371062261555 11.428033708565925 0.5003575011218415 -1.8743722569042043 -0.5835190615426854
Ni 3.9023438486708404 4.835152547024699 11.783494807587989 -0.3801358026239066 0.7559259266846079 1.1521956587558995
Ni 6.9008480363561855 6.708970876984797 4.914657937196681 -0.11306760395165688 0.09195241923959648 0.6183965901461609
Ni 2.4626054718332924 0.44242800959878786 7.33383832844011 -2.8689055558172076 0.39772060558520533 1.0834901258593856
Ni 8.12582447364701 7.696670775568422 7.438168626978154 -1.8645442150701887 -1.137190700706635 0.608433565396178
Ni 8.506835656151432 5.607663374121372 1.344634128208432 -1.3223404673365227 -0.19858763730234832 -1.4624499058973202
Ni 1.2106248040991558 5.974256480687871 7.788350375218997 -1.3135390669948088 1.1603967065094531 0.3235519926915912
Ni 5.9119047092354515 2.7192548169850608 3.518084565056504 0.012976871875642167 0.2958642969683356 -0.8256601579559523
Ni 6.0360007756030765 5.29658792796364 10.965686163639074 1.3716747947952763 -0.6736665663630591 0.18793350002261183
Ni 2.309910549112168 8.745469525246465 10.184581441905012 -0.9356208408475113 0.2937233393659328 -2.031493913752282
Ni 2.8329098803693302 3.7181930315071345 0.8732124025069559 0.08873005564755687 1.175779616723427 -0.6825687539486954
Ni 8.407010175809662 7.143164731958075 10.716876113363627 -1.3464623000853908 0.15046481365319248 0.8025821930905661
Ni 9.48073444715524 4.268282019595657 8.653295401727314 0.08931369606516876 -0.806726554276243 0.26358229700617836
Ni 2.14306332143815 7.618239859521636 6.471824376223847 -0.37590222415853325 0.6293947410288774 -1.129876426433409
Ni 2.377900462175599 4.090690050669677 8.231582342047504 0.9754372015135007 -1.4516692703420484 -0.40197063911081093
Ni 5.200188994964589 7.292641927396147 12.09777848920788 0.726240483805033 -1.282769647022436 0.984831241133891
Ni 5.282559016682368 6.078277345864771 0.8030127935394109 -1.0656641534215583 -0.7166865215680108 -0.3939310566357861
Ni 4.0084908817279885 4.393507612649662 6.363882439835653 0.14996190587484495 0.06547339911246143 0.14922657037071718
Ni 9.584555984093369 8.24439630025435 0.23296345529298157 -1.1588704996729138 0.509010034590517 -1.262373599864587
Ni 1.5088578165873596 5.492442160289598 3.0230623758842867 1.1129323423799027 0.9391782191814664 0.20668429826755375
Ni 4.635482602699369 3.002120571445944 13.340384085445052 -0.17747553791408144 -1.0885981365099124 -0.10917572509641843
Ni 6.932474783574858 7.3111984372438386 1.2498279227553868 2.2567282071078814 0.7333989492266852 2.097036989760414
Ni 6.561192717486743 1.801158441016839 1.265341354824474 -0.09503671459187504 0.33927403141253826 -0.6567980727424947
P 1.0719113335548334 3.158042713271015 13.552573741529514 2.610401444664885 1.4080286508339623 -0.17509289661451782
P 5.831793740890435 2.1771104829847823 6.893815546255852 0.7851058906826737 -0.31995836180306186 -1.0013760328664498
P 3.7337406341314394 8.605038035120335 11.643238916148398 0.8210941358518247 0.34303581244781567 -0.010559777793717298
P 3.190314904310477 0.5634534719072171 0.5552781665712498 -0.47570319290827107 0.40202360383593344 -3.0557576498501824
P 9.347345888132429 4.379611586860906 6.121267701057692 0.41603637317525766 1.0702479161374987 -0.7186153631596075
P 7.949115244064167 3.4630054267730364 2.696247592320192 -0.5267424188732734 0.5935157677440811 0.12993661179285365
P 5.3205357920791 3.8085171991340516 1.4053115424551568 -0.7207691762778167 -0.43473549224665775 0.9495695897181194
P 0.36280966675816717 7.103536379725794 1.8376374070765038 0.7537320043570825 -0.9707053432554701 2.4379668116088204
Ni 5.748370127053425 8.006967892412849 9.744280549368561 0.35871157131185966 2.474636142005396 0.6858679935252575
Ni 0.3464258347131039 9.135801675868757 6.386776711831882 -0.6264446572616178 0.5706069814667076 -0.6753742930827852
Ni 8.675030722392393 8.752863653722859 2.87506875205194 2.2880828101597626 -0.685411108493497 -1.521008065947187
Ni 3.5351147901044455 3.1397519744083553 10.182969730717216 1.3116667896727603 0.9623741976819555 -0.29675904086846305
Ni 0.8325826631703627 0.9527415222311734 13.371683364842882 1.0220649286743688 0.42251503892106584 0.4694834372508043
Ni 7.924436509739872 3.1509143557796517 7.213669977558405 -1.7387025992823153 -2.076947418099391 0.5860873364904939
Ni 3.1705434413883595 6.675986799378288 10.01065046829783 0.9257249218900379 -1.0574697905362238 0.9084149698566806
Ni 5.087634982804018 8.656028096962686 1.1602241843343208 0.6569986187890751 0.8666671964959332 -0.6689236523614351
Ni 3.469412405876459 6.271388441952376 7.758454936131383 0.8557734324015649 0.25642151759168097 -0.8692478127389159
Ni 4.3667027104451215 0.5746348369203012 6.446429958604149 1.9969123191226703 1.8169153003383158 -0.08552054757132369
Ni 1.0142390298031363 6.221395021303891 12.144595946585245 0.3497417637130815 1.403419948417357 1.8984583513191307
Ni 6.095951116369324 4.1308784203347 5.340801778869793 0.8298307443938742 -0.01678004767181626 0.7904216464686322
Ni 9.335661456611966 4.4884542970519385 11.86513965418947 -2.467483590121015 0.5857618348302751 1.1546338358837471
Ni 2.977508279867908 9.112062631812964 4.522952320091034 -0.046519226607461814 0.7685343594772378 -0.051358299867318
Ni 4.16964301686563 1.0695288865104495 2.2727842408675354 1.9235780292048936 1.83712237141381 0.6831755342947589
Ni 0.43598021566552125 9.69902734407452 11.216107925102316 -1.1277285268524706 -0.8421586698316077 -0.7272984927559022
Ni 0.4505805345646096 4.000802506803881 1.8029485984374396 0.35504517820386594 -2.6949827682513905 -1.2141101368725091
Ni 8.643138204188688 2.846720479770041 13.68856495784145 -3.123877999667188 -0.7747235190070851 1.4976431659690013
Ni 2.0201347490404817 0.6161634516955523 2.3241017705307265 -3.2045198789899714 0.6968975118665417 1.3936029623269355
Ni 6.64326849275681 1.747899833980833 12.566058422193455 0.5145859860163976 -0.3751406634021604 0.20770065534721005
Ni 6.402888128617288 5.401130843289709 2.7261715068704886 1.0367240733484404 -2.224142816972692 1.0558137429900398
Ni 7.065607063433532 8.475227892574546 13.308723167671161 0.863087449564475 1.1029227806627004 -1.6507718996076022
Ni 2.809844755597009 1.0321311121882497 11.4911324863227 0.2043646489954416 1.3908919911536755 1.5354131856289233
Ni 2.0759086886133873 8.017845519157326 12.89287320575755 1.1665737818544426 1.4195556776369551 -0.06278993874302735
P 0.28508209463962314 0.8500713431674828 4.509420780224605 0.02370839936053336 -0.30503850726843595 -0.33541609111902876
P 7.476754777276278 6.155910948956466 12.81270148975881 -0.3219720497989809 0.6624012778618851 0.013982687432337208
P 3.320931851632252 6.920628991099197 4.208265236083151 -2.811558642466622 -0.6113162862606116 0.8437100734791275
P 5.33973774574758 2.9726484675702003 11.209272864876576 0.96412254783163 0.12060299309675358 0.27291642992291065
P 2.8890919682406757 3.0298082129936237 2.8290713879998126 -0.8370594009318293 -0.1257688535684092 1.2195799017378286
P 5.857155886319094 6.559806911636225 6.943493838450656 0.3972228400131804 0.12486845324132688 -1.8110531851305842
P 7.905557277981787 4.293995362397392 10.052647029843154 -0.7149618255674203 -0.6307034325379719 0.3953382213959578
P 7.925157888127813 9.366177660786045 8.593975317868425 -0.1258099912189898 1.434829315966574 0.3054789372399642
