# total energy = -340891.8855736735 ev
CRYSTAL
PRIMVEC
9.05055957526296 0.00000000000000 0.00000000000000

0.00000000000000 9.05055957526296 0.00000000000000

0.00000000000000 0.00000000000000 13.24640878298251

PRIMCOORD
 96 1
Ni 6.330585872481735 2.1698445122941523 11.583441063474133 -0.31996581800222956 -1.0814766949737826 -0.356472911789328
Ni 4.502680552415161 0.2839676428250933 6.13000103524656 0.6562262593994246 0.5350059444336464 -0.5342551823105509
Ni 2.7222816196862065 1.6367756024449645 4.684089063970981 0.004927776318920545 -0.12803219568128918 1.2330295994848313
Ni 3.5820304782782673 4.670360270114544 4.808857363441395 0.3404963338554136 -1.5381472967306349 0.31460121125620655
Ni 5.120661812426578 4.520528255945317 2.4410617267555126 0.16005220023131145 1.0774495760922604 0.899106290861245
Ni 7.186958872343193 6.1173637388778195 2.8623498901595252 1.0863990719760643 -0.8905301191564597 -2.1490871734884345
Ni 5.0066247614732555 4.410192883868177 11.593918896322439 0.9217224855988643 0.6152451890013727 -0.101033041384626
Ni 5.504839966304884 8.023565450039408 12.481097285892615 0.5937847051347516 0.16666482045182265 0.16231040013786885
Ni 1.7709139462687105 6.509090059462084 0.4635895739159762 1.8649609908926335 0.7697515197137904 -0.42739345005928975
Ni 2.7215666254778483 1.4884550317288487 0.38889168531770985 -0.8741465355921137 0.9162352372320479 0.44023379635706766
Ni 0.4207940028498819 9.419550914340471 5.034761141156088 -0.5805260403526324 0.10863373655001936 -0.29085630223078296
Ni 8.83225105137126 2.380568691448614 1.4230620234547977 -1.048450360646433 0.31666863530819656 0.3930252569920651
Ni 6.65074941831299 0.8186004893730698 4.80175719943561 1.4008809840455874 -1.2744886379605662 -0.6574477905113516
Ni 0.7869696886288818 7.436365143225791 2.4623223963106273 -0.05840955028714457 -0.4859500674472598 0.5517309704978111
Ni 7.557000052127127 3.96659780621935 3.869673553356705 0.6184719234687864 -0.4964864482022095 0.23322322509834673
Ni 7.527440924475258 3.8644079377817335 12.656771362886207 1.4422232944378 0.649776390009023 0.22272386822891965
Ni 7.848536677945257 8.599343950638497 7.062733606448747 0.40107718076226406 0.5811184225209928 -0.4520670415465698
Ni 6.8422411583185765 1.1219164185099102 0.48597884825314525 0.07986566327839148 -1.99923479660826 0.059064153152007956
Ni 2.0855566507442878 6.351492665156512 9.205207416402182 -0.4187445161350401 0.5656331824012001 0.20842519221806038
Ni 0.5561152548132786 4.676677560714974 1.3044743511348613 -1.0440684295286535 -0.1707582737949059 -0.1430024438378763
Ni 6.612528905124427 1.730014467438705 6.8534665673898 -0.7865485366664712 0.0021774672672930243 1.912198069502726
Ni 3.37788605595262 4.157075883549797 0.40016234718692995 -0.5007737627236537 0.3180048376211168 0.39643968199025276
Ni 5.950697683853579 5.58636740717691 4.815506809579126 -0.1682509339920199 -0.004535940197140575 0.6016563945733445
Ni 5.362166944778838 2.7131586556099405 9.401068766582394 -0.6790430001836242 0.5730752405015421 -0.39777562719285686
P 0.3504367626355214 5.553133752327656 12.412547442430268 -0.20471303347379582 -0.8635530763469836 -0.6442685728169162
P 4.138341225178895 6.25742114867962 12.552403024753 -0.6360407855904853 -0.7487492064305105 0.31331360279303455
P 2.2669027134388697 8.52023300917953 1.328734376141241 0.6122822497183068 0.16667021976846133 -0.5406505443139334
P 6.371965030970513 7.683653583162111 5.717322669189523 -0.06448275306441799 0.21116573107767503 -0.08514773761293723
P 4.548222968319695 1.2978140443256112 12.443742911257722 0.29557967584838124 -1.3427329149499456 0.6615970367930348
P 4.122466543641424 5.993941257619846 8.06437351821746 0.10748342499566003 1.9666530060174972 0.7075578197938653
P 4.8711016820307895 1.0683190045618485 3.600969679296118 -1.5570672735635895 -1.6477734791009107 0.27799101623234057
P 0.14229289802286854 5.588005558464414 3.4772747761942004 0.6640856075428433 -0.11432873005226761 0.5281282434772067
Ni 1.3051630987203808 0.9144051880132603 2.7936543326876278 -0.13487158720062578 1.0676066218599096 -0.7779376550690086
Ni 1.9981372955730061 6.455456443275623 4.434156050519694 -0.23227165981835485 1.5408801222807655 1.0312411958569982
Ni 6.019092762746773 5.470918468926071 9.119053329462906 -0.40032024799158156 -0.04479581615845188 0.24321581753468438
Ni 8.437981523539545 2.2182288039129197 10.322714402275231 1.2024872079216 1.1791027675593886 -0.1760588600722129
Ni 2.401837506507369 5.502495871368621 6.905088244177297 0.6918887457980407 -0.7718086593531353 0.2657646493694778
Ni 0.2211784805478097 0.0572094922842103 9.234376464935314 0.9256416181476124 -0.47133308886503344 0.19826393541434242
Ni 1.3448769542428556 0.8743093988756879 11.662655181312536 -1.0755860405209605 1.165580821813554 -1.180551327080457
Ni 4.189847959859478 6.747644709384916 1.40867615897144 -0.732856446459654 1.0927468685709631 0.961375324103796
Ni 5.673388537725816 7.71408156453553 7.880752144839571 -0.9758593766525839 0.20453177070092518 0.5517458828961466
Ni 5.101366019360508 2.6958087328577567 5.060022158054168 -0.9423622733364029 0.48584028134227286 -0.269122252987801
Ni 0.8561738875502698 7.393809411989082 6.884065604339649 -0.23142036756165305 0.21091170608534 0.1407236751060286
Ni 4.943008378048579 4.295205524156909 7.024543865162824 0.023712770235907548 -0.08820863592644808 -0.21577391927364775
Ni 7.878331120146713 7.077537606785601 9.035547436262435 1.017200401493216 0.0917197344035001 -0.014144666931498219
Ni 4.497005851546294 0.41131082650155715 10.390774610463247 0.10680491087139671 -0.748340401027866 0.2150676372352425
Ni 8.473722183397852 7.289166841900008 4.761580860317603 -0.8661239223979534 -0.31756569320116923 -0.007315302714490628
Ni 7.280831276508897 5.964065360381996 6.922917846588254 0.2896975060359914 -0.7159175046124703 -0.22096394811501943
Ni 2.452022859486431 5.034328524407233 2.620113472591629 0.879855155941117 0.1820220196341833 -0.7716649346864195
Ni 2.5198477531248598 5.19014295847171 11.556776304782174 -0.6156347111303075 0.7116335325251357 -0.8261211567527708
Ni 1.1401532961028424 3.6104944882186003 4.046433697502236 -0.05032445928616494 -0.5215238507868115 -0.682207771064851
Ni 3.7538372511550073 2.769063962255867 2.832797097899376 -0.5897467876199521 -0.2625517988591349 -0.5556331337656947
Ni 1.0940768971819403 3.30717403380196 7.924849186376068 0.18593472442502817 0.9011464612197254 0.7091477899888045
Ni 3.550444025276117 2.2534445313144578 7.332232119642167 -0.15854193423437213 0.8245517553831219 -0.9331741790792316
Ni 4.0443149615 6.993593666500515 5.83675204355221 0.4390220354371535 0.052473387308367696 0.11623031795035467
Ni 0.778939127096272 7.514833494953195 11.432074979452796 -0.23003402873708773 -0.4488120249443819 -0.3068953579715166
P 0.19301313907425882 5.475887226146179 8.002075801326427 0.11267011140292209 0.7593904881944405 0.05435723459464187
P 8.578663421953708 1.7103295003098578 7.917934558842074 -0.634216845007869 -1.2641571741275712 0.727215960344425
P 1.7295981416971296 3.2384169325247862 10.143000155476434 -0.6967113639976646 0.47278601926147606 -0.12561355893746756
P 4.192952301802097 6.347845289637925 3.654577953915699 -0.26366097276291367 0.3997782594451824 -1.1394589279155214
P 6.897594380828936 3.9617738579528328 10.450940015512643 0.24712158034699377 0.7310813568371022 -0.19097022996640658
P 6.256099766978097 7.794613443851615 10.262854001084335 -0.17784526254867433 0.6948982220483259 0.0955517065550806
P 2.3458054920270497 8.636297385483132 5.709255000362555 0.6646952161023842 -0.9295244981417862 -0.6758208937019006
P 7.049308911394854 4.1724075315113 1.537404983322583 0.40931936616639825 -0.9551095456997423 0.7741666180623507
Ni 5.249777095672617 2.7169508400821187 0.6701097681364842 -0.5684989339847693 1.3665403017821884 -0.3730668115922672
Ni 1.4373646227898405 0.956390733995202 7.118739374306228 -0.6069312698190387 0.5081618276576088 -0.19338449583485404
Ni 6.897078498931767 0.7039670065421418 9.173999276791289 -0.5825317579287516 -0.5521937690668426 0.2567349350670417
Ni 2.427812612557848 1.3620639669222492 9.240363410110364 0.19736224953567946 0.4161186484764189 0.8592415934558234
Ni 6.409506752189114 2.102236832086111 2.670211035142575 1.463099366555861 0.7739678717879832 -0.2681228651890092
Ni 4.313885879170216 6.705043725350211 10.440634143296727 -0.24795564621251492 0.863693715689906 -0.6458549434674297
Ni 8.339728648527696 6.817913254115202 0.5695607661542514 0.09213908132910582 -0.7927991455618734 -0.28291442167588693
Ni 7.531024946076648 3.685758941847794 8.276237162825494 0.676217357809371 0.2264080019487262 -0.23236267687026435
Ni 3.0065144439075646 8.545773688369232 12.344884553808669 1.0734823639143964 -1.6317899591884606 0.26314932323381773
Ni 0.10827908493614011 5.063887652059102 10.239659226942814 0.11310848449192132 -1.2101832910142771 -0.3736257694195307
Ni 8.74581820719632 2.6858350161791407 5.9497971531734315 0.05322877741715349 0.26036173318635164 -0.7445318259150533
Ni 3.400023724732924 2.8106241319366343 11.377856697116211 0.22548677568603748 -0.9368125471627672 -0.20865453462004713
Ni 1.1577475839642124 3.324035226335773 12.271075430163073 -1.1324984374372882 0.13309881157091916 0.8168212195080835
Ni 2.9998532320423545 8.344054816016245 7.868168246772467 1.0165756234250234 -0.7010534430164443 0.9402228583958968
Ni 6.0035258002356855 7.886377067630641 3.4414834332021362 -2.301788846891945 1.2208991347698845 0.31299247200819
Ni 3.0832631893110705 8.576147366385054 3.44398681798735 1.5934913207185784 -1.2312305986028795 0.26279476810787644
Ni 3.379632813955318 4.166316504900856 8.921257874696288 -0.2946563927031635 -0.5537711408562915 1.1531539089041107
Ni 7.416435810987757 6.342052931494264 11.345323555579956 -0.22432797949124592 -0.8666168028739719 1.1467482624880831
Ni 0.011615488189959897 -0.00021721343038728184 0.4835949308546448 1.2760063601566733 -0.1699882283981008 0.14389255975231346
Ni 4.571863029993511 0.28248425610674016 1.3201852175435813 0.6516075296804907 -0.5421289286316727 0.7423512733239667
Ni 6.03179069786483 5.664754303867921 0.3972489720518605 0.35855062025396317 0.7738681129853252 -0.7408592621594725
Ni 7.803283879947906 9.026476060375886 11.461587949250708 -0.1634188027106992 -0.489325411677396 -0.23154352340307865
Ni 0.4618029934510408 5.185065594536407 5.806934069895796 -1.6279456457417063 -0.9643817150302874 -0.5198099534194983
Ni 8.105672126725802 -0.10053180591899372 2.794793798141201 -0.9557101553982187 1.0242364824043908 0.20033161657664852
P 8.588573784715127 1.9902723592810667 3.7493300724744714 -1.0006558668709735 -1.4737879566179586 0.1402295090784295
P 1.8399335137742694 2.884395243231914 1.8523780332235407 0.6704629718240969 1.3844012412230093 -0.5666500537014886
P 4.885455869555551 0.9008954176991313 8.292529980216461 0.08284197229789603 -0.7039405347562522 -0.9350567408139251
P 8.539012920348428 1.770153699262355 12.5711467336835 0.015988919229088593 -0.028930309881105013 -0.972650382796983
P 6.723778383721114 7.910940286383604 1.2905654511423956 -1.240189350458064 0.9892993042075735 -0.047373347077640994
P 2.204462902762126 3.4205413433449228 5.983468855107299 -0.29898201666171087 -0.17523070774396274 0.09882420665876529
P 6.715696233998787 3.6995338935581867 6.017843785522047 1.188800711573443 1.6769328742736864 -0.4867429956622005
P 2.307132450858514 8.43003513221121 10.123952347743389 0.0006887985369084911 -0.5760083549879369 0.13417867489865923
