# total energy = -381169.5199620252 ev
CRYSTAL
PRIMVEC
9.20308264954688 0.00000000000000 0.00000000000000
0.00000000000000 9.20308264954688 0.00000000000000
0.00000000000000 0.00000000000000 13.46964171945841
PRIMCOORD
 96 1
Ni 1.7272253690704689 7.4074600785690485 5.547309983673265 -0.1643246023544202 -0.9911237590108222 1.4494177553037104
Ni 2.5287402526913603 -0.02026886946776571 13.088491775034532 -2.0653049487644557 0.4836566434273929 -0.9751276406928818
Ni 3.0079539750197424 5.424250962565279 5.6384729605561414 1.2385662130323445 -0.8011588303804783 0.041933921229624554
Ni 2.966181182377993 8.481248165606145 1.8655587466330734 0.9330926751090189 -2.411750558224769 -0.09442787736328252
Ni 6.553717700292523 8.681792542001025 3.9699347299296406 0.0059207363598091575 -0.004500716083830959 -0.5442601160420627
Ni 3.931207237372746 0.7770328428661918 3.5187959318649558 1.344586937439549 -1.8576456881781425 0.4477115927913515
Ni 2.0726354711700794 4.529177539619421 2.84539440240313 0.7976477319034263 0.06149924495606182 2.5053299715448274
Ni 2.007017491100533 1.1605271420378638 2.471153802945333 -2.0689111780584755 1.3499890822917266 0.6434237083181177
Ni 8.576297604338022 4.139785905015972 10.866041160252093 -1.2285797912435938 -0.4128170949070116 -0.80986407146396
Ni 4.137641586733195 2.384527945862497 7.408774278786992 0.7317300461646945 0.16190390872806956 0.681432326351407
Ni 0.5056624618686161 9.023503004831637 9.8265750500553 0.33043612140593415 0.5929056449639079 -2.2359554933369044
Ni 3.149322529276166 0.2546529811663932 6.194904228463138 -1.308704878830959 0.36548411414900284 -0.091837490928287
Ni 3.560755547086707 7.937704894794434 11.266843697168055 0.02267687277222546 -2.869626493143632 -2.4025982023015398
Ni 0.5951661229300984 3.562347680403962 12.719611971283681 2.131288711854433 -1.3796842953633142 -0.25376736779828557
Ni 8.024296700471064 7.115391044138876 4.8609247450554625 0.1786693011118665 -0.8423854411304331 0.8186724137842095
Ni 4.016124081987291 7.216615751401841 7.068181070203286 -0.15698204594641996 -1.0696994998331966 1.2766843600603044
Ni 6.47729530106426 2.8032774144662054 11.745932257570919 -0.44004507738502924 0.3631804057164907 1.2143587625482055
Ni 0.6974832361165217 7.422516321962287 2.502632947521474 1.1194110081257107 -0.12441645330557283 -0.38284934490032774
Ni 3.3112139580844966 2.5084842675394565 12.186914533503101 -0.5892603349018368 0.5214816846949664 1.794972734628954
Ni 1.4071421507228066 5.200790910101231 0.7417399407948447 -0.397351909391877 1.0833839392988245 0.274474775548966
Ni 0.12303141185971027 5.7236640570368955 12.34638187031279 -0.7569512826253286 0.9849453981142521 0.44314685623880457
Ni 0.3960196948062658 0.1628264620166144 0.7909331790649355 -0.8841710097076514 -0.5544753660121676 0.7660059366284291
Ni 6.564623353361585 6.078249632646933 3.0069361140666295 0.9930960522458445 -0.19772528930205302 -0.6328834709084262
Ni 5.7460643604715775 2.251745867819942 2.911948335989237 -1.0344339917626828 0.8282227764768058 -0.104284201332072
P 4.8757840424776635 7.357312480616882 2.9964298747892952 -0.9393430268941049 0.0966667939961303 -0.7041253970735486
Ni 4.375081121907711 8.007767963836434 13.248052983288359 2.5792080497812164 -1.009366507271094 3.0367250586987633
P 1.6850844531183715 1.822127558478206 0.47224698868004433 0.16972571876533352 1.3579332768394676 -1.6006752400615272
Ni 7.287948845864543 1.6723749958286036 4.619642922829188 1.174072918444965 1.628456009719221 -1.0272852965330435
P 2.1298694428464486 7.111498140131946 13.279329660043809 0.2776560014904251 -0.6479113117758262 0.30610242975657603
P 3.9339129437038047 2.240453685275014 10.186483688732972 0.8282703418852897 0.18860121551359776 -1.289921941796501
P 8.711527702394392 6.05281231190188 1.2159637516514585 -1.1278977054404833 0.7109951276101885 0.20637576588819942
Ni 6.541348757064827 0.24107659348075566 0.05663485098877743 0.9166592121433439 0.8631848943742876 -1.4936217035144341
Ni 7.780194133379246 3.6939609669361624 2.7582596148437375 -1.8750546276832092 0.7390983136043078 -0.2532922279340799
Ni 2.717891212630966 6.742077195114881 3.653654225377874 1.2003105119852555 -0.18212074999557668 -1.1437321013695785
Ni 8.894687455458081 -0.06315247419849032 3.768738775275445 -0.5931722683617332 0.8683268435865431 -0.46932171486195945
Ni 7.691292353930184 8.252192638824805 8.548426988511567 0.40141836615176674 1.95161102408271 -1.7080252248031165
Ni 5.281023385591597 9.213758334702288 7.671567386653457 0.1387135866545353 0.3529394447147728 0.17850809294365386
Ni 7.695995129219881 4.501402635853658 0.23635449171726558 -0.7380901840547675 -0.6396614130622081 -0.18801551821345683
Ni 5.065017830162097 4.211643575195919 9.904187407884264 -1.168912457289948 -1.9033377908986189 -1.3587773700073178
Ni 3.9543161781798477 1.2448181770248172 0.8138829065403113 0.738478934852754 1.34319751329119 0.8764494726936777
Ni 8.498117416302845 2.9542079717089216 6.205181310979781 -1.0952264404597074 1.8091022320518007 0.7100137375335256
Ni 5.445841394717194 8.59439086504163 9.963372433105478 0.2812817711684704 0.3902708341753795 0.152713243367737
Ni 8.346404597025641 7.930103148435746 12.70627670436632 0.030656805653908496 0.025766824551458848 0.402804447866016
Ni 0.3440020304375293 3.18333712315233 4.116537997659215 0.5919916177900707 -0.010539723189059267 0.8097095481639668
Ni 0.5187759344914908 0.7285813730664524 11.862363218476089 0.6414943525058887 1.162657991739804 1.5399740655267284
Ni 0.5788849492216784 3.7220763847639975 8.294349200017594 -1.1535470305774713 -0.5720100324618214 0.021695996916194893
Ni 1.7562334859258981 2.790273458528159 10.373213317598761 -1.2560327452482238 0.5236272702830594 -0.16364403134762784
Ni 8.357880841225741 7.251440216560771 10.380824267040209 -0.894559552030827 -1.3549471976279504 1.7719248516705548
Ni 5.066030169265555 4.886422806146722 7.574464740158114 -0.12849782246379807 -0.26384686352147463 -0.9116710149001332
Ni 2.653782538133847 4.4523686109152925 7.949526254597988 1.944319118406987 -0.013696009429853833 0.33752722392476064
Ni 0.7538355524646071 5.219169466370359 6.148514249201348 -1.0131925658854033 -0.30353775435319336 0.7481802213009179
Ni 7.585254434384417 5.659454148629432 7.088843831613124 -0.0002997906286059353 0.496837403783725 -1.5348100048272857
Ni 2.7048228351136094 2.3149066247929144 4.430784620921308 -0.8140259161511335 0.8717579807552792 -0.7567895602364837
Ni 5.47147198020018 4.4791587848258745 1.4772558367199793 -0.2484948065454366 -1.4418144890351556 0.5129985869246197
Ni 5.600471591228908 0.004750631320042072 1.973154748089888 -1.6470977931901247 -1.5487284146805909 0.7448293025508139
Ni 0.44654461915154087 3.020332121330197 1.8181453845685154 0.8683070460922014 -0.171730150789872 -1.243720246429458
P 6.408299789622269 2.0193956374109874 7.188707402936077 -0.17666178376353447 0.18960471707744767 -0.4500741794862571
Ni 4.638188054896249 7.941367721732398 5.072505458294577 -0.7782886106505241 0.5623766231371153 -0.6178088359634908
P 1.7287806900566893 8.9510195250241 4.233199035633351 1.4211261074478687 1.0902253877006902 -0.7418434804496127
Ni 7.575480760494676 0.679278618111533 11.198094828343999 -1.0051792086626237 -1.7973057536375046 0.9124649715563382
P 5.792742396223715 2.424515340449058 0.5486942362317558 1.1131981944467795 0.016606755318745593 -0.36830538564788184
P 6.3389637641182075 8.077389284906017 11.867387181354063 -0.6888689851351104 -0.9023754485308201 0.04383653756897612
P 4.209361210671761 3.8591010839583144 3.250588650411546 -0.710338467862796 0.38831268200774416 -0.24982843775519553
Ni 2.6199059904990643 0.6255593037407124 10.828689528567624 -0.7531519634838966 0.48770176003104393 -2.4563627976175053
Ni 1.8578631288302465 6.64798487698991 8.126181268767828 -0.9181918467377863 0.9209125881030591 -0.7023359092732937
Ni 6.215578033572287 6.605181339079185 8.965959809574574 -0.7783927403285562 -1.8747484092967006 0.15033754404670882
Ni 8.406657179846864 1.5044371416478062 7.947694841129007 1.2718589136472032 -1.099474417102784 0.005075357640378355
Ni 7.806146826758787 7.9532949169876765 1.7233462696876758 -0.8630103164696363 0.4841112144663082 0.32431920987491886
Ni 4.658480852379188 0.6492452778367842 12.01330389910984 2.181187653567405 1.6011236404528555 -1.1156469130975883
Ni 0.3552205883203872 5.580813806456321 3.8744886383308645 -0.6118760154188236 -0.04075404198891046 0.262763914869941
Ni 3.6821534117567474 6.0303843992189226 0.8815596162229796 -0.15358381889814837 -0.03781938484061874 1.5504819070365878
Ni 7.727156767440846 9.151527089087944 6.082136094495932 -0.7367372695712989 0.10564765733850191 0.9219263740795541
Ni 1.9167628584859404 3.080787171972111 6.309288423762772 -0.24940549128516404 0.4541213529724372 0.8961011854863341
Ni 1.4758891789303121 5.2123959974599545 9.950697947530193 -0.5089694111605686 0.28984637290902987 0.7785315798992657
Ni 0.7194758429849925 1.2958492709218208 5.566127526989984 0.16228211800309472 -1.6130540733418541 -0.10258367370119753
Ni 3.7847861906817943 6.065254879791645 9.440858206397403 -0.150305919477825 0.8510099495746505 0.44641344280521833
Ni 3.077326812854839 3.6641613849634846 1.1424568890411522 1.4550831811196037 -2.0777647717943637 -1.592305527940593
Ni 1.3059634588736346 7.295016813423226 11.319173346042312 0.7100808433260352 1.1825495884574084 -0.10526661984999935
Ni 6.6812908334936525 1.9526640843276377 9.518928877747747 -3.2276963171064343 -0.027146992728437118 -1.5795955365730927
Ni 2.113441940122165 1.3603904903085995 8.21355901771205 -0.2994581849671811 -0.5823983176746808 0.3148655206611867
Ni 0.5194799703225316 8.524861574799635 7.091578067500735 0.15268470412264673 0.6305103426905593 1.1730056535227154
Ni 4.741032504724745 5.8633116348174426 12.29956118677789 -0.43975120029369424 -0.07830037567380063 -1.2977609782249455
Ni 5.508422357476369 5.875091580748582 5.082796345435359 -0.8358062452510185 -0.6764384726812415 1.1870477334380782
Ni 7.45056731821081 4.052144947904852 8.639239327941338 -0.8624313040377147 -0.4126841688735732 0.36195116129507987
Ni 4.651136792337742 3.1886288957385838 5.224348961346957 1.128466947680392 1.4482221923337124 0.3397188322594407
Ni 7.3909497480999375 4.702802898945096 4.871727323597627 1.4131266341821598 -1.2469138136660913 -0.19399281884281427
Ni 7.570446674225665 1.2413302086592692 1.9318292252702118 1.2837078425659894 0.28572515165180473 1.1272865542190456
Ni 5.289030067591668 0.9235477610012824 5.452497984476564 0.44935555615267775 0.9963888640645033 0.7119230387410964
P 3.2260578333182255 8.254327754024825 8.943909223284725 0.09210874231180266 0.7812716045382481 0.21893766171361004
Ni 8.319007019652984 2.2008160078332835 13.398050347939343 -2.0215694555497183 -1.9001884466363599 -0.18790881743226348
P 8.678037684235475 2.0450722383077666 10.01306263784454 2.5930117884335275 0.8817642000383717 0.317843115232272
Ni 2.564650681615816 4.6679048091240976 12.098203257867143 0.609785451438382 1.4871001003458326 -0.46130655786696684
P 6.431896493815582 7.484176976445591 6.8442755885337165 -0.7251292530187253 -0.265743052102923 -0.7517864505949374
P 6.275002338945227 4.955556363830094 11.277039792556423 3.0820968019653434 0.14377017524183627 0.9798417583390997
P 8.92738600849975 6.096849062902271 8.70052633726464 0.7936167563671622 -0.6209314407528725 -0.12467742027644335
Ni 6.224238134448226 6.428307291539688 0.5333306098743784 0.7608048520434639 1.3777120021282918 -0.26409626052811935
