# total energy = -340868.0929148775 ev
CRYSTAL
PRIMVEC
9.34416284486280 0.00000000000000 0.00000000000000
0.00000000000000 9.34416284486280 0.00000000000000
0.00000000000000 0.00000000000000 13.67612684591207
PRIMCOORD
 96 1
Ni 0.39591685796698456 0.2772814958135894 10.430098629526697 -0.14220231653408413 -0.41041131367899647 1.6951342277730614
Ni 3.114502966190525 7.975934580009934 10.703429413228122 0.7656426397517395 -0.8167888236082513 -0.4308410422882579
Ni 5.641912171720552 5.655162194840344 6.954652138608088 -1.8729913173962778 -1.3322471849272735 0.3540259929107322
Ni 2.719740112352803 0.6041571366965023 2.7388909744007686 -0.6557590899550191 1.2178076403287543 -2.0146411038610013
Ni 5.770749491026407 8.821104778290714 3.8335419147673466 -1.6007698566578625 1.086435838751271 0.7073143363244915
Ni 4.844593432111464 0.04595272475212794 1.4696639713086765 0.41279652608172135 0.3514389489098464 -0.9461608211468866
Ni 6.079069493043816 0.32772128763350616 8.226313296159068 2.055603405205976 0.008668217197959264 -1.4146538694599635
Ni 0.19109000197770687 4.294736160966039 4.6709031960374 1.277453634126161 -0.38814607452289285 0.5320610028727095
Ni 6.711501132531702 0.20561083126413715 10.493760411977435 0.3334142301976516 -0.09848122149704974 1.185533610786397
Ni 3.69819545152267 5.870292859358674 8.615727551101326 -0.7681224687507997 1.0179380509901887 0.2811925538887738
Ni 2.6700198210831148 2.4757359841954325 12.558541042289809 0.2301258171199456 -0.5891783167109917 -0.39872950646569394
Ni 5.953568039925384 3.9812955576301206 1.6132220849889487 0.1361275710949139 0.6736799360994978 -0.09187245793128047
Ni 0.010272972791184972 0.1683369650971034 1.5737532749355685 1.3601261707257286 -0.8323008032009215 -1.1680076860874917
Ni 4.536712605754583 0.6642195475635014 12.60826787447359 1.0408398952890268 0.1461643865056257 -0.03410594054477352
Ni 5.550404783559669 2.3476929187437245 9.13971457259269 0.7964382849763574 0.11119326974707947 1.2015276722218082
Ni 0.47955926413920036 2.327444117544436 2.4227536456259418 0.9180638058003544 -0.7612385971467729 -0.43042375224518126
Ni 8.342973302256382 1.5643997677825978 9.040795394348153 -2.808527568949782 1.1246707138627534 1.066733475226337
Ni 1.481255405497748 6.942451464992069 5.2597564625889115 -0.7729389163028365 0.20734070090463 1.5390839496122912
Ni 0.3294069746368987 1.4645200095826922 12.857432783850328 0.037744308628309194 -2.4733976416126047 0.8945297272341561
Ni 1.9085359465406035 2.959025438200233 6.615224483580733 1.0322151297344933 1.9354752948631122 -0.1268803414650331
Ni 2.4037672408465993 7.74804913301028 0.9451462013594824 1.7888753634819643 0.35756228819876484 1.3536125379769268
Ni 5.0442501627183844 7.984316294211946 6.514089804291273 0.7580188046578946 1.1671718204497576 0.5052150863244589
Ni 7.903900427520171 5.830645575792185 7.882933060186954 0.8096424423714572 -2.3294932547857496 -0.007585011436109517
Ni 4.799218176632117 3.0727252134623204 11.449803776215834 -0.12248272661796972 0.13762986667205332 0.5454495083644735
P 7.547149628725692 4.506624400926846 3.3850463860720392 -0.1415058046876918 -0.3772345698167116 -1.0446590119248007
P 5.822432056523992 1.0017503375038894 6.2452171207523675 -0.8978811602048923 0.20329018498434023 -1.6996267163267762
P 3.9208388230849445 7.969188094331168 2.773778341340161 -0.16606266809144948 -0.9831443403497714 0.41181950688043273
P 7.119411223696327 6.88317209498363 6.26098539579796 -0.747450542223745 0.4157378680982324 -1.795701128154546
P 6.324886388821243 1.7987887522232782 1.2186040656775716 -1.389319247349917 0.6966139191878519 1.1216113582111393
P 8.335638134309248 8.768338289886291 12.150267463184873 1.11922511736715 -0.3620128677709507 -0.5212302308057927
P 4.493411754459013 8.895194646638272 9.094036566232466 -3.1228073923108286 0.03351484392799389 1.5990914405141752
P 1.9542195593986198 6.13618101723858 10.049150186253362 0.3829370195181276 -0.4690885158052308 -0.13366651114893108
Ni 2.994262276835451 5.223050721531669 1.5095439245336162 0.9978428229022107 -0.7521860000262014 -1.1674839523735376
Ni 7.4108089465388804 4.664288463056793 5.5954230920127985 -0.8557628908786036 0.989795784228018 0.4974056175823692
Ni 3.799841256527682 1.6805290254220802 5.427247780935422 0.37022034328240755 -0.16268115321372628 -0.48771332999526973
Ni 5.36905326825012 4.6890504949802425 3.9104425073422915 -1.2696184543524587 -1.3224957619674644 1.3581068263028544
Ni 7.150583351430903 1.028857754337824 13.136836339078942 0.3521868828194645 -1.0866875497507609 -0.03938492955552572
Ni 4.379618537567025 6.82510746616389 4.661945881395204 -0.01689034799743543 -0.616059457372552 -1.025024011302693
Ni 0.5069030882967814 0.08834532340507317 3.950253313761105 -0.2417618586969772 -0.4609226921649869 0.6865339092440306
Ni 3.0790979326214876 4.990567946340945 5.411001084744742 -0.12570354754811253 -1.1018781414482701 0.00884973708114605
Ni 7.6566538748052775 5.724701455811783 0.9547875087325446 -0.10142102085166403 0.39407889506756005 0.3349502072262038
Ni 3.1878079248469247 8.916798351471108 4.669481014430325 0.47988997729610905 -0.7943762602410062 0.212513246244505
Ni 3.3976591372759155 3.365412430797491 9.542203180390526 -0.3430517532874156 1.0570314174472246 -0.9711051497970502
Ni 2.494228082752605 5.788765037271091 12.962766729987484 -2.2305782881853906 2.055012308589196 -0.4054066613755534
Ni 4.06925216385481 5.460383117314192 11.195099647018637 0.3800347582696681 0.25912734655861824 -0.6081124346113334
Ni 5.703929381485055 4.7566368258867735 9.362266371357663 -0.49733954023112414 0.877041854862038 -0.19208506029714015
Ni 1.257481390213686 3.724564679480396 0.5006228763512153 0.5630489666137917 -0.200920399200583 -1.7462634423487085
Ni 8.972442842076445 3.3442385574621944 12.18265339769185 0.10666581419037115 1.8324820444283214 -0.46475492142688346
Ni 2.2229016220125297 6.0034752144548715 3.417377190017373 -0.6277739175960027 0.43512192905179903 -0.41660510119453414
Ni 6.171679492437517 6.366710862364398 2.7093092232070872 0.3768972410819509 1.628161618407254 -0.2947168136274537
Ni 8.467502962423858 6.314598465369275 4.187630561525982 0.07013918001924695 2.573271372581807 -0.6523472360599927
Ni 1.8541248854499446 2.603349218149601 4.261508317373667 2.054739514543784 -0.18621368911802771 -1.0677362054592385
Ni 2.0066963787503522 9.002858092608832 8.863675850456767 0.9998755370615232 -0.809156246763658 -2.0020157017875064
Ni 7.890977450105027 1.1141232416213995 6.787078591627266 0.6140216010069167 -0.6853761414905035 -1.0555139523614336
Ni 8.795511115861157 8.01169469177259 6.392276492304985 1.1928813094007198 1.106776607191152 -0.3694351283769508
Ni 5.473408880522226 3.2489374391273795 5.959564189316054 -1.249680577777951 0.47263766660906986 1.4120904796081615
P 2.8518198562161827 7.9421554308011535 6.572569313947769 -0.07746425292575046 -0.8877898374071614 1.369004704162281
P 0.7969814153251497 7.456137481203278 2.4800286926730295 -0.5226677345832675 0.15877950416647493 0.16759016047956943
P 0.9046626152053902 5.024132179800956 6.995243182636564 -0.18158364654518405 -0.05125956950592462 -2.272471843095383
P 2.0585751716707263 1.2302711875868617 0.5788335205773552 -0.23191196248609094 0.49322037585642803 1.8171006768762448
P 6.776863552646618 2.2566994595472907 11.470276837326884 0.34386807854112394 1.1211958679402754 -1.127757323207877
P 3.826247861137368 4.244296369146122 13.288299614648736 1.084906546590938 -0.9381945151119585 -0.34333945973116353
P 6.2316036096922645 5.9236573741944545 11.09043661178416 0.7929012183573764 0.9278373402473505 0.06005968429605785
P 1.0763074140009468 2.400749076200836 10.38381792465362 0.06586754922708657 -0.1501043449899802 0.49534179307480497
Ni 0.22406929083454535 4.552504241207651 2.256930260373143 -0.8666517698769655 2.05693472242289 1.1718838812134462
Ni 4.8744293445384725 6.331969264367649 -0.06671452049956644 0.10836994136567141 -1.120119347046645 0.5401211541730246
Ni 7.102563697825391 2.5107765954078607 4.573433297472611 1.0704191516080404 -0.1883844715171014 0.26369671109685555
Ni 8.238281300116638 7.088743680763209 9.602035724847973 0.6264024911697729 1.4485870318722989 2.015325531522536
Ni 7.949808300289948 4.222804794269166 10.352444897414758 -0.8647175289687301 0.2776914827140508 -1.1048858179263423
Ni 0.991247498303151 1.6690263607814135 8.224946245113635 1.4914174967742637 -0.10260707073996524 0.6969206517949932
Ni 6.4731502229832705 7.830922514568421 12.92653847565903 0.08127128537666649 0.27989208990979536 -1.9119268181192104
Ni 0.9762220842152617 6.911952116992772 8.052667912067358 0.6474168886379108 -0.6340057574383274 0.32701912530458516
Ni 0.7642450747060506 7.34804420373518 11.414013763131608 -0.5223661441824488 -0.11013654634779096 0.34752187324362727
Ni 3.2003384474164895 1.0802880274346787 10.296427574706122 0.33656254601864616 0.6352141759241319 0.5695775117609286
Ni 4.098181692471791 2.4916584379303597 1.0065093197146868 -0.8931289902318876 -0.256145638222475 -0.31246848118391995
Ni 8.203950845291446 3.0633343296573896 0.8013143037036038 -0.8096036187137218 -0.317113436155099 0.014869718022980843
Ni 0.8917714079444126 4.122233568008002 8.937554540720752 -0.09903195179419719 0.6783122926651866 0.50997214139347
Ni 5.00242568917523 2.1987189281944595 3.280014256399458 -0.05291664549337338 -0.004765539709443406 -0.19776591273200134
Ni 0.2954801876528762 7.5300404662910365 0.12837945531934722 -1.5539405550091496 -0.27993605577385333 -0.19739387410456327
Ni 8.85214608774343 3.2573378416553727 6.828106942483673 -0.5898830560875002 1.2662955606268127 1.317820467978982
Ni 7.067934229784522 8.320855668459098 1.326855259500201 0.6606704112137073 0.2902762613575969 1.2844079539568074
Ni 1.8820732769529775 4.263012727615054 11.206095858025247 -0.9478266388850839 0.3438212844635885 0.055494433522878625
Ni 6.944301609264086 4.5677539152073 12.636413427815711 -0.4493714969922777 0.038131773874714975 0.17489903543615684
Ni 7.744918838408637 1.2778796980208142 2.7427613267112183 -0.9520545609235022 -0.739946520537216 0.3294663012934971
Ni 1.810067156952185 0.46554021640533205 6.321352426378432 -0.8093017712025867 -0.12821602955732114 0.32714099559443016
Ni 3.648792861794641 1.6993388255209114 7.803844064639755 -0.011094053030632507 -0.601239361640584 0.1342403813745301
Ni 2.209315209025098 -0.021648556815187688 12.52384523069171 -1.6018697745902608 0.13432034268284607 -0.5487022109738163
Ni 5.9568665294608465 7.385570362302943 9.02919835366129 -0.3757356166736819 -1.5985329969075437 0.36148502029193874
P 0.3177230332342266 1.8185796894360573 5.465883091650096 -1.5041136041846932 -0.6187593728022183 -0.49593931744948777
P 3.855429682155078 4.187848280523648 7.302477392914537 0.1434891536663077 -1.4957624040065207 0.35726352601142347
P -0.1687537147664566 5.495348975222702 13.15135997161427 0.7844235199036684 -1.412224948303497 -0.5261068421718036
P 9.064436126712806 8.801510068500724 8.43553097433734 -0.23841608215319585 0.644920090357986 -0.023750308342062324
P 3.3477799952353973 3.988836297163035 3.181053029421468 0.5806260562656065 -0.888540599530257 1.0042124738739802
P 7.1482846873353685 3.6037726845089133 8.303555885099447 1.038644944520237 -0.3367954879650587 -0.7853097791633635
P 3.7066425748656124 7.961292276604634 12.797107802003309 1.7344841903255934 -1.3904482187480378 0.37820413281883253
P 7.739985120349927 8.459018462428954 3.4710556687296172 1.5185799161216684 -0.715157229407678 -0.5227191566464933
