# total energy = -381164.75739881786 ev
CRYSTAL
PRIMVEC
9.27922720136257 0.00000000000000 0.00000000000000

0.00000000000000 9.27922720136257 0.00000000000000

0.00000000000000 0.00000000000000 13.58108696785922

PRIMCOORD
 96 1
Ni 9.058724851381763 6.285841247130071 10.974333138797295 1.3761464574133848 1.498531996331858 -1.0934924884877362
Ni 6.264415511697138 6.7976834153763255 6.969351900967444 0.11149434592726605 2.1003789096494536 -0.12416962740208937
Ni 1.8324988896653946 6.362691806184014 9.236890651806203 -0.8945089012985498 0.9191051025806751 -0.23591285611536789
Ni 3.1790446547648665 3.614119777001308 6.045919406416846 -0.9225290406605597 0.8380639309369438 -0.9648162314645448
Ni 7.466446593543036 9.214151905735003 2.266085623870895 0.1826326566349887 -1.01907627835969 0.007375723638780846
Ni 1.121840001026751 1.9956277025328555 10.334148124331902 0.3036819932405415 -0.7455479258843934 -0.11865563956239567
Ni 3.648406521230276 2.279952500887342 10.250732512086621 -0.35385115789576477 0.20423095163105473 -1.7150757038919944
Ni 3.5851593091424143 1.1826374971534634 7.843729761318736 1.7056742080724367 0.7124776256929859 0.08221590867812292
Ni 4.550282443245471 9.31866384085026 11.526404468323728 1.8247957315276573 0.493214462319157 0.6051101574498998
Ni 0.5589175432996782 2.275572705684074 5.613606710095687 0.4069580650230733 -0.5531759304744537 1.0998374568691573
Ni 6.219986572219925 1.9452878953766566 2.185169835413242 -1.350798979787532 0.8342232170346149 0.4731891682371658
Ni 6.342537324867283 1.018896255295715 13.508305410169735 -0.38215797526025796 -0.13861511340345806 -0.6748382180736572
Ni 6.863528811059346 7.985934844940756 5.155434663620997 1.6483419500098708 -2.0267404582276964 2.658825344494227
Ni 8.486317167686934 6.22456123119283 6.316780974134848 0.7897297626079302 -1.1648457434197423 1.8016699441434714
Ni 4.629285782992545 8.356890507739532 8.216625710509467 0.4354242907835662 -0.8393623380333931 1.3256247945147492
Ni 7.976748410086445 5.162201076040961 12.568209279547045 -2.402213565268611 -0.17473242795130553 1.0920778675283966
Ni 5.841125007910167 2.904481603346476 8.006064272344249 -0.24536834510131286 -1.102552027586843 0.12151702027059072
Ni 4.31410755444555 5.995819003320488 1.553947626428436 -0.46744763776769815 0.18679681531500733 1.1722181246244134
Ni 8.89746116316654 7.965418473766128 7.7225050102276205 2.9581385192431116 0.6732958132872018 -0.770998247636698
Ni 4.90375604213968 3.0114432544228826 4.553249940080227 0.943374516651001 -1.9102648570357552 0.31372369374725967
Ni 6.457145059095157 5.6054326389207745 1.042099890645907 0.7815582825407313 1.859631865370236 -0.05847562763838962
Ni 8.307413668706012 1.8478560105582076 1.093556916748024 0.9566768901868621 1.6734251182307438 0.4561612662206015
Ni 1.7403561643085184 4.233341161544618 9.704935795942497 -0.4806890761586367 -0.9096724964128656 0.4097379417610556
Ni 6.119446146314411 1.0222089393795424 9.486715283707833 0.3840968441541836 0.34176208794171464 0.8486669032637706
P 9.148844705225265 3.304666831590787 2.586626317773755 0.6666096595162777 -0.23685285143113402 -0.13781575743061425
Ni 6.608981052550803 3.613358880377011 0.18571445169108997 1.0261205868009813 -2.7315281714755923 0.3438040580724079
P 1.0828208509637434 0.17285715458590487 6.536413784738022 -0.4974806937946787 0.7130594663383849 -0.12362789596600644
Ni 1.6888842914430005 5.65299795716643 12.418314500406066 0.40256739215454534 0.48298327150945203 0.5879418732007293
P 5.349595067841778 4.601206841710581 6.441292427473838 -0.36033110919315364 -1.8831407471254538 -1.286019264307985
P 7.641128044181827 5.8640261404560645 4.497730468342537 -0.24024619338339911 0.8702083768799723 -2.2658227132099813
P 3.891763531825386 0.793441657593961 0.08019943212355958 0.1299245276079956 0.36460839641226883 0.4513005956941905
Ni 6.02436190595873 7.086796294927604 3.3928946510233873 -0.3769782308315314 -0.9165499402589892 -2.4242988272034247
Ni 3.0585446113122585 1.7885060738630834 2.3956087877804038 0.5952168095955878 0.3102159377043174 -1.5183724280965527
Ni 7.438989360478484 1.839903712911597 6.5457171378541155 0.06143753848019096 0.7178391471152153 0.8843245045663803
Ni 4.416132656691155 0.2705479298411575 3.2366445292241086 0.23674357954677938 -1.111755548462982 0.530100793822545
Ni 7.367539311611621 7.219637710457215 9.061531817587246 0.8655343684430706 -1.7243568720836044 0.535620952309826
Ni 0.406869983465569 4.202580523623365 0.4182101269357239 0.08564498896432991 -0.45924581868319614 1.4563684755899304
Ni 0.9698740983913468 8.614212755158619 10.175846365415161 -1.2620182734076975 0.6033096139060513 -0.6342371567228432
Ni 8.674936017468328 3.2560065645443155 9.35484261949013 -0.1871058619149939 -0.9444770056865605 0.04967062775224994
Ni 8.613238436310436 9.069201098806527 0.13631463024271104 0.15331873816221983 -0.8621726510596894 0.8798674972362911
Ni 3.7930047175279804 4.955738272497103 4.160864830157667 0.5397732839153027 0.7940209337841163 -0.5777829303898565
Ni 3.15888089422101 7.451980278454277 10.85579750772717 0.12962293720717677 -0.27553664115457704 1.1368482297655518
Ni 0.44646722937849936 1.017615721952387 3.1254970187913593 0.20146135930571754 -0.4107427288764861 -0.8650620567923424
Ni 5.2611176371995 8.387549074162404 1.1308668331745022 -1.4565538521278594 0.3863571009432701 0.042774157742732785
Ni 4.735022576088377 4.576078694654546 13.106359912539704 0.7884226137607325 1.838207634058189 -0.6982247153183975
Ni 9.362183416069167 7.287311113883972 4.5155623591097385 -0.6888556153986717 1.1284661763494437 -1.3400610245447373
Ni 1.9235466662214542 2.6325816901131236 8.010532220205208 -1.782766165260433 0.16297554452569352 -0.47381780296010007
Ni 4.1859707070686 6.257168435312071 6.855093993602206 -3.1226690669607513 0.34032664104676874 -0.4225299513194013
Ni 6.895310163964411 9.073970621549067 7.562709295743664 -0.7188215656331427 0.10245537565344935 -0.3100513871019951
Ni 3.8102176838459063 3.980287358603291 8.109701176341565 0.18941085589908668 0.6556395336580192 1.8032408881750168
Ni 4.400200223716556 5.964557287134453 9.283840757293433 0.5329930277686756 1.5518163095772952 -0.3772618235102212
Ni 2.201607986266183 8.516474655845027 8.267255957474696 -1.3115989125493024 -1.238001855888442 -3.023937162905476
Ni 9.080169145268947 1.0322397839022799 8.434194820999915 -0.1609014356054842 0.10919500837012806 -0.455140538265571
Ni 7.430934991333492 3.9443303534917207 5.465436939277351 -0.6697862574720466 1.3475827868430792 1.4430393625811921
Ni 1.9268129541696537 5.286190108892781 7.102690683070986 -0.8738359463302305 0.2736077995629804 0.34673023058026736
Ni 3.0367662652485534 4.060923842324465 0.7385438940736839 -1.401945934974992 -0.29421467718005456 1.999136580467499
P 8.953609766503345 5.588256789511351 8.704621192965726 0.7672115269007561 0.2296905293547399 0.09223241237386051
Ni 9.100249392768673 3.9145254759644006 7.1941458176978585 0.37123515770016713 0.26402786918402915 -0.0757200165411341
P 0.8154371375724041 7.932393704426238 2.3660293954722356 -1.449715489049787 -0.03412059583279285 0.4734586198484685
Ni 7.420625769996988 4.843181247463981 10.274621882321394 -1.0880574335150939 1.687521962643442 0.1694315845636824
P 5.2631683463942505 4.310145324462933 10.257700283735211 0.8211342450611407 -1.5458711477374538 -0.4661744274822294
P 5.376690411048433 1.0893255891787657 6.222663629245651 0.05360801513344316 0.905280280882441 0.45970681748001474
P 3.1208917383689405 0.12480003730259545 9.77517768943761 1.4186323944917376 1.6598268107210186 2.2643227316256875
Ni 0.20890602404601857 3.8664034040912125 11.651581242247621 0.3818856954354778 -1.07235776339165 -1.0146043586312656
Ni 5.756220079711232 8.050082142059798 10.08803147158965 -1.4803000467048635 -0.36613023237343395 1.0264669143968064
Ni 2.3524974985550213 2.9878647382968175 12.523663421808049 -2.285164093851071 0.5711746810447196 -0.8956463573371026
Ni 6.812910627089379 4.967457936356694 7.938226626597368 1.5854383685071147 -0.9983033074783968 1.2115701440594746
Ni 6.390780026693104 0.5007822574352909 4.2852677165392885 -1.9967840210749226 2.5223457893765335 -0.5130248121768648
Ni 2.4608603129273883 0.7512258137861958 11.95693833680492 -0.6252514082844651 0.09965955807586707 -0.009557047560815797
Ni 0.11751769985445078 1.3865299547835384 12.472544159573301 -0.2509612658080581 1.5626604513806508 -1.4640815279634722
Ni 3.0823272704350857 1.4773828675699607 5.4849530097678425 0.4976856107166332 0.16086055506521973 -0.016170696222591506
Ni 2.1082496821558574 9.082284809053576 4.435623673268407 -0.5376338689747966 0.19651121438929384 -2.3002235592873546
Ni 7.47257088344591 8.352566387899019 11.651554332488958 0.7465732818251142 0.42224892974387274 0.019915765087320538
Ni 1.0545099290036397 4.692811371894174 4.910948371084706 -1.0282967685166935 0.6120768185757202 0.9857488678521538
Ni 1.9427825040527538 6.106715046698134 1.4129080137333865 -1.5601842219260162 -0.48405285042454693 -0.5950437743528333
Ni 6.727448945262911 2.950005491624506 11.297508205281103 0.3483196865545743 -1.3212703742007954 0.37956938859747535
Ni 2.1144110889672336 6.484583733705457 3.9226253133223077 0.5450216767984355 0.5878814522764392 -1.594264451439177
Ni 4.532809658568029 2.5108289509985644 12.279204039030422 1.322267448006742 -1.2309534336820929 1.1777845629685975
Ni 1.8452299892816721 2.9177416189089107 3.8371729107229653 0.24657470670458825 0.19841357361832926 -0.5939991351384029
Ni 2.8569626812364497 8.166935449252058 1.991639490714287 0.9636980586997015 1.0580912261703068 -0.04882602036376752
Ni 3.472824985560305 4.885123354071542 11.185519068948064 -0.1503660832917991 -0.38148074668757526 -0.14010378213384256
Ni 2.0588934730749684 7.5640269459954945 6.001482115635221 -0.8874116281321363 -2.417997310465429 1.8595755582110038
Ni 5.56875185409341 6.8294740475085165 12.118756922802248 -0.3981790332788626 -0.2598071462344622 1.0310943858664885
Ni 4.056126481900547 8.675223673509219 6.171992553681069 0.600299623435134 -0.560084484668829 -2.785506168353945
Ni 1.0456111501902214 8.222629370459709 12.315682536706447 0.8299559571178287 -0.3037917793455284 1.080915423153674
Ni 8.547615742078428 6.1352486701092515 2.0759644672178736 0.25530077372367643 -0.09900932608637787 1.6058387865403376
Ni 9.146172287813101 6.811166132389773 -0.039297526876774555 -0.400870978288729 -0.6973397416102829 0.5919337679689418
Ni 7.8777204982023985 2.2518550011511262 4.14464938075574 -0.005571066329874276 1.3231822465115277 -2.525375577341793
P 7.035166675200951 7.684192937271582 0.3669377574534057 0.7036307168253172 -1.075696855067212 -0.7911623812893989
Ni 8.454906983866893 0.39550571400488754 5.150301395175133 2.6210445262010276 -2.500259241890139 0.9255436591171673
P 4.078637886907172 7.398170040353116 4.16315958302582 -0.6233400501943651 0.3465147721353516 0.36058050619979837
Ni 1.4739773912148777 0.8820926097834867 0.7665068450165788 0.830870241401982 -0.2118010506688288 0.12134681324131359
P 3.3837444051548653 7.192245431982542 13.533987527085165 -0.1922105301314109 -0.7079067184928518 -0.7207501501144232
P 4.8193243545241495 3.6970853467309985 1.9318821959483505 0.15672570696123975 -0.12451621210823072 0.3673702754281221
P 8.142094958236916 1.111883390321018 10.563953751632836 0.057459270558733296 0.18697730675692958 -0.378870819868554
Ni 6.365252872870671 4.465052742097142 3.4119764536844017 0.03365754015344526 0.3829511605855147 -1.5435227021099354
