# total energy = -340856.2003528956 ev
CRYSTAL
PRIMVEC
9.40084722469453 0.00000000000000 0.00000000000000
0.00000000000000 9.40084722469453 0.00000000000000
0.00000000000000 0.00000000000000 13.75909016553928
PRIMCOORD
 96 1
Ni 9.530109045855335 0.05864248604492782 7.662382528629221 0.36750808655756706 0.011622928950909016 0.6956916644838986
Ni 9.134408577339288 5.902575859318876 9.296452864042339 -1.3330673668357236 0.9183173165720573 -0.3634226036342838
Ni 5.522969641541675 6.552089806630532 1.2949488669389746 2.1639738607922796 2.4918303943964957 -0.5282164323156386
Ni 0.21901154174233464 9.519298071352022 13.30824662790086 5.235233720043119 -0.7436003152397194 0.15054066119645043
Ni 5.755781627258672 5.229428181658238 12.040882667470646 -1.6565591957133405 -0.9138333126587745 0.8060156442521473
Ni 3.1452415126725715 8.489190817286776 0.7455887275107506 0.10110168983903232 0.6473382128811754 -0.8128241825335486
Ni 8.118082965553917 7.392440956044149 3.416547148214541 -1.305761737042235 0.061936332493480434 0.7147980462960465
Ni 4.209520847015682 6.383250587430964 7.974864815842461 -0.07328749584024152 1.7004070461362264 0.333720962804793
Ni 0.7838276143713386 2.3915379736911606 13.630539639454673 -1.8746550782519456 -0.7953489085669206 0.9483614283426312
Ni 7.069014202294598 2.880353835646613 4.541821060620604 0.17861530794547947 2.7889511894797514 0.5764770670942394
Ni 8.77338783486039 8.616675708799322 5.83133623776574 -3.1664318138689986 -1.987988020049847 -1.9673361481274503
Ni 3.534652814281909 6.156097911845265 1.7306320795072312 -3.1922060946196247 -0.7250564907992609 -0.21570989880493172
Ni 4.63781405344737 4.257775396690035 0.4731286679087754 0.10399675199864025 -1.254323475866601 -0.9361090933378394
Ni 2.7313598052961705 8.985555559699758 7.648430731011511 1.0706217545371497 -0.14016831682319086 1.530901413801499
Ni 3.1081645705499046 5.421985738833336 12.969208826968526 1.9555661520757162 0.6274139631534227 -0.2535897045698407
Ni 3.1059741731070596 7.055260762556905 5.865431231094971 -0.8077336553845186 -0.8755084489366471 -0.24550384223791263
Ni 2.4974291187392637 1.4704993510932511 12.660069481088659 0.9281114198443434 0.17286297884273455 0.28608536320470085
Ni 4.7457639840748 1.0140882101055553 12.76788591968309 0.8528176922073505 -1.0070663983830075 1.3484867867145873
Ni 4.98230810620729 0.9424349512670751 2.923834635014199 0.28612212997990727 -0.8931968673553455 1.919931690701558
Ni 1.959898065587143 4.610899427357817 3.9087510755708577 1.345778900865121 -0.03779675913279942 -0.28310494042013823
Ni 7.691077675215233 2.7825192168153268 13.454175041916061 0.08056294645573223 -0.1388295434071093 -1.5465368063459108
Ni 2.0754156783668916 1.3142478665544974 4.0235570442028665 -0.06542197704923572 1.1978137137053306 0.018531226034968085
Ni 3.342170463885965 4.663008324463787 6.8074610058393565 -1.1304166152075952 -2.381063156443241 1.0821120145649363
Ni 4.739418412083725 5.286387916019607 5.364270176341474 1.379954261195249 -1.020332005143662 -1.1079091781336983
P 7.84982978516084 0.4062284775127952 12.712959588613085 -4.797488494435861 0.8103736641105269 -1.4978591386345494
P 1.0872268028323169 7.348275774986266 7.454647303336212 -0.09468704456194016 -0.26719161162399147 -0.9269999319477197
P 5.680565447257797 3.3993840211269766 6.287408948247244 -0.664990635855616 -0.5262227989243775 -0.1671898397173572
P 6.434626218440187 6.292673422787988 7.4498180880298195 0.44703436421866877 -0.015246641746425354 -0.774467180021905
P 0.28669952314994757 1.0240531083433917 5.214667911164628 -1.0469570639303583 1.5231271691727188 -0.4399316917356165
P 4.510752200067561 3.0079515373278896 12.25586876635879 -0.6895850373655285 1.5523369579674555 -0.97783141277729
P 6.42079757192334 8.517844600144253 5.060937733896995 3.1425051278500717 2.6303580902924697 0.18625996897493083
P 4.5363695092167164 7.584359255596441 13.062027153630275 -1.4536585328579354 -1.309854676164686 -1.6107987016487744
Ni 5.561372103146922 6.946774983628007 4.107500970924505 -0.9813774782573357 0.726670115143284 -2.551304124282096
Ni 0.6735331124037991 3.753419933991995 8.99562480734367 0.4243299806426176 -1.5243019062071101 0.6825386720417083
Ni 1.3644765941816293 1.3091432064194548 9.098900636646711 0.5410596068268939 0.7171773451615003 0.3118226200698049
Ni 6.422292306659015 0.8140917623874393 7.702214859123123 0.4699616624388035 -0.43222995221598465 1.0717867213795285
Ni 4.220172007113294 3.1141529103400005 2.7280290850644104 0.8552856941318691 0.825511805303546 -0.5203773958871941
Ni 8.049654197371641 5.061162414149716 2.7955722934221527 0.49654789756776413 1.3635117993685097 1.0816978098456531
Ni 8.426026523645245 0.9266875917970753 1.372276477264585 -0.46565917840870774 1.0739029963915827 0.787247876726341
Ni 7.6400686772543835 3.98471838327853 9.151115763328233 0.5633225319901524 0.15046069988813443 0.21385356232248331
Ni 6.032110135563355 7.608980074921813 10.734388619846872 -1.2800568760769633 1.2643728896828033 -0.2898147483401461
Ni 5.5694756336007085 1.297890392088615 5.539588459565115 0.7938142170899489 -2.066071908837468 -0.19065655538072973
Ni 6.063537168402116 1.4716180519331592 1.0273885289988487 -0.29794534786708043 -0.04849074851153584 -1.4934900630325763
Ni 1.0268827634090416 6.973257170737427 4.235419241501924 0.3438940466830529 -0.30830637938643035 -0.09312792760493638
Ni 5.005020553511642 8.179649115138437 6.581028435164052 0.4565479601360589 0.9112197862953276 0.6411418542624764
Ni 0.16413973558721454 9.245705209639047 3.3143035319553817 0.5905109194794863 -0.2614945612392142 -0.12878989978292013
Ni -0.06016636340752526 2.9662399774398898 3.11163160306888 1.4230554632600976 -0.8263859803783832 0.8784541618285322
Ni 8.300497008390687 8.044746955031878 0.9517023066282629 0.9443530785141865 -1.8597187686570873 0.9384727084740094
Ni 1.216714074839825 5.29823298373628 6.310744671733831 0.8984156925521236 1.0688615773129335 0.45573806264025385
Ni 0.9784683993289872 6.1221044476678905 1.549053772003803 -0.310309268749072 0.36769654841928934 -0.11772824265211984
Ni 1.518236854160924 1.2450012246489286 1.7823799840732635 0.944224266245806 0.34838910633992903 -0.6488525926431729
Ni 8.69198589727414 4.705631766549023 11.92031209921652 -0.33817077104603044 -1.6610185170362746 -0.811465354512809
Ni 2.1095689569499667 5.612606721445231 8.699790480780793 -0.19263373371175854 0.8619808467638574 -0.40509941454777976
Ni 1.2035810910301483 4.471804489313452 13.185584371101532 0.20648143822812828 1.598573620337492 -1.1654532950967542
Ni 0.5901052922041017 2.4383165903246264 11.277473693639477 -0.899852167888334 -0.7350498545665469 -0.3441131046723945
Ni 5.73798582314148 2.7767846999048738 9.322829761660945 -0.06073562731715991 -0.5341657079205382 0.2716460478509192
P 6.992087068067979 5.546114527826158 4.773551008802532 1.6737889293280657 -0.6144869706791094 0.19130550181863828
P 2.7871726362754483 3.3072745183587493 8.473439697477819 -0.3471197527092022 -0.36441684922675305 0.694798463245668
P 2.0148648203009443 0.3461899656298309 10.959404482819872 -1.974003789955613 -0.08498087301776978 -0.5252259822287471
P 3.6695361726936793 1.331169391864031 1.2382645774062555 0.1901533904920661 0.27808460438741145 -0.46327833688135694
P 7.663100753370138 2.8722597060402197 11.027787186849915 -0.014576355152278122 -0.8686526023570782 0.30341536984271616
P 6.488953715531183 8.871692496061387 2.0397159603874733 0.6202899505141318 -0.19486545125575472 1.3872204558393593
P 4.807969391282124 8.483522106308081 8.848622816556055 0.32654912764670213 0.1918634312046373 0.40614816752726823
P 0.4902466709288474 3.798976440464217 5.108970423572845 -1.496409036451584 -1.627762326086306 0.35428901676413177
Ni 2.2720438024636715 2.0896579621690825 6.7859697286115095 -2.6531547764720114 -0.41878333979277554 -1.451696781145874
Ni 8.913742486455577 3.6524360312836563 7.192646626545007 -0.6121871189013393 0.3969065943243422 -2.9380674595248495
Ni 8.564359993050681 6.1811229676085855 6.520584746758399 -2.0635252311562136 0.73667941975017 0.16199004068397263
Ni 9.111056872412131 6.849871048688744 12.606326716705581 -1.4227595292862334 -0.8294556204426425 1.313097865692332
Ni 7.369408879928394 3.0766905334741725 1.996856557032643 -0.8223038398892096 -0.885225676224411 0.1614562796676897
Ni 0.15146551313037393 8.515343974737398 11.240667495921763 0.8607294908552596 0.3773487267970727 -1.8951136032166138
Ni 1.9226237056691984 7.334644546264697 12.608954253552255 0.707601528547607 0.9090819140167181 -0.3786245081857028
Ni 5.7634151153427515 5.466978194461906 9.270104168965917 2.144903217314074 0.37266649083005493 1.9342229105132493
Ni 7.38112233578155 0.8560477443076882 3.794096460581895 0.24142452996221647 -1.922602809775818 -0.5001600403990548
Ni 8.494897131655046 0.5184247709081784 9.730800216195881 -0.9980174008068619 0.2911807754497372 1.078295983252956
Ni 1.6595785947324997 8.883678576488972 5.682586629447546 0.6232490331424556 0.15895125385764886 -0.7473073317776614
Ni 3.41019499563029 1.9778066798730658 10.293161727570263 0.7373926437671107 0.27299587701059436 0.4031777720450347
Ni 3.8993304863971447 2.641271484717693 4.952185910986842 -0.8482483276691133 1.4821296437144347 0.5575128672869109
Ni 6.202321878482473 0.9350853687743012 10.886508431955882 0.9172341108102074 0.011628328267547715 0.25917388352583753
Ni 7.309657093890953 5.311779604831301 0.4562221839550726 1.234222591351668 -0.5710402123493843 -1.188825137053475
Ni 4.30237301672805 1.942487696213112 7.571640849156848 1.2803980614664658 0.13413650880681413 0.40810991923932943
Ni 7.347890340243104 8.03974570421817 8.349979308734722 -0.17675434347734076 -0.07046005369377543 0.0815052557643435
Ni 2.3253654088834903 3.85668824261712 1.7432630580660584 -0.9396924398137236 0.026340694777057864 -1.4187282966396533
Ni 1.8987361524405735 4.26989308898114 10.779435600390329 0.08761753930966845 1.282181892839766 1.8273364956716398
Ni 6.287446551636822 8.483014460548796 -0.019422150716386807 0.21639509779741445 0.9293056972627608 -1.9443000922435933
Ni 3.308195801403379 8.696686320971233 3.035213994771027 -0.9906835861496099 -1.3935875357079677 0.8031144114449523
Ni 3.537632882905865 6.2907180465299986 10.759195575950647 0.09388100372087703 1.626661893933276 0.17141493354229834
Ni 4.021033856762267 4.2685017635668006 9.973964415063358 0.6154480490407981 -1.0627590639596214 0.20523856695996268
Ni 3.9860345019137156 9.045382552516354 10.96521044617052 0.7373173104444851 -1.2179094560139412 -0.3934268633058579
P 7.357488605432568 6.0944001503972265 11.113754175930783 1.792839490336035 0.2934232916270108 -1.2541985202529624
P 5.914082496529359 4.648587424561106 2.0660514942775436 0.38870066147478216 -0.544608757630733 1.3629610690713625
P 0.14442615860160798 3.9990170721650857 1.0990145253798858 -1.940407956278039 0.7429372277344237 2.2474259558703484
P 3.30022388281311 6.379903885758634 3.7689040697349574 -0.4217339377806672 0.2698961550393481 1.0131162041215132
P 8.277822164475912 1.9047808973150346 8.202413267103456 -0.16427086629834933 0.2494368587437317 -0.36828558815353996
P 3.6602669371630125 0.24704486867179518 4.980268122322752 0.727184078665225 0.09822616806345018 0.8936825487425124
P 1.303935136963076 6.505640219655862 10.555753717662563 0.7490194293727617 0.2521285466432819 1.9584781835161884
P 1.0664979343281384 8.5956930174155 1.3273752098557376 -0.4921515682722814 -1.8357509449875804 0.7720503430502961
