# total energy = -381172.8457108302 ev
CRYSTAL
PRIMVEC
9.19571522105007 0.00000000000000 0.00000000000000

0.00000000000000 9.19571522105007 0.00000000000000

0.00000000000000 0.00000000000000 13.45885874314422

PRIMCOORD
 96 1
Ni 3.191851076409801 7.1846857143075775 1.928829733090828 1.598009520303906 -0.2713354585890359 -0.9590412766539805
Ni 1.114998838142221 6.934525482782976 10.909293299372253 0.333623003774348 0.41664289641100505 -0.17693843446368884
Ni 7.980170238210944 4.178450145665901 5.643205246047821 -0.04373497899410532 -0.48047310349308864 -0.30518403170736474
Ni 3.9394351207509097 2.2491431549653056 11.255872442071011 0.3550287231436337 -0.76342840570924 1.572568711633298
Ni 0.1382456209627776 7.868331952083822 8.053794810982543 1.8212905465878764 0.42092224051264926 0.21896234430395836
Ni 1.4907725369005402 5.89110609039092 13.106290313148524 0.10335680442179618 0.4341816766257167 0.0804387621730421
Ni 7.237478314262831 3.067193963538624 1.1660985069614775 0.8038872850552349 1.1152517345416986 0.4441940665563963
Ni 0.7564376787666304 1.647826153802785 13.41164506539276 0.48593489793860833 -0.045928129990682194 0.8207246683275479
Ni 3.5806734947877863 5.045872748205386 3.1160618323214515 -1.8310188296192336 -0.21477864523991397 -1.1563281928670344
Ni 2.4611411691385214 6.339994919308485 9.239345013935196 0.22247987053891363 0.2400407622408124 -1.1212604026296236
Ni 3.832452172156688 4.867163222420608 5.410756881231775 -0.24444454773546287 -0.18459389412641758 1.5754519467183643
Ni 0.7133180514455744 1.0435205452573244 4.762996001766867 0.1349263516979612 -0.14636878920694793 -0.31366841502929205
Ni 7.203573712967757 5.4677261749511255 9.269438910924148 0.8414536733447832 0.8830027004311631 0.6494156642354943
Ni 7.664692842867813 7.174754342081193 2.0775768606115053 0.18121932122722983 0.29269181277762496 -0.571513552441377
Ni 0.9678765934663608 1.6376005186956184 2.564155247128199 -0.1882507741527145 -0.5422011766305049 -1.7161779358172378
Ni 7.443986486566462 1.2488148831777306 2.864260165664989 1.0536853837931273 -0.5001466706626161 -1.5952751520918782
Ni 5.659429246065424 4.315236406654303 10.705391192706546 -1.5454754549609317 0.32521112556156895 -0.15885715148194576
Ni 3.485277147124347 0.6213158421976517 1.1403017676034433 -0.9187135235692112 0.45412032453117274 0.735523708879172
Ni 1.1473677550282155 6.613116851249089 2.735499924749911 -1.4115148096103498 -1.1344599320390332 0.16289661165864203
Ni 7.970680260305732 6.434848719785483 4.2225012989189326 0.6480910318868 -1.0397749443596223 0.9726953771023052
Ni 1.2908393008393768 4.57109798149405 10.740357899086943 -0.6776394349678782 1.0231620183932895 0.07251719333312028
Ni 2.288473228124794 3.6272405956715015 12.797489926484634 0.9668587158158702 -0.4463324530556378 0.45561310702661534
Ni 5.520215316310574 7.011925816143606 11.236047400049841 0.054506358577996454 -1.4586914672961522 1.4998211474569265
Ni 0.15444847083582375 8.214881668494503 12.400480563020396 -0.9834153346229708 0.3926403628488206 0.8873321810444523
P 7.430937766946796 4.77108639184536 2.523886291464717 0.6891512922622196 0.34608076992172654 0.5925549464927085
Ni 3.0078907973460733 8.72343229649057 5.539544709291926 1.1994309375937795 1.813172545466432 0.5547031657522575
P 3.3771723212971443 4.021249397323266 10.341625258627127 -0.2768558741866329 0.8798415290943622 -1.062220674957648
Ni 0.7110687795505987 2.937322880248595 6.09561143596223 -0.48397468888844386 0.7749258648258783 0.9052175459653056
P 3.128961581357722 5.176920883018542 0.8786174660102258 -0.6467692277515829 -1.1946779962898264 0.42632027159976904
P 6.170223628527452 7.968583637280162 9.54873668507516 0.7793041963992321 1.3849141763036859 -1.8489664152365899
P 6.218078129514589 7.461596280838246 5.037906500279722 -0.6702935361257681 -0.3862218609169864 -0.48610613340914993
Ni 1.5853320744967567 2.2904503068550466 10.508716918050043 0.4195289597095485 -0.052930786560760446 2.19392258463557
Ni 5.461463893019489 6.298218785952497 6.639577521231886 0.9837421218347704 -0.30046760006830187 -0.7987800457356565
Ni 4.7079670039176715 0.28912155651161014 7.427419486378449 -0.13060432728383958 -1.4484142537398603 1.7510845178864358
Ni 1.4557092755123875 0.871035598972583 6.983034718679851 2.3436795735884606 0.22964964881447544 2.8903521557267577
Ni 2.976303516237155 1.4536218482018417 3.8386013467935247 -0.8468388489160964 0.63764566818376 0.9974882677762693
Ni 3.6734858465293616 8.00129279562206 13.237177522948752 0.8556651889584747 -0.6283961245610339 -2.4167667804924373
Ni 6.806723435373444 8.543003171996224 12.2368207444446 0.816072514267517 0.6303887295110304 -0.26452049254973153
Ni 7.159627390866005 8.057119981535376 7.292480644538456 -1.8985172295815238 0.20596696048555493 -1.4304347864433042
Ni 8.843574313284751 8.540152500338651 3.5088724323055325 0.5508825064545868 0.35943842217555516 -0.7201739658959792
Ni 4.545451132290914 9.307075133376136 3.2556435906772787 1.5615260806658915 -2.4174864322672818 0.5065024376773148
Ni 3.3682708691534957 6.892436695116159 4.251195608081165 -0.2307318261350607 1.159788126391177 1.216011724770596
Ni 2.021282532374948 8.747414721274284 3.223073287632249 0.03595224972489292 -0.685215190432607 -0.03268746293069209
Ni 5.014018791360759 6.381044591177541 8.937596821123542 -0.46682877323677663 0.25792715560293 0.22340135391191845
Ni 6.879378779781467 4.328147190548602 12.676104649019148 -0.9895877819822699 -0.17005353441839743 0.5048399623732274
Ni 3.4873369872898192 6.005197326699027 11.402802496302861 -0.6567497360030625 -0.9323244294844265 0.5590922959588888
Ni 5.983762114977079 8.631594690541585 1.2546550817897462 -0.9112912629632112 -0.34758820770518845 0.03667550104416264
Ni 8.531361396775294 5.576391939394818 0.6557583928216554 0.0177354696065501 -0.3629965718404587 0.022592797698851416
Ni 5.321587871782879 4.2705544273505955 2.086257615594567 1.2786152585344301 -0.06369470994548385 -1.0296460834557362
Ni 6.505701704048718 2.3820396284983723 4.606550221627737 1.772900842430579 2.583453455321131 -1.0179290521291242
Ni 7.382421174477902 0.5611354047917703 8.774502539021748 1.1109523358353963 0.3154028812218955 1.9654301893539894
Ni 3.6139068088860777 1.7889068137075943 8.963532415778445 -0.7636304944177171 0.54644195418473 -0.8094485811930964
Ni 5.360605290631537 1.840595927859917 1.9934314702804559 -0.023200092265547142 -0.038568347191501325 -0.2074494585683524
Ni 1.621885041718867 8.297164926533105 0.6690112573148643 -0.8187197220823771 0.5669161628786817 0.889952392276119
Ni 8.590112820066379 3.8667889720579107 8.070994476364236 0.44908559032074274 -1.041670104499806 0.4092080373995146
Ni 2.023158458239932 3.5349064211111973 4.251061350641808 -0.7472458824121067 1.0696048832368612 -0.45460934835244937
P 8.878977816128808 0.15820124213729375 6.426012557218508 -3.3526786702178066 -0.8767091541129676 -0.6989762487724414
Ni 5.256059206518789 0.5829402842576993 10.218867060908497 1.8645023060886599 0.44336874244162355 0.26649767088076043
P 2.3250629782070025 0.6471429274152667 12.34890639530588 0.9692804378834855 -0.7716063135343421 -0.9203451456353633
Ni 8.073672268579351 5.967798353694668 6.992658034452917 0.09032619649008315 0.6886928645685624 -0.057271322917643294
P 6.8668358244881444 6.779476531756057 13.366153863166904 1.3974202791904964 0.07966537434212731 -0.278591625930817
P 9.001381978819001 0.05638168752928941 1.2738226301866686 -0.27586959901396363 -0.26219030175465813 1.642777825658532
P 0.8967762444689683 5.692432667288104 4.76031728998025 0.1842038577768505 -1.5463180054668852 -0.22818540556412312
Ni 8.108036655625646 7.898466310218881 10.347547299102862 0.7906754143506511 -0.1758842821675616 -0.624775239978995
Ni 3.0744309912628505 2.6349125959551807 6.393227074441906 -2.2620375351359367 0.31090087958648394 -1.3727898822363263
Ni 6.121504730328021 4.793505545074921 4.36655125520513 -0.3631374682936972 0.8908720758769109 -0.039373616701616064
Ni 0.7140408346464946 3.8709086523888554 1.5758301421620131 0.4689656170741214 -0.23137151660158864 0.2920696058125938
Ni 5.127493914762229 0.8148405844582897 12.944568951299878 -0.0843622655971644 0.9881595341761756 -1.0665146743473117
Ni 0.009322615891767423 3.7655993239290795 12.68300879185949 -0.613466499834395 -0.1246555658995724 -0.19771988998541432
Ni 8.360863644507333 5.816354122957327 11.639947112781885 -0.40638290924589365 0.29588203758014847 0.0657762750648609
Ni 4.620313448304802 3.1190577962764108 13.545533756576962 0.8717122151190083 0.7148576958893882 -1.0417585504485543
Ni 7.424914573605794 1.0077032352371684 0.27064920417053456 0.30132866251701657 0.7593359808074213 -0.36795828672110825
Ni 8.83900404291761 3.07467927556851 3.7805396021292714 -0.7148795502662592 0.818947264712151 -0.5019934940633677
Ni 7.083192607582941 0.22482235834628628 4.853156309295396 0.18538065169377105 -1.6463830265112873 1.2516315308567347
Ni 3.0685457336472153 2.845724362890245 1.780809067057081 -0.9008793236012679 1.1169615181439538 0.6349701782341258
Ni 8.597644110671387 1.060394682327154 11.550419470447036 -0.664280754272785 0.713745693772132 -1.4168225949765083
Ni 1.2226622696482508 5.282478495783978 6.973747966076679 0.48645503210813645 0.7376929486163488 -0.4997931439779392
Ni 3.7919726346191456 4.679147633031106 8.173375889160233 0.7534406983689088 -2.0755379393463738 -0.89973158315007
Ni 6.18325395671707 2.5901846380763516 9.12205091008408 -0.418524429704434 -0.42457860631831396 -0.13770417155341447
Ni 1.771241845145664 3.6032213880276895 8.49652343040524 -0.3305173682658308 -0.9769703503285755 -0.10746594149416332
Ni 1.0431619123713716 7.634301004712071 5.569652399853413 -0.8837411212590845 0.09390157254616731 0.16782670197040772
Ni 4.434973811987409 3.09348451279347 3.9971731762463025 0.12769718093937363 0.08480706644406685 -0.1062958324454621
Ni 4.891669802960714 1.319373604560184 5.506773020087861 -0.9869534296832164 -1.1781509451690808 -0.8979240976276859
Ni 6.3529976603530285 4.210791475406823 7.418940117554421 -1.0129120585305071 0.0037658948003354495 -0.9118957293164296
Ni 8.032503052414976 3.3909199152586678 10.537613532942812 1.166726762492539 0.3859729781309739 -0.4860361994031629
Ni 3.5102435134156753 8.462614231252655 10.708029443347055 -1.223101798848158 -0.5532101261464988 0.3262562789966316
Ni 5.345367990836055 6.806291236767295 2.7075182835020724 0.663944968199921 -0.22411226393601402 1.0803811479167587
Ni 7.228622840694305 1.662658842137191 6.810384249524669 -0.04194626252479873 1.1834918977660196 -0.3718349960676951
P 0.2210015387536355 1.9147409781018982 8.997960253258409 -1.3336242677804582 -0.020956804757325198 -0.5852854094144887
Ni 1.3264359136989465 9.244636228360255 10.014548388352184 -0.6789643244268887 -0.4098852659721974 -0.27870886823497165
P 2.5354793293960163 8.499029262749398 8.277157809354451 1.126185350735067 -0.2362404146581157 -0.11791644740352596
Ni 5.001613771792804 5.972423798351958 0.1858628725022825 -0.7363739726946092 -0.7172925305831259 -0.2377563370820099
P 4.857139893043979 2.6425358437104336 7.193813381040827 2.5776751580764574 0.05156527367180151 2.2402052697521935
P 6.541583384074046 2.290459502570071 11.567391082096124 -1.0963628680569957 -0.7529375334802453 0.6305915895504559
P 9.41383738480977 5.951898962417429 9.024340000948992 -0.5128000977605685 -1.235691976808343 0.4212264020166294
Ni 3.3184944637262546 6.690875817495671 7.02993838273346 -1.1946538279201102 1.6178869759541232 -0.7083072963653801
