# total energy = -340858.7154099481 ev
CRYSTAL
PRIMVEC
9.44118108491450 0.00000000000000 0.00000000000000
0.00000000000000 9.44118108491450 0.00000000000000
0.00000000000000 0.00000000000000 13.81812284697651
PRIMCOORD
 96 1
Ni 7.271229616560857 6.561639872661728 4.136496854663512 0.886997166302537 0.6626360195805104 -0.8119656911879952
Ni 6.071151622750905 1.0824597574111803 1.3976063885711603 0.8580218621161093 -2.1784710259671902 1.5216660112461602
Ni 4.695354362938868 9.192868772134256 3.462171811085196 0.854845778380973 -0.5758728578513372 -0.9452665914673916
Ni 7.549668934900286 2.8576095442284895 1.0740523854804445 0.23355901117121067 -0.5179829275130886 0.5050893593798721
Ni 0.8374120090264133 3.022074922143614 3.29616091179437 2.498272036256781 -1.2226258876530038 1.0391869330666361
Ni 9.20416986612762 7.411261217320739 1.6506715880997573 1.0287230574208346 -0.3746367271825483 0.16163599977866355
Ni 5.653964704305811 7.033085259928762 12.502555120231795 -0.8083790022780013 1.340848296332723 0.3676394699291088
Ni 5.92255687056915 1.069544221418764 5.307016398118891 0.7172755613022614 -0.9670698033854119 -0.40444224057975503
Ni 7.256784609200918 3.764019594292751 9.09709270862909 0.29205160809046476 -0.22548137636939877 -0.39801782511065
Ni 7.457702388042006 5.874170816503995 12.418209494903543 0.8295139844844036 -1.0323403424584479 0.5923734266095217
Ni 3.754946619081704 2.131960350970368 7.26929983910702 0.5510791958464251 -0.424486817935456 0.2883073105566841
Ni 4.94557399042937 2.393093984021713 0.0718285071858936 -2.4897233753558217 1.9242208049952152 2.52264223757103
Ni 5.990240699172683 4.012096073632464 11.111829464578232 0.9702425446864388 -0.1864692567722595 1.294412373467687
Ni 3.977456379512453 9.274988166916446 0.6455436024431691 0.9930235471366963 -1.0678220803048255 0.6020744559473695
Ni 2.4171784374695595 5.331161275126936 12.754804601697714 0.03642558981688565 -0.2836901234996469 -0.015941610930920933
Ni 1.1003696783012487 3.149011604466739 10.788306617385743 -0.3757415302109529 -1.7873003056853605 1.2814797245664187
Ni 9.003403146187027 4.815956012622439 3.0639616670149246 -0.263937623463068 2.7665360550093454 0.4477213629833644
Ni 6.567984346482564 4.668985143621018 7.041798526133003 -1.6543115373297443 -2.469606807111605 -2.344596428975775
Ni 5.547855267888585 5.543823883481596 4.99533468048904 -1.9484655364751928 -0.07520065370255435 0.45916020094792537
Ni 2.418065908509974 7.294039510535767 0.7941402428611786 -1.9327154727297875 -0.1097439388950626 0.7999347281653901
Ni 0.21206970217021284 0.7592994515798822 11.319944255909832 1.0380962711056185 -0.6389368761913577 -0.6161211638484227
Ni 0.6436109926349471 9.20088433504183 5.968407023342229 -0.990225672676585 -0.35500661165644665 -0.8748936981707836
Ni 8.902373065298983 1.896648348722575 9.251565540276397 0.9397137799699623 0.5675293709826484 -0.07115373732669036
Ni 1.2871445675833904 6.9227744978414885 6.870342897597422 0.07071459290674273 1.1767640921238829 1.750146579453199
P 0.2741652955735174 5.401214840232 5.6670331874349795 1.2060949798775165 -1.788424391987475 -1.5970504988247463
P 1.0968103529583093 6.8640597914549115 9.142843728998717 0.6334036050779543 0.7691640226414366 -0.11803728925210638
P 3.703463857556378 8.587113139963629 9.285765275348714 0.6643589158088881 -0.10116468186648385 0.3884798037132277
P 3.005826649159002 1.2173459143729128 11.49256020562485 -0.7472337982272487 -0.35807650883102204 -0.8317534153378836
P 0.4233482333490774 3.626452141847212 8.066619871823642 0.8220973803053584 -0.6341358552582885 -0.17857494162584728
P 5.77914532691067 7.537631428767003 2.2843429050820614 0.39108973053224905 -0.2348617891430342 -0.4853610277130093
P 4.145632141671013 5.004128196734168 10.594023156630817 -1.4463725407194834 -0.8594233704493264 0.6559061570558445
P 2.7949106593413284 3.3101064806645444 0.14055653043910485 0.8099825993196953 0.9141364457214902 -1.0559271286394525
Ni 0.918635435705036 7.958840290437805 10.968204550222799 -0.8143743006294878 -1.3796310735278756 -0.251015001864129
Ni 0.15635162672222788 5.130337908098657 11.60498484820094 -0.07199988737706955 1.078933616836955 -0.3857976288953743
Ni 6.714841921308612 1.3322262082001939 8.170214177547608 -1.5823592153611588 1.0169497189349905 -0.3881645864656541
Ni 3.4599569099566714 6.923208792180414 11.109425739824088 -1.9303120054946177 1.0243637520108746 -2.8445939756550365
Ni 3.542368981358573 1.2982946026762583 4.806468569553156 -0.851034889275315 1.2092497234564141 0.6522803873777993
Ni 3.6271413480807255 7.083765521045202 3.15209320603686 1.4552348762061196 -0.8613642962257811 -0.6178474025109102
Ni 2.0691104071827113 4.805995566370977 1.3241700482131114 -1.2219951960475406 0.9798011349091513 0.8427726492665227
Ni 4.4645269217995525 1.7112613130887415 9.705352142075439 -1.011955865264825 -1.9509949877652661 0.8209205863884379
Ni 9.24865671232372 4.297465219032151 0.2140523502392241 1.2783635475349404 0.8068880195547716 -1.357916050448287
Ni 5.537252821310015 6.5069565506821405 10.212505021065365 2.3073290599838843 0.10378746420131157 -1.6837272714877
Ni 7.631344594162269 8.72160276731156 2.8789787139399183 -1.6733670112992987 -0.37415850199454914 -0.03616590839759578
Ni 3.547042366092671 2.44468059854113 2.448032217895887 -1.0553637999368146 -0.4862735122249496 -0.9115478590587074
Ni 8.229150751694288 1.09137223254045 4.41813767757533 0.7020556590287135 0.6470049979114729 0.6156203129526043
Ni 0.3166402260386352 0.0990738681266207 2.68763901350841 1.6359764864659823 0.8907610042203434 -0.4670216059738731
Ni 9.026222481343218 5.443936185528552 8.733095517284928 0.4898239485803693 -0.34637670389559055 0.47475085629733077
Ni 0.23229837718289628 7.344597036295554 4.12925546862098 -2.6103209691359366 1.7184289366349437 2.0076898693541487
Ni 1.3037988113630847 9.525774265283808 9.140384301275015 0.5607894811556535 -1.0645230978385796 -0.6418915879443073
Ni 7.095019409132161 8.291896842487853 0.2701943347267262 -0.1252752017614423 0.06210859640528659 1.6270208199345915
Ni 8.859642278821148 2.195801618792531 12.789474507597822 -0.705469569806269 1.0732499361886163 -0.1872570427808775
Ni 2.0527205164788853 4.997255016761597 9.917639935533241 0.24588205151293782 1.239501323252104 0.15312410565291049
Ni 2.4730135835654288 8.612679858872594 4.4444200380253935 -1.1784103694780543 -0.4832470666938001 1.3915625348581389
Ni 2.480849764028664 5.7336388331362205 5.367953558579016 0.8330430806835847 0.2611369207894793 -0.5680847292654861
Ni 0.4727945320720901 2.3451705478393268 1.1322667092591272 -0.5962735329948763 -0.24649423117563998 0.743861539320906
Ni 3.6568621867533326 3.772478892720532 5.615008502104125 0.8344792989094789 -0.2913471258242724 -0.5988695758568267
P 5.384069655025693 1.890360521989425 3.313959426745323 0.5169696557572258 0.43471518053168356 0.49116657865119273
P 8.205415621953838 2.890294913823332 3.179951299642724 -0.830136448559751 -0.6979413797500238 0.17383305606548774
P 2.0838292087998 0.8427141764338264 6.910512291593718 0.06533584509333265 0.7437460967889643 0.589178830931624
P 5.7475079284380195 2.6153110678327516 6.6724123085136435 0.3586107840679372 1.6326931877290205 0.41203136578092264
P 4.216582618997773 7.451112443507864 5.361749758359267 0.33306327461613605 -0.6795443653000749 -0.21405847924443777
P 6.327017076647448 4.377139347862561 14.162332727677082 -1.6166885847706483 1.5506747397736844 -1.268863321353989
P 0.43944922390570496 6.4154620628879115 13.462776127125277 0.15099600356631415 -1.6056243565366866 0.2739507847246959
P 7.0240689318054015 6.096104664876603 8.214846417935435 -0.9010726705589964 3.79412808414953 4.747984988389094
Ni 4.403272537648386 6.090260573663661 0.9875815502458386 1.3741664508688787 -0.16719652458557657 -0.10891167280175437
Ni 2.345680371628501 1.3695377566227294 0.47653323985936846 0.03790294569336053 -1.6397513801273826 -0.11988514109412257
Ni 7.179319716790264 3.5469951601862655 5.145316342200974 -0.059511525102071694 -0.4023077107352555 -1.880715939734045
Ni 8.105631776994885 9.197362774424015 7.307327973188784 0.21178099606417075 -0.41622663480919286 0.45526575098952565
Ni 4.8319871384375865 3.8170601507294424 9.02720058772393 -0.36477783211059756 0.43784909817497497 -2.1197208045111755
Ni 5.295860698317254 4.136899048986082 2.274656253087749 1.2365720654204508 -0.7464856072073144 0.24593733023090547
Ni 3.7538892067782315 6.452254346339992 8.295876300397797 -0.2138705316033478 0.4746374706479181 0.284354239446207
Ni 7.791759705307841 5.67055285981654 1.1123004990860559 -1.2362535057387676 1.0948765133194562 0.8710159603829322
Ni 1.9746797120100896 2.307962852410882 8.783835257843439 0.13942835333337278 -0.6306101014932172 0.26483493846635675
Ni 3.6633388371121027 8.76982832129494 7.079673713078014 -0.28501655562055433 0.15672442140965911 -0.2667486105493019
Ni 0.24878079146327653 8.498186653477834 13.35615592280075 -2.9799119063644617 0.050100773311133065 0.7696669304197842
Ni 1.1447809950471008 3.403611940071628 5.945399808678545 0.008587741669011014 0.08136744463489858 -0.34318159399706055
Ni 3.7590063270325365 3.203798779440417 11.887150600791982 -0.6122526820319519 0.1780812898188804 -0.26746157745592647
Ni 5.399675927683196 9.393739345068939 11.42060990720043 -1.602581970165937 -0.994140691460275 1.4762510734464704
Ni 3.310587980909876 4.618314323685859 3.276732848954316 -0.45119775156773906 0.7207164686630104 1.163867952887505
Ni 8.028667267192125 7.115299066523763 10.130729285281804 -0.08678013101003763 0.26901786619945284 -0.5479234238262628
Ni 8.288035399343922 6.463904764040754 6.57517380602805 -1.2573481216255378 2.197717018680996 -0.7985933836461472
Ni 6.760980974228888 1.5076905623076902 10.530004394600573 0.6230610855013656 2.5197188932766474 -0.42568855155304103
Ni 5.918591574431129 7.72463290639989 6.781534425877638 0.8100445629058823 -0.46561984053034006 -0.18745270373145137
Ni 7.792297852640859 8.64464769869008 11.907131916855102 -0.30138188435245516 -0.010833857390710374 -0.47053399000250573
Ni 2.142185150297698 8.863749192678386 12.68796670293696 2.705989660884856 3.3577218890686686 -1.4039897048778982
Ni 8.338338013209121 2.610533830104562 6.984162946766845 -0.2096276971665938 -0.4062404701307584 -0.4171725436622299
Ni 2.6531418812257423 4.280546622176589 7.791680399385081 0.12773754725900582 0.7113165155053491 -1.50882180829364
Ni 6.076854096244632 8.68819042675808 9.241477638077644 -0.38880736225597556 -0.49716264833362767 -0.8285917297804504
P 7.862313653020799 8.5515387688968 5.227754848910461 -0.2933775259907399 -0.8370108070820811 -0.02831838732871897
P 8.214847362053563 3.4887525128637398 11.007627146779768 1.0861288490338135 0.12392023039544464 0.6235786485677325
P 3.673233195094597 7.577218301878262 12.9528598143744 1.8526742031054804 -0.5666803927187917 2.971984681097585
P 8.032698651599114 9.516993966692471 9.884186053782127 1.4984242671094001 -3.3221797302980014 -0.9091824441503246
P 2.5872141123404773 0.43260342335884755 2.749820521661372 -0.3455500942292371 0.6015178121129512 -0.97598381804559
P 1.668294497078883 6.325733075993231 3.362198198382495 2.110083024311095 -2.561128566571686 -2.8816124618609145
P 8.599065675465383 0.6321805544580332 0.5339186279215791 -0.9983513871075129 -0.030953510958720884 1.1924874163964108
P 5.965570892485414 2.0708570257196977 12.29987089637303 0.20399723835369385 -0.7343613131399547 -1.352435229839374
