# total energy = -340874.41077602276 ev
CRYSTAL
PRIMVEC
9.16554722159379 0.00000000000000 0.00000000000000
0.00000000000000 9.16554722159379 0.00000000000000
0.00000000000000 0.00000000000000 13.41470482651118
PRIMCOORD
 96 1
Ni 5.476066137881042 7.899161840823842 0.6152034406548947 -0.29553648131527166 0.5457061044599699 1.008489246872463
Ni 0.9530610904380268 3.8763848607844995 9.133025966522744 2.88144739703796 2.1529942218523246 0.8602947173106861
Ni 4.300557217846533 4.972300169273237 5.794522157433855 -1.5491544464744158 0.3905523699715403 0.3826670536861926
Ni 5.336181557110482 0.6468474922281067 6.898082448809549 0.7325772246563383 0.6913117902486481 -0.9358298715345238
Ni 8.282235884416133 4.969009737842453 1.6376266423429129 -0.13565371678228896 0.16312543983999647 0.7351465280454114
Ni 4.022694490114892 6.111705999040727 3.500433363890989 0.027367593379675453 -0.03925174641177111 0.7031332083636084
Ni 1.8504964751561916 2.2577583977062554 4.168471601155233 -0.7287838190521772 -0.35194879866672935 0.23381612148733924
Ni 8.765791821534023 2.3865068386762505 1.35509956766106 0.2847872132185676 -0.12860812278941722 -0.008030583613960363
Ni 6.336188580106941 0.36463296270444223 2.584020713776058 -1.1198087577847617 0.011966171222940681 0.0812525163235891
Ni 7.699701203507046 5.02573530922163 9.257434520912025 0.9927674652618322 0.028524589802254103 0.9686975687968221
Ni 2.145232975211159 0.3922304252060906 11.479834987335447 0.07254676101947505 0.0246476233453511 1.2823063342327723
Ni 6.527134424111206 6.284971502571501 12.848765365662395 1.7023006636145135 -0.6448123611355282 -0.8539528342530582
Ni 5.636692351876852 1.674710446156154 4.401914421126001 2.814615427015075 0.6444035557328838 -0.11249913304269657
Ni 4.086248394128984 4.217746499247267 1.594230526199919 0.3697071510914149 1.2422434047736153 0.5574529605832529
Ni 7.463999992715817 8.115056304200237 4.1416422115056735 1.3825197079295801 -0.808334265082995 -1.0771590414350352
Ni 8.337110015268797 2.2398305874594193 5.321988707331736 0.747144580947552 1.254309334799214 -0.2668943920985468
Ni 2.595142188701166 2.9029854211963046 13.246323723433152 1.3187882312088899 -0.9218047609000254 0.5043164857695895
Ni 5.270822040305681 6.927485524101906 6.617930167397101 0.42814035552764323 0.24728304562552247 0.2969205061469919
Ni 9.007166506017885 0.4373936588417173 10.965098775330693 -1.444036950607771 -0.5517093732312564 -0.8137191835439922
Ni 1.0617003209368767 8.520613434978362 1.2447482129525425 0.8193331872966598 1.271491245895139 -0.9545529018653237
Ni 7.829137060514112 4.652074282563643 3.9656279603813283 0.10868978659893541 0.5642332167298799 1.1632354615098288
Ni 6.319030675821625 3.2629347893014966 10.95848583305406 0.4171128940688881 1.030073400801142 -0.7744376123355502
Ni 1.324210757173911 5.666452883508486 3.8528101569317967 0.2712873789599199 0.3012170766398167 -0.49541275552205644
Ni 0.6041662887636677 6.258446409087685 0.3143388557681105 -0.9080951246234167 2.7581151779355015 -0.08594863624767778
P 2.1989064193857364 5.964443152805595 9.843830646840024 0.7017949491681591 -0.8137394952589664 -0.48576289113711824
P 6.26460565677985 5.81295498932926 4.914142022872802 -0.002809444424337097 1.352787213862154 0.6166364129219445
P 9.073295928784205 7.253274897938203 2.719214367509639 -0.014693083235800503 -0.3508727919937312 0.09491947228772041
P 1.0506191744192772 0.9603202037895064 8.807370409674999 2.2486495438648046 -0.8130383554268837 2.974616462293477
P 1.0673188013465449 1.3601488675920324 -0.13934564659749582 -0.45060485517874654 -0.1890799549222292 0.42915851237951247
P 4.123762978658791 8.336431764778887 11.737088982275672 1.6625812335377046 1.4926523976226294 0.24692411962420702
P 2.0311860718873427 5.891512894045842 5.990108517965712 -0.4114636662029107 -0.6567723617108817 0.34901979794539245
P 6.810322334743364 0.8193339242501989 9.945071447670548 0.9550311270533229 0.08121137867300852 0.8357535376362123
Ni 0.9011987583824549 2.50938016391607 11.269116308440847 1.1130958645409603 0.7647085579732443 0.6798323288541389
Ni 7.977380620295468 2.1964042250107942 12.558068122241265 0.32719087499575905 -0.811151679927132 -0.4493313877829616
Ni 0.6045961529255166 4.0523908629164005 5.5594698673816225 0.4295565191488796 0.6723396200215195 0.6846534043918661
Ni 5.300793379522018 4.177051469852607 3.9185830399135564 0.28044410575852347 -0.9857041306571473 -0.385918984964587
Ni 0.746230436649104 2.113593506411527 7.1709242898064165 -0.29358527112617183 1.0441566183670856 -1.0417228121146125
Ni 4.321683804052545 6.937310990658454 10.073450517089958 0.06272874648778874 -0.5240599869451039 -0.23419278810046762
Ni 2.2753287516138143 6.611714093312537 1.779822774107467 1.7315132806227278 -0.3359560227828988 0.5885088014477929
Ni 0.45623985691408175 5.807089039146246 11.214747199236752 -0.877595927593295 -0.09708974046616183 -0.3987225644871585
Ni 2.576481134681453 4.449167399514327 11.360631547178876 -1.3562898276987738 -0.07278124562778433 0.037408265445129124
Ni 1.6843251051280006 3.8850463028516065 2.2190339609512026 -0.30112888780138464 -0.200516478893945 -0.24211281427849274
Ni 6.415828019388517 6.470986282203169 2.681895009134361 -0.3057517312853767 -0.08945999183504592 -0.3442275187630717
Ni 8.257965515533913 0.47342800750502867 8.20423249530279 -0.7478246377337121 -0.6646029134988941 -0.33141031239374535
Ni 5.858306116681686 3.1526365947665127 13.298774483616457 -0.5156290825689314 0.273033158006433 -0.627866477309809
Ni 7.492202381330089 7.331612829522922 10.545513774622718 1.3937009213573803 0.43457428407844517 -0.5012476170362787
Ni 6.59969806098452 3.0587263985553244 2.5503629914915833 1.3708615548653618 -0.913272297948982 -1.646552976430248
Ni 0.5618196277706037 5.746944718676032 7.693453966562136 1.3064762466107562 0.13628646527028143 0.7014267671954629
Ni 1.9128405269450366 8.164220299171621 3.584758230881247 -0.7787483238957621 0.5950090644601559 -1.7059413456908943
Ni 4.5770909412398355 2.030214523888281 1.4880797417552694 0.4815521954898804 -1.5604130501073707 0.9745391151792636
Ni 3.5432538836722745 0.11545473136773941 9.707457387186828 0.9777648212054129 -1.0904431601384512 -0.9969066842411863
Ni 7.502916905961251 7.862224685765175 6.517815812312658 -1.7771588463759844 0.48384613373037966 1.0117008118312254
Ni 6.156919643185739 8.423568621638125 8.629357152714848 -0.2772412825505096 -1.147346043973082 0.510381718127063
Ni 5.393127101621521 4.802829202267101 7.827614663130677 0.0019825776476675534 -0.22043070131936876 0.2499719053115953
Ni 6.442123974193309 2.520580462546762 8.536058298499293 0.7113728226645814 0.16141565623774137 0.018349449041465172
Ni 3.7547855466000533 0.22388773705546794 0.25360060784186567 -1.302793912663163 -0.07635302213944269 -0.35106022541418896
P 4.028578771392229 8.24981734410782 7.779442380362108 -0.4679160927636845 0.8045100062408983 0.606718125366968
P 6.182372367651723 4.88833459173169 1.1003963444957308 -0.40345545118645354 0.6914501155987254 0.41047533414771237
P 3.106753865678751 4.197472308927225 3.978775021229008 -0.5959297765022123 -1.3125764459712235 -0.8622271584467085
P 8.549411584158095 3.9158517068595904 7.598048869608995 -0.3136614730507566 -2.120190287948426 -1.5921034392321163
P 8.412936586931412 7.2845477448513964 8.356502479951954 -0.6261122136228636 0.5154542475539639 1.1383350987237233
P 7.155001901278398 0.6430584550317661 5.5889554325984285 -3.0121630530886834 -0.992167369783988 0.045175568095373805
P 8.308027734127073 4.10703585509004 11.620635206267389 -0.24328677998193582 -0.6297888911435023 -1.6494164140209722
P 1.921291161427441 0.29711312643380366 5.276660493847213 2.191867244768438 1.3422608604095334 0.643996292992136
Ni -0.0664135547283108 -0.0425904645475455 5.653184837438283 1.5957911724963485 0.3372729418221095 -0.6181574775521612
Ni 2.5391315300005437 3.9535587678797772 7.412268727984647 0.8106706265256555 -0.7074554898880462 -0.817083986251167
Ni 2.859724038596577 2.329597956353854 9.54245645753109 -0.4703717533930286 0.42090809944526214 0.3484302439905096
Ni 4.449268220533098 5.191998334721431 12.64601521346953 0.1522630432041958 -0.12215285408237672 -0.10742763205706016
Ni 1.4896122212405818 8.109337002771797 7.147355085282009 0.6245435835841632 0.1626749825661392 0.6734310533134854
Ni 9.098134561590404 6.488345828526026 5.551889959879509 -0.3612690476263907 0.7307370861238061 -1.1374377837204346
Ni 1.090232669248943 7.8228494951616945 9.768400026814763 -0.2538241891781499 0.5494964247403374 -0.4327266893467451
Ni 2.532394852837239 7.108752550304198 12.085656573916385 -1.4125553350597222 -1.5678486804498093 0.3018521391206543
Ni 5.266835027290663 1.1035135470851731 11.398957282632427 -0.8013514060072585 -0.3450497575540509 0.6167425994825055
Ni 6.314264591297927 2.991790407638839 6.112222019345889 -0.43631672069084854 1.5766482810193105 1.148979208701131
Ni 3.083638355738812 1.2426740496300175 7.288128724127183 -1.2336230100944559 -0.9980215145719199 -0.01944293921596006
Ni 0.4358776773412946 4.192477085724502 13.262796961345543 0.4336214332468725 -2.4876657214958446 -0.49224078555197814
Ni 3.9650981917554247 0.6845554698030092 3.6655946906220427 -4.11138164542692 -0.34820347269168417 -1.8930515784812625
Ni 3.8514179103180473 2.6114843592891566 5.364057652245823 -0.6149734233972248 0.37386231091036903 1.3300563479235417
Ni 7.310202111354921 5.637388933461086 7.018895359047585 0.465461717685921 -0.7260268251323303 -1.458015267164734
Ni 3.196264599252679 7.553199097686273 5.322150020961769 0.16420941693279462 -0.0765060027775392 1.7423669355077798
Ni 7.03443829392314 8.965408273152555 12.32784515898814 0.12453960914699842 -0.2760968845334213 0.3275665131676229
Ni 9.119710259607302 0.7946795189419347 3.036592518716324 0.15322977799283932 -0.8417069270061698 1.172892782093935
Ni 3.2098937678810255 6.196523972468244 7.889630588331159 -0.18435760974589538 0.5784030804723587 0.08142375179413074
Ni 2.339799210344002 1.4927010106338252 1.9696275074901919 -0.924505190550324 -0.6733348940552533 -0.9580300617806468
Ni 4.350133662440162 4.300786356525557 9.754341910579283 -0.11366255722317845 0.27186099207520276 0.6163908725700415
Ni 5.229577078081364 8.414888848476696 4.698339214968017 1.5608221126203312 -0.9933837586895924 0.168409056836439
Ni 7.925705265401979 8.585496343330792 1.1665725115525727 -0.2812776574034124 -0.9581992403686594 -0.2405012468169987
Ni 8.497213793076433 2.630695346138527 9.559707850397448 -2.0050783998732307 -2.266162613047904 1.0275889438163917
P 2.4841290814876276 5.037568030606429 0.3213422503537995 0.12984713740284087 0.4402037144500806 -0.7102495076934155
P 4.575642784788404 2.7748694029804164 7.771164974721046 -2.247333910377175 0.10517534568777372 -0.7801138367847209
P 0.19981717710135674 7.810265198909698 12.253326510905394 -0.5906399888581828 0.7239275194011403 -0.4252625197592159
P 8.987744711583812 2.968262448076657 3.452220752714911 0.8308782118217819 0.42277754855383315 -1.491448092901883
P 4.12366215764002 7.901343241048149 2.531744098988811 0.2723291899608729 1.8947641902969947 -1.3761179181682945
P 6.731241993838608 1.315659301672736 0.737793550487441 0.07732927000978294 -0.04621532221379782 -0.18536162553037755
P 4.10865815693753 2.8717400709245946 11.550771739587693 -0.36639788421252384 0.6992292453235119 -0.45497624477356485
P 6.232416255150561 5.646646136093654 10.559653464227932 -3.049001047852639 0.09247023941627945 1.6404458350912456
