# total energy = -340896.0593749167 ev
CRYSTAL
PRIMVEC
9.02391950292480 0.00000000000000 0.00000000000000
0.00000000000000 9.02391950292480 0.00000000000000
0.00000000000000 0.00000000000000 13.20741834430022
PRIMCOORD
 96 1
Ni 6.534355274151028 1.8870729657239373 11.378468211242502 -0.7983043916508187 0.8445125147757648 -0.3363355176095046
Ni 4.393195814632223 0.4944485088308966 5.846263384928233 0.8763093475713876 -0.48897934119188696 0.44018186007320964
Ni 2.593032215024647 1.677591704689237 4.85268295318541 -0.0940733222373412 0.4648454242581607 0.21753898159387053
Ni 3.359920966974891 4.3462804585488515 4.976937809040383 0.5934342637738683 -0.4514342930585774 -1.010022395687538
Ni 5.306642038817523 4.551646812414092 2.8278797130184468 -0.7960816729678871 0.16112152203609023 -0.3547536151053761
Ni 7.295874794158667 6.136662129709731 2.3543017245856315 0.7948935661970569 -0.3569318537036175 0.6803372935150154
Ni 5.0596032259422765 4.740752063824585 11.418142774534704 -0.027106369298488798 0.06313883744201383 0.31536405756416014
Ni 5.56072853261239 7.651444283628396 12.248757541704254 -0.18671865377890423 0.5586644643928507 0.0879137303938486
Ni 1.8826873409775402 6.468895764047396 0.3867317897510737 0.07677802549200326 0.6770586227637437 0.5955094011353421
Ni 2.778248157246462 1.4944602878098452 0.4246827844701025 0.48343192901109655 -0.026879340889347257 -0.015765747474688976
Ni 0.5696294871223758 -0.01566462139356148 5.008239980069812 0.2209366944215098 0.11648588560458648 -0.8139714087641142
Ni 8.810115512923456 2.2158323911575635 1.457729326970884 -0.6041858458634175 0.07745936782974402 0.038567575860552934
Ni 6.77745965824144 0.7866321848363396 4.6380752036354265 0.37975862179014597 -1.1754739125575497 -0.033143062410871955
Ni 0.5818794574788247 7.609645489749154 2.4533437501084343 1.3317599608782096 -0.8967066802808169 0.38207055775277426
Ni 7.515390653378539 3.972284126008869 3.723725685135077 -0.0377633347917027 -0.4003094493583041 0.1028299853840487
Ni 7.519803349882631 3.913060144094044 12.672425135260838 1.3156501998005405 -0.5101734587709988 -0.06392225257525766
Ni 8.073890038521066 8.584445340787857 7.061900811546454 -0.9486398788149984 0.4432011065155077 -0.45961194377336323
Ni 6.68515398842478 0.5917958423220673 0.24960611789654202 0.13915890172207002 0.5132150738107999 -0.23710250554809492
Ni 1.9586597169856017 6.270802689082559 9.078198105446024 -0.8950945985986908 0.5485155488843069 0.25553988631767605
Ni 0.2845720001338668 4.754125512125327 1.454268653945692 -1.2383430412779446 -0.3707649029319679 -0.5582507738941999
Ni 6.336388534055429 1.7072172315254963 6.774494398382045 1.0523052156161488 0.8628383096681463 1.2423331362739443
Ni 3.357980824340168 4.370311155461723 0.7721298442397656 0.4444118389941572 -0.08588538710991014 -0.8570517848933561
Ni 6.042903608896836 5.542689718069082 4.869178677540172 -0.3450523286572122 0.48061528549790783 -0.11342498729107563
Ni 5.29020948189738 2.8716457212901063 9.279254635486408 0.4159340432694385 -0.6439857514691748 0.25690179966220916
P 0.07107509504125138 5.703315480385686 12.601580150159984 0.20950479843548434 -1.607312799982703 0.17400789108045514
P 3.9179872039943175 6.2158831166410495 12.659468592028581 -0.2085429487428473 -0.6690403804449575 -0.045264014044122045
P 2.507981776269928 8.41080708693976 1.4749776461895332 -0.10405768714356273 0.04835448004398769 0.03436947861880533
P 6.506696961707186 7.7269383919172 5.779407874519524 -1.3878506332241904 0.5059005424272578 0.011031832334129387
P 4.693575014083506 0.8772828678659848 12.422197269329262 -0.10274642453130692 1.0129447115406554 0.024040328778655373
P 4.191168310882552 6.201598252497949 8.190500732395229 -1.1713406071154666 -0.47097159176055664 -1.0364944738361375
P 4.800716007116374 1.0604548923819175 3.645696757934209 -0.5681014414360345 -0.33143113832935184 0.8441471610165463
P 0.09290937001323211 5.641248963913012 3.5562291107157833 0.7706696606526856 0.053327764888863 -0.9423712721974674
Ni 1.7163765095452355 1.0914340071028672 2.730330243736496 -0.44208370508161277 -0.08850611256220886 -0.36626547239971763
Ni 1.872282762103886 6.545427623047797 4.682187730405567 -0.35782994003785473 0.4922397571107135 1.1716059449617113
Ni 5.968862351604266 5.698695233739277 9.31684286865234 0.44822118543791833 -0.11561479585354283 -0.4132845214617334
Ni 8.77277453514446 2.29397050778113 10.010535904541985 -0.5256877523565139 0.13780752990049813 0.3819597432065228
Ni 2.515255055170331 5.255729086514697 6.921559014877897 -0.3112891161638381 0.27722559882122577 0.7464141305394306
Ni 0.5177509754618049 9.052344576848434 9.064131620148318 -0.3443786996289553 -0.4742821441910284 1.0336220373843488
Ni 1.5465463496127352 1.193882562135475 11.423795357541172 -0.28018648122176265 -0.6504898711362798 -0.44820035950231196
Ni 4.071709668099 6.594274097846661 1.8099843309069679 0.4049965704213283 1.3473557584339375 -1.4916712646562826
Ni 5.680133031880554 7.898004828784384 7.912802251539821 -0.660481692241669 0.21688669272185226 -0.16230422949028175
Ni 5.300911850105666 2.8488603252311497 4.898208625707168 -0.7618320077563976 0.29634509325949604 -0.5596692515082812
Ni 0.9815587665429245 7.336058306495512 6.892937850252079 -0.37316605617429277 -0.9870094797321324 0.6126347479617191
Ni 5.115668836126157 4.307080553408214 7.291921415143447 -0.03140139712941689 0.40930136844426923 -0.5041835597361511
Ni 8.2135442125442 7.064483457230443 9.162368712075693 -0.16243612708245572 -0.2601012804361133 -0.005688308634028912
Ni 4.5993292016321226 0.3375090175202656 10.120949873080034 -0.33180677650121565 -0.19107255987222577 0.7450794708884072
Ni 8.11221462349627 7.28779838644668 4.509434723034058 -0.06354661440339379 0.04557768862979892 -0.1918739727275986
Ni 7.1495338959851615 6.040376911512081 7.020693986768783 0.6917599335296603 -0.47515657637618175 0.16857077922528388
Ni 2.2146953773344236 5.33519371926526 2.7067814241105737 -0.21535560078930652 -0.930751685680668 -0.11789767835044856
Ni 2.3226755948557996 5.198463295073059 11.470074527318738 -0.17981189935674194 -0.2409794720049979 0.09528559737788751
Ni 0.7779890749966293 3.4234132626861062 3.8167722187206246 1.3280282617499193 -0.6249657587232462 -0.8562431729491319
Ni 3.7709153683630796 2.790619950512533 2.753574957284324 -0.33324273761679385 -0.4455194702360392 -0.1653288752492185
Ni 1.232468840768385 3.442381540910236 8.242340441203106 -1.0695138661849517 0.4220116169220861 -0.2148210684420752
Ni 3.2650254323388563 2.755507880783662 7.106845343669717 1.253191933365319 -0.22720093016366674 -0.3514777725675817
Ni 4.355665334549371 6.929350266742175 5.945900086728376 -0.6424214923058484 0.1867443648105171 0.3400098811372983
Ni 0.6640648018776156 7.251603446410057 11.300583666749334 0.10129760789992232 0.4847275078940684 -0.4812848007611066
P 0.21257285576333335 5.461113488218401 7.89292436225718 -0.1157487503282458 0.4046805818428063 0.7704056083580215
P 8.493610569805893 1.5896355639420492 7.88057603118111 -1.2051716967322987 1.066597206758789 0.12693973394805882
P 1.8212615227702857 3.225924790309764 10.41686223251184 0.09294306528763992 -0.08393494825175868 0.2175155845551028
P 3.916001941763438 6.148636870529626 3.8449827950214206 0.45408895707260505 -0.44509138155968514 1.268137756041874
P 6.931913059803857 3.9340678280644408 10.525110460434384 0.22712791083388625 -0.05719727514659827 -1.0976882717366385
P 6.2868923370719125 7.837210684923319 10.102671022285175 0.49858292571992197 -0.8887753412488822 0.5646019129232083
P 2.4720665777294735 8.50367223974876 5.97767691590937 0.5098734110320766 -0.24410413367690864 -1.44566677290171
P 6.935342149111739 3.8137880086308433 1.5656075742049465 0.5154200518819188 0.8463606237280973 -0.28634812994778425
Ni 5.288621272112676 2.923145228342964 0.3686505627873781 -0.4055925521341144 -0.5611283525523111 -0.46834778098446433
Ni 1.3362890315241456 0.9560481468761244 7.0849740706288875 0.48336353766700624 1.3335054828144066 -0.9148882362858503
Ni 6.871777662046674 0.6745966180124309 9.029488794219473 -0.02336772819166298 0.5845937826641028 0.48777066559576643
Ni 2.587202763201246 1.5412222372662858 9.049735761798674 0.477692712534474 0.4676078174946463 1.6209514738120598
Ni 6.3982384764665525 1.9556547518815888 2.4081483530305423 0.10027636572425956 -0.16569859988381141 0.5270028716235117
Ni 3.929718298994968 6.7866821036957985 10.32825366240423 0.5719940916222214 1.032980547145608 0.5630029438672045
Ni 7.999966092178504 7.513017362620714 0.05547815304192443 -0.46174467384565 -0.9607927121274485 0.620046724155074
Ni 7.490403421027153 3.925883133321679 8.293360778144782 0.6128250095956542 -0.7283734709876358 -0.2584578312954194
Ni 2.9859607301118336 8.340763425866644 12.227031553763048 0.6009105175462555 -0.11398703044213271 0.5040632321082029
Ni 0.14498370072112152 4.815163301805637 10.2363432402499 -0.3733817717295247 -0.22115652374179978 0.07345641731793802
Ni 8.509727289552943 2.33354941752948 5.700176058885128 0.4468351037236692 0.31522573221408295 0.2349774887852921
Ni 3.721879391260359 2.8646792556435656 11.548737836041564 -0.4715560035091169 -1.1977612632008403 0.012626687625075026
Ni 1.141038491117158 3.2273234977906102 12.644623342501218 -0.5642015921609961 0.671270812437373 0.3894879332627679
Ni 3.0895282511291184 8.437138883256607 8.101047523447573 0.9991391731161308 -0.9929469282624899 -0.14442554943764804
Ni 5.612273159261403 7.6929091924960815 3.5697803302253814 0.01910072538519291 0.46830998576799343 0.4547577010048555
Ni 3.1939710923118367 8.37498212759162 3.861730286722734 0.35085736537476353 0.5103431515796437 -0.9161838151688221
Ni 3.5125786086102844 4.369408763538596 9.394172442112787 -0.23709196402513358 -0.0107963192845556 -0.3172211653775569
Ni 7.264877631599255 6.02360144566115 11.398754884066319 0.17135322706642747 0.5173833462558767 -0.1673659602839053
Ni 0.6273997156490428 9.07093385046485 0.44079138268984247 0.5274340456236594 0.040552210390749514 -0.17219012114542603
Ni 4.718237385342566 0.2690725164622375 1.5680900543854688 -1.5395506048360648 -0.19087252804627775 0.13645564385829403
Ni 5.926946246775018 5.492606966335534 0.4838995472495421 -0.6862132926798182 0.7916408635877141 -0.5244253407043226
Ni 7.92803643198605 8.94566380369636 11.240014218477127 0.25753506237083384 -1.24427200516787 -0.889190831519746
Ni 0.12081223066824189 5.02878654176749 5.628645255922697 -0.5956155876959033 -0.44386496535175174 1.102871358599475
Ni 7.704450785192876 8.87331904321927 2.328402173999964 0.38237729035991563 0.3545026754368346 0.4844449436566431
P 8.683338471643344 1.3502941541710765 3.5807028820629108 -0.3530235197881469 0.6910130280613068 0.28853665295867076
P 1.8394356961020633 3.1332130441276966 1.7619355705681479 0.2296321653129787 0.18639135234647253 -0.5701431544564116
P 4.690182020452549 1.1190832956274783 8.021182228683141 -0.37465035402930313 0.14835676617125418 0.5451420044263837
P 8.492058455698116 1.5246272497999804 12.460261063038681 0.640736905514574 1.413219451006282 0.2953904426557106
P 6.179940846342902 7.693983038884602 1.3940294811173495 -0.3417191505189212 -0.8547269934149216 -1.0846214112503516
P 1.5694039370255417 3.3333635726772637 5.9338811287042486 0.32116395207538884 -0.25598931515026885 -0.26656374823200546
P 6.8783019556508815 3.8995242652471394 5.978892437829823 0.3222556424776708 -0.08784868148386805 0.5723848993027368
P 2.177191969009266 8.33981591434736 10.17980206952253 1.2031531236403732 0.35429055942602855 -0.127430043320916
