# total energy = -340891.4776743491 ev
CRYSTAL
PRIMVEC
9.08111880908124 0.00000000000000 0.00000000000000

0.00000000000000 9.08111880908124 0.00000000000000

0.00000000000000 0.00000000000000 13.29113531065015

PRIMCOORD
 96 1
Ni 6.864054248229461 1.950733232570406 11.468628131384213 -1.4941621493989363 0.9808272621808204 0.6430262157693829
Ni 4.518510306670587 0.47816447970480336 6.346370556928006 0.31721242362680857 0.6935463360061218 -1.0217201437404404
Ni 2.738356804471866 1.5165377125394544 4.74678238303095 0.8201489983297359 0.47749036671568096 0.024940214885105436
Ni 3.250804322831865 4.380668008581159 4.883508611653668 0.5523056120543586 -0.2538275316122596 0.17224437142212917
Ni 5.194209092752678 4.650104795214886 2.287377561183198 -0.6542220844852022 0.3789350974475861 2.0212460107720283
Ni 7.223030863518683 6.00617914341939 2.4184816693271514 0.5996103106775931 0.4958642412371782 1.509179705853691
Ni 4.855746724211201 4.693521622882423 11.534685095646173 0.5149168869932551 -0.6380968967885656 -0.8403126177618043
Ni 5.510004989456009 8.007212691499207 12.626431694499061 -0.2645523742289315 -0.8293232086298362 -1.1365342980695587
Ni 2.103913539848387 6.403686944609754 0.5017944582184406 -0.703594207160427 0.835682832299277 0.32920944808768465
Ni 3.1158316581963046 1.685310300324685 0.4084614463550956 -0.45664051984986515 -0.1112161525652149 0.3904484974038243
Ni 0.7576622375522639 0.1571087991518517 4.599809020264737 -0.9264152630888431 -0.7139266994346866 0.005170745567662063
Ni 8.863380546026598 2.427718983090678 1.640352406843472 -0.4307047738207098 0.37374378305463374 -0.8679175239632666
Ni 6.935250217464663 0.6526863236281472 4.8834822764099455 -1.8562488078306163 -0.30563011810584784 0.3031880843232585
Ni 0.9631888363433148 7.619476173841633 2.6290927863802924 -0.15528948873534545 -0.9899302529233531 -0.5447954197202424
Ni 7.1991929273908255 3.5107513406070727 4.021685036508971 1.040966393564562 1.4963442446519197 -0.4261127835746532
Ni 7.905458758427724 3.9741154133399967 12.719789225382423 0.07096784656812939 -0.4254656369089576 -0.000643804231585988
Ni 7.849918637529448 8.78781655878092 6.988718027115558 -0.3746848068116644 -0.3106082880467296 -0.157573913894148
Ni 6.87626835264545 0.5914995632310889 0.4744748212481373 2.1111302346286864 0.822996237970544 -1.3374518690566644
Ni 1.8379639027282217 6.520697156803065 9.266659398039533 -0.1969472734854479 -1.0030338801848468 -1.9502198001621383
Ni 0.18782477445046697 5.221788449712793 1.3768819150806042 -0.18424808075122462 -1.2735494139757484 0.6346415912501135
Ni 6.436851189462682 1.993487138585626 7.115781037515932 -0.582988385850196 -0.12554362493148055 0.07142704559273506
Ni 3.569433528514964 4.381312767996427 0.6977849744464959 -0.845108496488551 -0.05402993316221018 -0.830328509965899
Ni 5.94119465925522 5.561404120306932 4.918397360914473 -0.6763199448255062 1.2844997423396651 -1.2709595417613853
Ni 5.4982449409662655 3.0575308772664593 9.294397674573833 -1.2311190127256797 -0.32866668821033723 -0.016505453854190926
P 0.30268911833634526 5.796614171220317 12.582890455507732 -0.3003889243115666 -0.35429210208792533 -1.3612551421238492
P 3.8934569186018524 6.119747611691765 12.663354614309442 0.9127079408050797 1.2688715488841051 1.3658044520574286
P 2.5630639735857588 8.6672283858888 1.3271727803871647 1.2851777422432964 -1.260573570541371 0.22769792440474335
P 6.239282374834999 7.740100671207855 5.843939512300971 0.05998769340754184 0.4797418817540189 -0.35998041072195425
P 4.949300407254702 1.0448371730006734 12.538737149127824 0.11920225609448502 0.023343559821946892 0.2703597249393279
P 3.9342947086083186 6.286658570179392 8.351697657846396 0.5022801720658511 0.6518006195279034 -1.7950316128913473
P 4.7909257001804795 1.0742509159028182 3.8703382070611667 0.23264626954895415 -0.42270221523120755 -0.10325987383261571
P 0.07889948207987198 5.581491554484007 3.6656552441810786 0.7229188756309679 0.49325020065309894 0.060272828748128456
Ni 1.6720881917524333 1.0939751053388969 2.4289549233219163 -0.5677548567298931 0.9495289662881711 0.6968072661455805
Ni 1.8819074352702037 6.563859713151905 4.825200565829002 -0.41195937489240664 -0.09997066155838266 -0.04784745850058211
Ni 6.041032476317949 5.471946021718161 9.086085896731198 -0.29080050929218304 0.963507025734818 0.5190746179153706
Ni 9.053984142745684 1.7949648065128294 10.306212268170569 -0.05974472415880033 0.714057568585596 -0.6758427480787715
Ni 2.4661411955695214 5.3377543332757424 7.035383170879451 -0.7000111177948589 0.12540915623614532 -0.019961016502959172
Ni 0.7262016105346071 8.89926004531847 8.85618920826673 -0.12608047127155705 -0.7663957158676801 -0.057439987285023655
Ni 1.930782015171205 1.1555632511747556 11.565586325762697 -1.0575749486555206 -0.3879175034518545 0.48558651346025405
Ni 4.1601330452040095 6.879210635047516 1.7990349638356888 0.15140326630706183 0.5159036763865567 -0.6689300801193382
Ni 5.490889234961099 7.853333138094809 8.059677945664953 0.22622031141795235 0.054126863751390655 -0.08686497741436007
Ni 5.081984630021988 2.865074732368294 5.250716352773857 -0.09801070961853442 -0.6172537347909692 -0.8701497557278951
Ni 0.42673901361015804 7.074981388207269 6.756907038866042 1.1801705467022707 0.44099252889996315 0.21677099307959444
Ni 4.994769567708866 4.5928846673895025 7.035515755209914 -0.038286811395340514 0.4722674277538447 0.49050529091811007
Ni 7.944316864595762 7.272622851783151 8.933290628878673 -0.9036234620053083 0.6950522311276868 1.0294298536798723
Ni 4.476219537700136 0.1469334058447034 10.460296146741777 -0.5878230882346779 0.924011538743357 -0.09035679261770245
Ni 7.9846733553204094 7.296106624288537 4.576230804126691 0.7740087523282476 -0.38078089240707325 0.27763440422387026
Ni 7.3258382063390535 6.112219364434625 6.869815309821657 -0.6368535112997676 -1.0812458099098992 0.4483289146603763
Ni 2.359438052901969 5.279090307604901 2.770762775927965 -0.4147065986202406 -0.19547891647003754 -0.6126134078054805
Ni 2.199782908115736 5.3915690416542885 11.46325846600044 -0.577338129542954 -0.19456051842082622 -0.4977719997828524
Ni 1.1463822403460835 3.270056294104649 3.704917460123476 -1.1322428697830564 0.40671098200927375 0.02310341878668279
Ni 3.886246510493083 2.8112055372785987 2.8971619565641693 -0.7029694290922346 -0.24866295669218463 -0.6128211529409123
Ni 0.9803793937109467 3.378058036721262 8.290491827100434 0.8494271784685629 0.44290542965195984 -0.29853130227753744
Ni 3.32872031977549 2.951145573747278 7.0699404593140995 0.7468098233159526 -0.9044107337932941 0.851450893766811
Ni 4.124580466179033 7.218127059515237 5.92949454614774 -0.3017716635917061 -1.0527435887051484 -0.0008734037438888184
Ni 0.4344261804414843 7.389142683576119 10.858617616151971 -0.28832119451375504 -1.2265252227074102 1.7941479247348135
P 9.032389242893476 5.569976696194435 8.303503253722909 0.9366353981549547 -1.4384792540143356 -0.028803811605569746
P 8.75485209853554 1.3504531358375933 7.913648111113477 -1.8127503703273489 2.613426347534138 1.3924238544171696
P 1.98737554581837 3.3388639291678017 10.51752717190939 -1.1049902047146904 -0.01000004863550536 -0.12597402760067983
P 4.056944295405592 6.172245557884201 3.9051742858345277 -0.377711252342814 0.5046237325973632 -0.5705573591756947
P 6.7521839491212425 4.079120386843393 10.725892528351324 1.045468909420606 -0.26897004368065286 -0.2587085138536448
P 6.066060038972568 7.8424630392205055 10.173991182448054 1.9054705209709057 -0.8416264514772216 0.8513321088007595
P 2.1890127015452068 8.389073725471171 6.060478783527166 0.23909176806398177 -0.2336582557532363 -0.5303244797975769
P 6.978921316450897 4.044067269337287 1.4472851026685813 1.7021427978804102 -1.3764832719275135 0.23759641446537794
Ni 5.342676299516237 2.9062485237601816 0.4020247495446479 0.8774755999653469 -0.41557614570938756 -0.6085325528678874
Ni 1.5257459667237008 1.2442312924518604 6.8372658566928655 0.1700591908453523 -0.386057053204348 0.7890486773805055
Ni 6.80010501157713 0.9534447961660991 9.33246299909465 0.16728522764464093 -1.1810066694503207 -0.7851308303833382
Ni 2.5637541385936506 1.6805881186917382 9.28989162356178 0.8475276474530049 -0.403870170126369 -0.8387100491613748
Ni 6.574012403662742 1.981836063518182 2.4841000155643598 -0.9598426895093535 -0.48933029677340245 -0.24399897555761202
Ni 3.9097575263540443 6.76762185061357 10.52332274175198 1.2676690439355716 0.9130247007145502 -0.4261801464774789
Ni 8.095490244679741 7.300465561180489 0.23568408530038482 0.47220392150576096 0.08947079046832333 -0.28911360850806334
Ni 7.74494998850015 3.5391661604714786 8.441558958097671 -0.3519845370006712 0.48749324356466367 -0.11027410036691977
Ni 3.0476869447854695 8.229936204440857 12.367134884810236 0.1066061645970293 0.21971876285400868 0.7290347587207187
Ni -0.11049905021095982 4.48436530101697 10.487343350156333 0.6289406842105942 0.5167143452133101 -0.23471832158663444
Ni 8.495531677938551 2.3467063247300617 5.892053094469586 0.6906726140027524 0.5191867180132026 0.13433242686770414
Ni 3.825993289080384 2.6155982442522943 11.482131754630736 0.5771509532328125 0.10141639286597373 -0.3375835310839928
Ni 1.3340435546631024 3.5024148738012157 12.658104819690202 -0.6094046710601956 -0.7144020964092084 0.8172747621057344
Ni 3.0817138958982624 8.569606361746144 8.056501370404943 0.13023897352462085 -0.576624134195065 0.6961904584971881
Ni 5.739975234980528 8.020480205664082 3.458060874701909 -0.5819797420800236 -0.3430959762617897 0.8902845788045571
Ni 3.044145308560759 8.449690191624866 3.689938155116656 1.2640458453606875 -0.29345157376178493 -0.17896497797541436
Ni 3.4025770567384863 4.496543080958858 9.20411046986374 0.01022784837559529 -1.788256756061359 0.9352053505766476
Ni 7.0681796304321205 6.161856758291718 11.40186647232472 0.7000473703494331 0.7919985040374489 -1.0155926906864636
Ni 0.7535312367352879 8.823805031495091 0.21799497452573585 -0.2636704858446104 0.8100394206995598 -0.5106264871480173
Ni 4.921158020946043 0.38886984124948054 1.6021263465247662 -2.1051043401495813 -0.38443597266115725 0.6294837011982578
Ni 6.198308368050658 5.655030452298631 0.1892841101974181 -1.5791628199110481 0.31104768957699336 0.3947180713134557
Ni 7.8530425423020125 -0.2617205602231201 11.277953701940632 -0.6518265876698323 -0.14726944664434638 0.4796902025804771
Ni 9.335208221224725 4.748734823513804 5.869019745443034 -0.8213918695979016 0.4538351891905862 -0.3162251200128747
Ni 8.040631207670831 8.844682522983833 2.667890049054215 -0.07736115168898289 0.3744850320960325 -0.6882038407472858
P 8.411186249079298 1.6571134273048767 3.794552640523482 1.3237358050221524 0.36535992986631277 -1.8772151256696379
P 1.863145844397764 3.337592572574316 1.5975013328600356 0.33214847611135057 -0.4949543278283992 -0.11984066100943232
P 4.664897937291944 1.1565258497383948 8.409074889022259 0.24148700776903576 0.702482462153487 -0.16681702975897075
P 8.704597188618754 1.4708687674777419 12.566210257001199 0.6962372525747236 0.3080652099099017 0.34412287486440735
P 6.327941334993579 7.695930110702751 1.3184194902410153 -0.4331246961161121 -0.06393048010537376 1.335161530360591
P 1.6625257739457158 3.1580588593370806 5.817117520625833 -0.01643449140693944 0.18575500431405428 0.6593884591774902
P 6.855109346482437 4.020746956965349 6.041578251541296 0.8190868756138088 -0.7741283086252475 1.7979829822101874
P 2.24397163085789 8.379702011153476 10.26419847331513 1.034373827948709 1.452414633148505 0.8477343641471723
