# total energy = -340859.2059384084 ev
CRYSTAL
PRIMVEC
9.38154264021158 0.00000000000000 0.00000000000000
0.00000000000000 9.38154264021158 0.00000000000000
0.00000000000000 0.00000000000000 13.73083595481510
PRIMCOORD
 96 1
Ni 0.8635569130114572 5.598257225899823 1.9580442467961177 -0.22380655977013714 -0.20476882641239572 -1.2215036011231026
Ni 7.976215561503772 0.03416570140529313 3.352163975092546 -0.13461961909081976 0.6214076090583426 0.8245823515107411
Ni 3.0670513938777666 4.270825254171407 4.899244124607179 -0.5951954694393492 -0.4256960077522088 -0.37932513379715316
Ni 8.21338095540948 4.693595084510285 8.715194971917368 -0.6872610172180422 -0.12729326063273563 0.19007188652185328
Ni 6.361595811363901 8.125644770132336 2.2075201007446696 -0.99636983790111 0.4059031413959978 0.47276493621555354
Ni 1.7833749362781572 1.2793984742285258 8.318373549925159 -2.582911723885048 2.8831600088536926 -1.4077520001338077
Ni 7.8012028865310254 6.357064526345845 5.341775236026873 -0.3667773790391296 -0.44317616681484323 -0.06552919205106135
Ni 0.683427544769876 3.3557026929161706 2.7706762709152106 1.0688896023373915 1.9743017808120065 -0.40604583762144913
Ni 8.455115160503167 9.078518658328893 8.244268745872105 0.368343695084985 1.1051735243700902 -1.0709567692790651
Ni 4.438754864571414 1.2945215207070069 9.14002686529345 0.592915929376553 0.35173025489802007 -1.0054373474200167
Ni 5.701191509995291 0.8980068751539079 3.055770089045029 0.5497944155967305 -0.23732387753028159 0.11748193096926864
Ni 7.506068941638634 0.8803508122057059 12.432571137922753 -1.981843597715006 -1.176951782654657 0.771576231627355
Ni 3.9112213493533794 7.621799649677431 3.1762994560625764 0.5868170155676669 -0.23678008921166963 -0.4320450898986882
Ni 5.312955137526939 1.9265372745297835 5.815379892450305 -0.1366181375780873 0.03996625598029246 0.6686943099594485
Ni 4.6842135420298385 7.973785742001336 8.600597554210207 0.31937626404734676 -0.1718085694362912 0.9147290850001666
Ni 4.7723906598035635 6.092054714358168 13.102897358618685 -1.5431609478951422 0.8581061942997995 1.5500299071008337
Ni 1.1691653500832695 5.986718755387706 4.257644186986378 0.1084445033573487 -1.8572055153169305 1.3478982612009691
Ni 7.27258111238526 7.532693759198143 9.506338572984998 0.27182602507220927 -0.7705624456508601 -0.459015447839945
Ni 7.010141843037226 2.9474742534219853 0.21197782865420378 0.4662785571602615 0.6637755325015924 0.3291531409284525
Ni 0.47459440915511814 5.138364631965814 6.8091488624733785 -0.03746354416309677 3.095676083311675 0.03950808539695131
Ni 8.111685034921432 8.143413411590304 11.499671491821317 -0.326456825043212 -1.5463881965831885 1.378142147687175
Ni 3.663323470850039 9.292248959118444 5.231434224143092 1.719139075328091 -1.2743012045401085 1.321659124998782
Ni 7.723927121119582 6.330345893361531 2.0733978168272023 -0.5618186937511163 -1.1634030974359448 -1.976489018271312
Ni 7.930977763663055 3.927188734655101 6.438292735604302 -3.6812916223720733 0.8628190263944367 0.44798078729233815
P 7.5003931084379625 4.070792005403308 11.443827860206454 -0.1778779155588227 -1.5987042323780853 -0.02840760460841559
P 4.578417887477833 7.644521745565076 0.9662482151566819 -0.7854622455808279 0.8327625733286883 -0.7284557462887971
P 6.249036064683494 0.8231937646435804 10.512904905105648 0.7355720456186042 -0.2790469683006807 -1.1837914312843096
P 6.786711027322893 5.648148268810841 0.03687696718214241 -0.28493633720192213 -0.6251161682581815 1.5195751901554024
P 5.4227098030056915 1.6485809339190896 13.16154138066396 1.2891153867348057 0.6981864058812943 2.4215734578524617
P 8.28638811899232 0.296079604374422 0.6647216872181121 -0.7210319430209002 -0.5972739492349327 0.852678595526325
P 5.99832372343602 6.818448785534246 3.937097519822949 0.5508963904116577 0.05698978712148249 0.828151042698606
P 5.110792278615779 9.393832301096728 6.996217757687746 0.22103336790037414 0.1489100675715629 0.8493749850743887
Ni 3.2986347700076095 2.658607178906531 7.003962221005355 0.840402092151817 -0.4045774806060387 1.4038308107025306
Ni 5.718444166616834 7.146624523042774 6.592613480482173 0.5062831225776571 0.14392444143151342 -0.8725444812123166
Ni 7.561466949985675 2.1049835940503723 5.042031201159588 -0.7470859597954747 1.8393165508516518 -1.938820300075945
Ni 6.368481863544549 8.91613353953483 5.260941989706843 0.2848653747546707 0.4267720144252069 -1.6200649574420485
Ni 6.785134928186177 1.473765271338434 8.349199422207413 -0.6932645430996447 0.7516710080629958 -0.08250464356313533
Ni 5.717468486198867 4.778272886938803 4.628953442357259 -0.26613308845249006 -0.2080760364087578 0.5503454030041941
Ni 1.5507220643055433 2.9954045539545904 13.248745632482464 -0.546606247676736 -0.5761767622450013 -1.6451332132645862
Ni 1.2587590807715416 0.5751439051520567 6.0729979871176365 0.5959927685296639 -0.08043901928335824 0.9436077157077297
Ni 0.16349214080675584 4.516996928858345 11.37050547679627 1.1041841638736274 -1.3590779319668722 0.844752655811029
Ni 6.619400598726594 7.880964760699789 13.545098239743064 -0.14990071361960633 0.24249359465667916 -0.6352100621590737
Ni 0.7603318010990952 7.813811679624747 9.22474594650888 -0.6656416391760537 1.5453152752339838 -0.5857564355136363
Ni 2.401496625687391 5.627715269288428 11.591049591889371 -0.4137424349347584 1.1133889703013469 -0.13656363019106804
Ni 2.4424376770720633 6.632525376656741 8.558951948985253 1.1599416212499056 -0.775259079795581 -1.0701877523235246
Ni 5.704109169706711 8.06823911169448 11.034401397737517 -0.705196004429908 1.0497631659205855 0.17444009352186732
Ni 1.9951163500618534 1.9165834579580288 1.5032927381413939 0.5928187416770565 1.4622758422133009 0.13365339852280855
Ni 1.8045021699441244 8.216148510441212 4.418857551124633 -0.5144949689644882 1.0828985150219737 -0.8910386833617623
Ni 4.179383359614486 2.3757067654086415 1.044370195699863 1.010856204442743 1.0501827699565074 0.5803347502774329
Ni 8.987808524085446 7.409120081645691 3.436951541568085 0.8211643269681277 0.9910018887209773 0.43238421840566177
Ni 2.8073609164765037 -0.07551203542512067 9.922849038180921 -0.5732261642571096 -1.2396427339259748 2.668274662832585
Ni 1.3051039006249514 7.871189193435163 11.88182768660809 -1.3484489914981161 0.5690177826027167 -0.7471121850477197
Ni 3.31290409612037 0.5900643103129601 3.031604173769644 -0.5118950694477958 0.31345372791532466 -0.751259374446874
Ni 6.313599840033933 5.8339966253485045 11.581424129304432 0.9830301833694101 0.5664585065159728 -2.058003015786404
Ni 0.8605914074333878 0.29271444508668554 2.395468046489456 -0.62414531970448 -1.8928633737298564 1.0123667275499983
Ni 3.829292338871633 5.709259636528476 6.6630801223613085 0.569649759759761 0.48424079806563697 -0.26107135765886647
P 2.4890545616574062 7.560566321907552 6.289972425296925 -0.2068871583069792 -1.8907283296647246 -0.33772442753723125
P 3.7121919256306892 6.904824647151725 10.347049553748068 0.7253048593646412 -0.21135496427034564 -0.6069662368220321
P 3.022432777840759 1.8569543739523056 5.112553194139359 -1.4459156556877228 1.1231319086207239 -1.7329327866780737
P 3.2511923096839874 3.749192729173574 11.778544409132351 -0.651218264661872 -0.9557446081805797 -0.4017952898752113
P 8.020186851109628 6.652348575917925 7.752155244289 0.22631492801428765 -0.0324905164285376 -2.165163767335323
P 0.08531668547143618 6.446376810759704 10.52522099407398 -0.36775336979915374 -0.0014722136701523032 1.1812321551975657
P 1.950038038443304 1.0222973025518665 11.654526984620574 -0.008564858850875573 -1.7754038113580906 2.7317652271870627
P 8.360333436823208 9.783635391159313 5.601549209156213 1.9987136339974674 -2.4994300611206244 0.8560644812794225
Ni 8.944193733093847 2.2813003034278996 11.660307891097025 0.45148957177654503 1.642289573168204 0.2789526088146615
Ni 3.0812644307356445 4.658292340156362 13.836151213656464 0.2948926770836857 0.09679509204387846 -0.4612152837047412
Ni 4.382615714368417 2.7115003154112927 3.58893815867682 -0.7290188178811187 1.4907436106356908 -0.4761899027367025
Ni 0.5731071722795515 1.7430061589847923 4.312031803208276 -0.27033684212119247 -0.37950973900413354 -0.7154112544000131
Ni 8.363804607540972 1.9566144997220976 2.1532422485697933 -0.8430485286357287 0.3046613264346753 -0.9304099860705332
Ni 5.4012823599803506 4.95185018591204 1.921053762949962 0.009709513978280052 -0.17969671393511633 -0.22534922166690868
Ni 2.708395024850265 8.981091339669447 7.756864778614184 2.1373724561546674 -2.483601835839116 -1.92435064570486
Ni 0.12855809107231406 7.881227443889242 6.176651835521354 -0.40273142853623545 -0.8666648825030879 0.6658193024044984
Ni 6.128304994502617 3.9984134051666573 9.754166089919734 0.1726583190310962 -1.6594719984847615 -0.19552391077536005
Ni 1.4678924257456738 2.259141100089083 10.13643204875353 -0.545776295576273 2.936634326622749 0.8367737513706105
Ni 8.534529917600155 6.114288970036829 12.657894210755392 0.13276379682900363 -1.3165441723697198 -0.517736101609605
Ni -0.013687670478972671 0.25874950869047403 10.645077704495678 1.3867584286012762 1.4034927106368216 -1.1684789692969553
Ni 3.4803552478538746 0.2439792082092577 0.18078419990671638 0.24126075069084255 -0.2834319847422538 0.6773815533208012
Ni 4.408752691718943 0.9251326670818734 11.655598356771842 -1.8208154067236708 -0.5484260744942943 -2.004593489817012
Ni 3.6176541220552214 8.085210322041608 12.088696327227444 -0.26061627239931895 -0.6530645738419913 0.9589075792895937
Ni 1.0126906030518883 4.692825798026889 9.341856679446554 1.9791267130044752 0.19350559479375062 -1.7299623911958402
Ni 3.9508396032483084 4.757220705612679 9.184432520316152 -1.4233552538887033 -0.2840994431229236 0.4645728873230644
Ni 2.0342749083752407 6.871426355921332 0.15045461122167816 0.7937010885508524 0.7246854806130875 0.7109591321659303
Ni 7.713025768757302 4.348119782667812 3.25250572563125 0.9499362290289189 1.0257927711479173 0.8223925429482739
Ni 5.346175179450202 3.6068184404903048 12.095849753368785 0.10209696387276611 -0.2399836837506318 0.4082019647325034
Ni 5.867976572212683 5.828180069010626 8.428302712094048 0.8953126281467677 -0.23964635501587114 -0.44290028744563725
Ni 9.095808841120357 7.59659144503247 0.3257712481707898 0.6899761021563601 2.022590183504749 1.929881088604786
Ni 0.9629778094479978 0.4272701562667496 13.785484317182313 0.3616536846593191 -0.13832509296686502 -2.3838278636725723
Ni 0.48199550801794305 2.937539199935191 6.438224250344195 2.422545334847428 -2.729691889597802 1.0811239396200543
P 5.700769340583671 3.672461093225995 7.338788533978273 0.14364959050357198 0.049809724433275505 0.5454181409059058
P 8.914998372894695 1.9667840917709025 8.444092786242889 1.1133434617753923 0.005035762651694553 0.17890275727891125
P 1.724552664925752 7.616011237966996 2.3901674749880026 -0.08595172157147134 -0.6370566284495093 -1.0964384584899376
P 9.268795102917325 4.043266559765676 4.661481126445466 0.6758628026834295 0.5946136287939502 0.9005641063536942
P 2.355508304448238 4.42356614729557 7.438611898587225 -0.9707989314105409 0.6757908117949136 1.2751792362696877
P 6.342457464703789 3.011634622445764 2.64277394966228 -1.2844658037779362 -1.9256156284602128 -0.9960669619487102
P 3.1101877262028634 4.362914475159478 2.158102825728913 -0.30300733577102007 -1.1218723251820097 1.7270562732926387
P 9.258850667888051 3.8738265210263165 0.6788390323426893 -0.017128175039854372 -0.1953753010126377 0.3522974402553997
