# total energy = -340865.9450466061 ev
CRYSTAL
PRIMVEC
9.29035467178676 0.00000000000000 0.00000000000000

0.00000000000000 9.29035467178676 0.00000000000000

0.00000000000000 0.00000000000000 13.59737314560367

PRIMCOORD
 96 1
Ni 0.5098918253736994 4.050185857856871 1.4699979539020454 -1.0595007049233236 0.4184041020764858 -0.31180899322305006
Ni 8.430987567138088 6.869213915653202 1.0276925296727801 -0.5544121168744001 -1.2577661829995628 1.1000202623039248
Ni 3.002828434467005 2.7547388035221165 6.399508448413686 -1.2254936961191023 0.593229861072546 -1.1595821810279578
Ni 5.210681220343757 5.090705580214103 9.078217776472812 0.4777711311808933 -1.187801066664335 -0.40194621363077876
Ni 4.10206319830011 7.522047137885726 6.64540369758696 -0.5435594904306122 -1.791959915944559 -0.10861393905567746
Ni 4.819064900196218 2.315713803524676 4.778592399138387 0.09888694157590067 -1.0986141259850177 0.10124001518910952
Ni 1.6317671835227376 8.118125583476461 10.451403731528714 1.6833783727887137 -2.1040812982017054 0.26504345493273707
Ni 7.078525606230956 6.538978968770075 3.4091876184306935 2.2937888594056046 -1.3902016499548704 -0.5882038686128644
Ni 4.1394661661769865 4.706345027059073 4.400626397098522 -0.9579927807848083 0.20017169396001655 1.2309845440303446
Ni 6.092242974401595 4.925746042801826 11.628242685940341 0.5233513909138535 0.14817678894996414 1.3576424850719264
Ni 0.8382733465013772 6.06096235024823 2.748518911074633 0.2592934398228373 -1.3302327256004056 0.12079248339974034
Ni 2.0237179564381775 6.42956646189328 0.7017553008571755 -0.3934582307644256 -0.07740486044272477 0.24743088405729644
Ni 4.283912600491364 5.563222308774917 13.413196669445256 -0.5448882365443649 -0.8434485922876249 -0.695466178736654
Ni -0.36821391674916554 1.6689007311143613 12.698559362811112 -0.17022631255083587 -0.4015376653384504 -0.13754887692247278
Ni 4.123384562253769 5.895389649428136 11.01332804626854 -1.8526785739808544 0.42361212863998654 -0.020758058482957798
Ni 5.621417090389611 -0.05599668370121411 5.761275018535486 0.7061488552614806 0.2376162119597198 -0.21380008337672857
Ni 4.984358890376395 9.214090142467871 8.191533320853297 1.5718305479156929 -0.701888794433546 0.8890208816007851
Ni 2.9232937081893247 8.760692963805372 12.476501305634482 -0.8300531448173254 -2.095400739708572 -0.22902075698122493
Ni 4.013646892963736 7.3398818636359 9.074955003914848 -1.0110454376354137 -0.4512692282356228 0.36041004206020505
Ni 1.8126225177649542 8.032124770352704 7.332927104134502 -0.45849685633231363 -0.8823882067756158 -0.05273923937524465
Ni 8.489070864496815 7.378353222299125 10.235368611280693 0.07286943446621644 1.0784911299828974 -0.8284336069360314
Ni 1.6958799210583382 1.1563425739521216 10.947884000909603 -1.0044022212872832 1.1250160130173141 -0.9776763752566646
Ni 3.222972678582871 0.10151570541247745 5.816426279962284 -1.1820615930773966 1.8269390031229054 -0.27256701700329183
Ni 2.4104289693231755 5.75106398972439 6.230207528266966 1.213242389555575 -1.7465326368496954 0.8474433152693147
P 6.561805370179287 3.328492526855491 10.448289604645375 -0.07814250993969768 -2.579931301100486 -1.6593503853052327
P 1.1374831539843968 3.8701109134064224 5.1741264618476945 1.1070262613081128 3.5825484054628887 4.025992995447769
P 0.8462444708030067 7.951233652294093 1.9009942293989404 -0.6653971272654153 -1.0168103651436489 -2.801180898776724
P 1.1968206492227507 2.0693150171286177 1.9181953210591585 -1.7672552141090276 -0.06943444064273847 -0.5306934331012215
P 4.280438007847064 2.871639336258019 12.85027921579186 0.06135654873061045 -0.055089227664659964 -0.31452459238200026
P 1.1124735192291677 2.4419790137617934 8.794998527437302 -0.338673678824378 -1.219718741308538 -0.4391014825248373
P 4.270237198426098 3.316888873880275 2.5556669418549176 0.20166524778640751 -0.24020505573281858 1.2948355770480344
P 7.659265676271587 4.124007016016251 1.7813103064057325 -0.2017863467453041 0.6926721609312846 0.9209313571561366
Ni 3.7660124893973794 5.3434032270722875 2.0977750896060208 -0.27887573283013906 1.1487416387690281 0.8651276199229553
Ni 2.975003822248613 1.3049417968012638 2.678805018712165 0.63581401429166 2.1897067467820093 0.5140224002034437
Ni 6.900280861649296 4.547823705428881 6.86568079377452 -0.7415310914155165 0.5440621410986436 -0.3609612865779848
Ni 0.8812040754032769 4.701737011145776 12.724625310891627 1.4703640185380742 0.38309822768634016 1.0351726697009205
Ni 6.789456220863587 2.3522992201911292 8.255821646092047 -1.3442843185974653 0.8260797619918742 -0.32730040399042987
Ni 2.0906921232102604 3.850703362513527 3.366723265332922 0.9964413145689937 0.7562455148075556 -2.0888925062764088
Ni 8.46361529271772 7.925517950584407 7.553625982423801 0.009714399074286496 0.3000135432500188 -0.7504163097202882
Ni 4.240006384349755 2.644257905858972 9.690059166821792 0.9675076622537788 0.5225054979737904 -0.5094041847051421
Ni 6.565577254172832 9.128879009490547 11.400975526903661 1.3526704857786316 0.040892367338987635 0.5024303244904702
Ni 2.7550175141620334 3.9008898584079357 8.366831164935567 -0.4855461471406219 1.677166073330415 0.5999715506717539
Ni 7.792860976338524 5.921588449580345 8.770971812205515 0.09080005080270813 -1.4346297983612584 -0.5706149518865076
Ni 4.888528882018227 -0.029309210893683896 13.6551620985957 0.5343577693266861 0.09027091777211549 0.295947086490129
Ni 6.265972606616596 4.096015177413908 4.308708557089323 1.712904664382605 0.41776981092659665 -0.7241722884220947
Ni 8.64891141648928 3.7530617349958972 8.987279139845189 -0.19611655005403644 -0.020429985719577718 -0.2538699548144208
Ni 0.009521684495035066 0.15398855758967284 3.0375985158321317 -0.7509631833626937 2.091057632248528 -0.6609889708953907
Ni 8.845922677492025 3.233219939777157 6.632880299500017 2.0458090448233737 -0.2254993740915278 0.8414688428534347
Ni 5.824299855539944 6.637531051044768 5.342802141125533 -3.0477075258521964 -0.6852396159126393 -0.23060095698415126
Ni 6.2707850103324985 7.034192033774807 13.047930582230947 0.20345036471128833 0.8441188788817721 -0.36444101759646913
Ni 8.711268276993403 4.150391623261737 3.9992867917597406 -0.7703433876615184 0.2719952036602219 -1.0121749232541666
Ni 8.33361535990571 0.8007672556877309 5.999066291335438 -2.4110404195316217 0.8376479264454477 1.0038895433169226
Ni 6.096182084779089 5.717850971800933 1.3749938580734982 1.3368605153295687 -0.10385328444224051 0.7482118458698017
Ni 4.151041948088211 1.099578506955669 11.384617999446924 0.42714225328043215 1.1059366277883598 0.27997436521095653
Ni 2.734885315605354 3.425595313802614 0.855445638062137 0.9419835498407455 1.0787176441714068 0.6580849098747182
Ni 8.08601811775801 8.281329243857261 4.698653542432827 -0.3300095753914768 -1.6164857247312225 0.3465685081914225
P 4.292273919688877 0.3096038562809953 3.9217002528550804 1.826458463942061 -1.2291567467929865 0.36277648540985263
P 7.087202797487042 0.33570139156736756 13.72654825479767 0.17242306309183852 -1.085320494199905 -0.8624626714962824
P 0.8195569979954764 9.21401581963056 5.080508486935002 0.6429236287532476 -1.151299115083559 0.45737585535399294
P 7.124457119689297 0.30305229817201024 8.106835015453418 1.644959149580567 -1.4001435916589304 -0.32616911859946407
P 4.549022161180524 1.6278094924359148 7.202025077884629 -0.022138483770252196 1.4640619875794463 -0.44677776812317244
P 2.0482630734602116 6.288557458804547 8.551047749495185 -0.0018054286398549552 0.13954328164468224 -0.7058027847759716
P 4.6106543740208625 7.3331928082778886 1.1238151842028614 -0.48841884070272656 0.8057006841148898 -0.3300509701523735
P 2.442489983268308 6.443074637574596 12.284764178974434 -0.2992237003588718 0.45786770738874694 -1.2767653498098848
Ni 6.217356180660388 7.014096996636782 7.644429908908799 -0.6547949262695367 0.8885256871319215 0.45306000158745846
Ni 8.331887353938225 1.390348027226532 9.986128834428413 -1.322815350090412 0.4163276791634314 0.9943546072432938
Ni 8.729718921355916 6.521513102001936 12.355293764476393 0.09665496692158837 0.708695018722102 0.9229203625617073
Ni 6.122798950891174 6.949984259101182 10.359879802557264 0.6207630334958083 0.3572077330728235 -0.428007686604521
Ni 2.7337983441096774 8.870012567135529 1.3294980622488943 0.5212271454819991 -1.2906724468092803 -2.0201975149028564
Ni 6.398332289513235 1.9311767336310313 12.525737398246772 -0.6089048486056416 1.7448495927203176 -0.7037389602684073
Ni 2.074238905100487 8.27052456138314 3.539327835598125 1.7511331117361841 0.31058283412543286 1.7490248071439298
Ni 9.204957723833255 8.89543097749597 13.672566649023057 0.4017659792991726 -0.27634679576069826 -0.19386992011170484
Ni 0.5511976712448823 6.763935616601843 4.8614279884281535 0.639383476810473 0.7470669336320811 0.30963512550018285
Ni 2.378572343180649 1.6713348040363043 13.081897047917645 -0.4479594471360995 -0.4493128758402004 0.7470785035963069
Ni 1.1072616302627174 2.0688319186860946 4.400558577509475 -0.6933586454753478 -3.9609353437164883 -0.4570837780348708
Ni 5.091235130429945 7.556681580072759 3.3340620944765016 -2.4595489086549702 0.7327008947183963 -0.24138827740764235
Ni 0.03678701736266011 3.2734193044078688 11.198742157544334 0.9160177219046031 0.7627298369803186 -0.9840457691181181
Ni 7.861293728792839 3.98650047663581 13.153636237596846 -0.048367078449478 0.28534977059025696 0.39001449519019926
Ni 0.22908342337347415 5.721381306573216 6.79029699796067 -1.4962349727675652 -1.0313874916268755 2.2982738917601515
Ni 7.849838721492246 1.7956583301486657 1.430321636238911 1.0301199377683616 0.9762450421267769 0.6691547945356348
Ni 6.728678720652328 8.602115900047197 1.9869160745080552 0.48321081413922595 -0.6234112697519327 -0.641462727937005
Ni 0.4426993352670147 9.270491885632433 8.957799915461155 -0.05855096096101529 0.29849967770865365 -0.6951468477240221
Ni 7.076333082530274 0.7141049693119028 3.8124038754115834 -0.7263595258814006 2.2297611916007343 0.7984447738834249
Ni 2.821647937811552 0.5607741688324345 8.793557593428933 -0.264147425481029 0.6335313889050703 -0.2571080021357443
Ni 1.0441615413854826 0.9537478097963702 6.924870572373718 1.861002006244885 1.438216230160936 0.8742838325009267
Ni 1.4180983166076129 5.537757446641157 10.45734491333628 -0.34935789801110156 0.05995324062518062 0.19311118756880935
Ni 5.691791526968682 3.448709716206407 0.8584018289161912 -0.30166239170735143 -0.015484211678528169 -0.49269201415678376
Ni 5.530074323334108 1.5206917031611031 2.3194940488374183 -1.0289282314531054 -0.25523546770337974 -0.17876417481851795
P -0.1303371726863064 8.986885228807438 11.324177739109965 0.15431272664437296 1.777939947516383 1.6510156401872917
P 2.4109585195390184 3.5797501687407713 10.686814815463775 0.2646747587394087 -1.0675785968354519 0.16296397456146772
P 4.654096072429277 5.217704728469668 6.973317913875043 -0.07907144951187027 0.23887553828811764 -0.2999142986679932
P 7.715137869220304 6.3603440292925315 5.6616740552192395 3.222415785433786 -0.6479385654693357 0.8209141586305346
P 8.216110954116656 5.223697007227886 10.817770725770695 -0.01341190253053174 -0.8140243734892368 -0.1745038568802672
P 4.636871754882399 8.406340256214751 11.003089146393451 -0.8496467506785367 -1.3975629754159478 -0.4828238631134523
P 3.1195524504642935 6.614119357291729 4.449468578673064 0.4297388103630147 0.40572085018186255 -0.765349791101669
P 7.4678750798405025 2.6148167719290605 5.296693181893112 -2.2649642218644286 -0.009191950911913202 -1.746080122693309
