# total energy = -340890.65821100713 ev
CRYSTAL
PRIMVEC
9.09735404737824 0.00000000000000 0.00000000000000

0.00000000000000 9.09735404737824 0.00000000000000

0.00000000000000 0.00000000000000 13.31489722297987

PRIMCOORD
 96 1
Ni 6.49071660086178 2.0888071109312754 11.387818733608578 0.4478902844610609 -0.7479827605781312 0.2223772835227783
Ni 4.905511726979287 0.3684264703009371 5.959388357384659 -0.6880254061878925 0.6695664281517566 0.28236137738589434
Ni 2.6454833124460255 1.8175603977812405 4.430505203421399 0.36847842089063637 -0.23486847401125355 1.2299697296125849
Ni 3.4373625097275116 4.198192437087442 4.657830800176979 0.040570208112878516 0.2591625706719279 0.14143072847538224
Ni 3.720026402412135 2.7689889932122207 2.2710025529177824 -0.0823524342559872 -1.7557940075469634 0.21015271643212838
Ni 5.208126117448255 4.2820609455570615 2.825115120015921 1.7147499451214598 1.318243928669646 -0.22202915615474023
Ni 5.572711684801381 4.718461027050461 11.412345200560969 -0.2720162867061445 -0.16950177567998548 -0.09281836678431755
Ni 5.910651101670993 8.094389103792253 12.286441736522807 -1.5990351333549429 -0.15281043106723358 -1.007791192364174
Ni 2.258772979652167 6.7144933197397165 0.15164561681112695 -0.6944714189235522 -1.0599141383116584 0.3785440326567545
Ni 2.718407703800019 1.9878901606705652 13.114601182397076 1.0195231360891217 -0.3583091936671184 1.1631650132832099
Ni 8.369138298313457 -0.1108230592608804 6.576733904395997 -1.453536148347458 -0.892985779785804 1.54179234968239
Ni 8.43886042098524 2.287666176625755 1.20978253819343 0.2858783894002173 1.7474685184004033 0.7333148741533113
Ni 7.042734957020586 0.8574356414601305 4.846316152864853 -1.3306492443125342 -0.30032001874684405 -1.5669763051471852
Ni 0.7582226256431083 7.459730381982289 2.3350597531224824 1.0400657361271637 1.035153643537527 0.04302509741127429
Ni 7.7263283471305915 4.073531392336473 3.8290718386602194 -0.9529511045958425 -0.05085436364770597 -0.8216014145055462
Ni 7.8099330323280975 3.840575443059811 12.436140519532817 -0.20773793634304868 0.7711404296415171 0.5385137004765888
Ni 8.264964495245271 7.52040973456851 8.743613599429173 -0.08313199273448908 -0.03871772828517203 0.4596168288693697
Ni 6.807340916815423 0.853439173755314 0.12180447552877036 -0.23007516638766828 -0.6537649423431258 0.2956095006450522
Ni 2.1093216446766916 6.919665949256511 9.175282146997521 -0.13572287945732756 -1.0004116120706512 -0.5590411310059792
Ni 0.1648758990399335 4.8166578684021335 1.3986235974309467 -0.3762542081813133 0.042495450160049394 -0.2903767914912031
Ni 6.665076491666501 2.0924369552613955 6.7901314518548 -0.16372682086942122 -0.08451267513209962 2.7891576490636028
Ni 3.540153514955652 4.549286628145912 0.24072236056644514 -0.28826385891325834 -0.3044391831215402 -0.09450886711286303
Ni 6.052897332111493 5.883932172353791 4.846169685462058 1.0354079256401783 -1.3288152764275891 -0.8596336866879196
Ni 5.674611149316861 2.9450227971917338 9.448810476583631 0.49045026931045854 0.515508497830667 -2.2324454233011166
P 0.21511603766922877 5.725683695856446 12.473968228076862 0.4457966351568258 -0.48345764004270925 0.5870967515916147
P 4.37635502195229 6.181734062445233 12.459242340815793 -0.6183582807090575 1.5498697273738857 -0.13847910204622602
P 2.458368931037724 8.609162891811932 1.2684340905260563 -0.14411264618291955 -0.019803407879172345 0.5733994566101802
P 6.53579399097643 7.994600225453685 5.729573724516996 0.3385875468684749 -1.3889549220319628 0.5561257571313971
P 4.675512417821144 1.1394436149061533 12.295922089345911 0.615225648617347 0.20600167037823233 0.8936830629631449
P 4.329867541934961 6.1729642129859945 8.085218061012318 -0.7523132696326851 1.0894908235275107 0.8194280610033113
P 4.710300700323348 1.1961110342853984 3.8460884397115724 0.5340268683498287 0.26089729397484746 -1.536611833922715
P 0.17850555511859534 5.800882425763147 3.4501160905956705 -0.056472738275747905 -1.420334721894825 0.23468026925984742
Ni 0.580707772398072 0.23619187816945297 4.686990549628946 1.8766430552162516 0.6842793088818989 -0.7641555136832517
Ni 2.0019364755720828 6.519236806312724 4.556371647605304 0.9446176450294829 0.6393623937645505 0.043725980133040826
Ni 6.262263841919478 5.82609119428135 9.084621553874097 -0.38421022980359637 0.47821207537305377 -0.13397195820449184
Ni 8.710962285431092 2.4914105215314497 10.211580869596732 0.6219735088641417 0.831902025100606 -0.20114151407245356
Ni 2.6288078621775783 5.214903646335321 7.040984626070423 -0.7358558954076102 0.5905494860269056 -0.5763533970321816
Ni 0.503647723819836 0.20242613828054537 9.425495777212122 -0.36889648226466143 0.034009009955593035 -1.3139170191595178
Ni 1.301067209815716 1.1007070806764496 11.426019433675263 0.18283243135062058 0.9090227786440087 0.6080769533877075
Ni 4.4938109621682845 6.7037584417709395 1.6034996532004677 -0.5763266575593042 0.3270324950410239 0.12741770202574185
Ni 5.818040035804767 8.084973342184046 7.99855211612287 -0.27806017890737916 0.10776547501245311 -0.1915055336445863
Ni 5.430501843777724 2.968594041951988 5.0087448636220735 -0.06487716028935923 -0.11626399940176751 -0.8184674968622548
Ni 1.2394963165168351 7.446921307253445 6.859688912415367 -0.6488335664797793 -0.3502971219959193 -0.5812796306892053
Ni 5.306468516467301 4.572721412593003 7.002224438719772 0.2816296414261924 -0.39594603018328584 -0.16693144384964798
Ni 0.9691320467252503 7.372532241871507 11.323294839132862 1.0104900793525757 -0.2622286111917613 -0.11856539384143454
Ni 4.554035447043963 0.43228534818384134 10.2337502120731 0.9698800191406973 0.7671765598977626 -0.39403107254876013
Ni 8.409821666344278 7.560492677221416 4.40475423259223 -1.318733980932187 -1.1889068981340039 0.40602706856837173
Ni 7.671962558366686 6.239547748455042 6.649259831635557 0.052849025480231564 0.21851754345705593 0.5632240587390751
Ni 2.53670624814716 5.148301916157853 2.3674954598257676 -0.2681190085342673 1.0250101273456218 0.5801506592910848
Ni 2.769480250339605 5.3293392649533216 11.143517473895592 -0.27255210460495644 -0.14002973436279756 0.31458861285071626
Ni 0.9088002130698841 3.5212310181971307 3.5937178268135836 0.8207007570681478 0.03875500928101068 -0.30583297814527327
Ni 1.2132140602017543 1.3521943404805667 2.5529986998033314 1.2362666183648903 -0.05208257962785224 -0.35561827709851657
Ni 1.221974812306781 3.3834424913199364 8.043330203283983 -0.10992982965362358 0.14211464191628428 0.21238829063086648
Ni 3.558448294273626 2.716515454124167 6.931189567835366 0.3850036722391692 -0.015989433449720848 -0.5507297829268064
Ni 4.3552491601831695 6.9066931221518715 5.961133229922296 -0.9529619032291201 0.6908932146539908 0.2072363141162818
Ni 0.5149266235704201 0.2793624628415141 0.6281823153472758 0.304898639256462 -0.4293549446610347 -1.7848852684859646
P 0.36506954659714175 5.82630953078241 8.061464869167848 0.8164049579062713 -0.35771166929243553 -1.1270402425361945
P 8.67554628548834 1.7652688057774035 7.964878259511491 -0.524527927720458 -0.4277973703659278 0.4823245548795306
P 1.9564406071637341 3.3179051515851343 10.383849278668384 0.07417992574752386 0.05509077032655674 -0.5702141169036632
P 4.144054082178808 5.985340379741887 3.7045372471327793 -0.05418985577884215 1.5528750898591128 0.11926730500446556
P 7.331857971194897 4.265603831789675 10.204377584532597 -0.16193656173821788 -0.4936304668106531 0.5323821336575542
P 6.617879418020728 7.953925954777076 10.177587695852553 -0.21289711194648497 0.2729125732681687 -0.4060594644682039
P 2.7840269197227188 8.623036356983443 5.638460083153873 -1.5854561091189276 -0.17054744333568048 -0.2959144334799807
P 6.988169026464043 4.008958372148018 1.4410045317575078 -0.5785414058224359 0.8248433184816117 -0.44403311549849983
Ni 5.177804635863566 3.015827505014605 -0.07298443389178527 1.1274408204087227 -0.15403581883390247 1.086732286945767
Ni 1.3201443615958213 0.8392163701821062 6.949177766316436 1.5584284155771742 1.1448034800568865 0.3509679228106988
Ni 6.996920681214859 0.9221169201636935 9.266130145617687 0.12581796163878978 -0.9627002135628064 -0.6470463926723695
Ni 2.6553994285358273 1.5857325204267214 9.062757882499215 0.04065556873783321 0.15850156791473993 0.28001781685438226
Ni 6.156552585989662 1.9935123255728566 2.0717577594047634 0.2387107305754792 0.7360973219944549 2.2248820091315618
Ni 4.254477767589833 7.229812949012044 10.32483747110901 0.6836010518679517 -1.1684085210703363 0.020256950476823177
Ni 8.482445845009314 7.228139035837252 0.47189886735946884 -0.4920708356330171 0.34269308439641627 -0.7825324735285426
Ni 7.933984554346941 4.185265096753857 8.092021972226597 0.23418301790845475 -0.8863369070107187 -0.2266928801789967
Ni 3.0916994391329067 8.672262140618232 12.489227220294682 0.8467684006894772 0.28569455552418543 -1.0231576475179152
Ni 0.38355264114728016 5.163640055357308 10.112678073558298 0.39026543485874077 -1.039168935344507 0.35784819487029984
Ni 8.741283767015782 2.3339535148504456 5.667566158215995 1.4962552844825392 1.3756965143601598 0.01015457193549864
Ni 4.057674703947 3.051480036166838 11.035307174764062 -1.720051045619399 -1.3711479757575291 1.0909573807707083
Ni 1.1890423900635854 3.7027232347031407 12.456898862371084 -0.2905518836164867 0.41382728133908087 0.09881855023181046
Ni 3.282534638413437 8.487585850138432 7.7035740447784695 0.891002173696872 0.341137052763206 1.2344712170273644
Ni 5.778220916423975 7.997620547051681 3.6428890263231066 -1.0511009108954026 0.9175758104203423 -0.5316311144241425
Ni 2.991865074023285 8.700736859298122 3.5069308871131306 0.5588781230655536 -0.3787810883682251 -1.0008643833373536
Ni 3.7295604296250824 4.184100635414871 8.982282687150235 -0.7386272875051603 0.6214124941543492 -0.010736155470581508
Ni 7.48424775158047 6.198418610067891 11.270141727685258 0.6663466356628782 0.7927477234986476 0.19807007423598144
Ni 7.877399011155594 9.169951097429976 2.4504342186950403 -0.3567194805824953 -1.330631246590405 -0.7323831063676612
Ni 4.5194745983970295 0.4586267373012925 1.316974843388769 -0.5905718546244088 -0.7962637070717061 -0.10324650409617703
Ni 6.377873019230675 5.976152051988951 0.16504329035741272 -0.25157730212550217 -1.7844011297606948 -0.15443871069927598
Ni 8.337333947992404 8.739646243257832 11.586969824373224 -1.7094704418900752 1.0395468875092162 0.06493243900732688
Ni 0.46824809911466375 4.944412013584785 5.520196297883957 -1.1734923633511467 0.5503634007263232 1.252380236097301
Ni 7.163020174396149 6.372660235267871 2.4783148801449633 0.536930929370501 -0.9642816991173135 0.11708700952369512
P 8.380355336055407 1.8128115788831884 3.4976370300513495 0.8145699615800616 0.9528847701342816 -0.11376925800437179
P 1.9410296891305923 3.323645582092167 1.3922590884250516 -2.052051426188659 -0.3276801559273518 -0.5925384914324764
P 4.7202259137673614 1.3500200728241791 8.142672401530799 1.2113451725328623 -0.7075997287753943 -0.10222654747209489
P 8.560319197053998 1.7390684256502202 12.448843155217398 0.08707966452832745 -0.5548821145322831 -0.9839136144156281
P 6.291338985977283 7.957455728210877 1.1071498269285576 1.0336870862943295 0.5869707675367117 1.5821954360897847
P 1.8423688827141673 3.3642197818724577 5.8085041891209785 -0.5531520192150537 -0.9188685610898368 0.18777023497187015
P 7.240675189939773 4.079608424949305 5.968322868955113 -0.7612594230823793 0.7989042300183468 -0.4897488723680598
P 2.4587601172687896 8.766738164097676 10.233736566041781 0.46982050887524884 -0.5216521488345598 -0.029909385964922687
