# total energy = -340862.2667335061 ev
CRYSTAL
PRIMVEC
9.39108742232093 0.00000000000000 0.00000000000000

0.00000000000000 9.39108742232093 0.00000000000000

0.00000000000000 0.00000000000000 13.74480570823266

PRIMCOORD
 96 1
Ni 6.602263024631095 8.819386031251115 13.435560882237025 -0.8354637743099353 0.3845367599050797 0.063427058106394
Ni 2.124404802203195 5.376068762430661 4.660987241124286 -1.3188504519053932 1.90116803694081 0.13068917368816202
Ni 5.087452477983959 4.263290660945511 7.717062088092392 0.864855340098175 -1.042447863206095 -0.3106792504939811
Ni 7.165474700260617 2.1674911105050683 13.54973959923699 0.3433579716739248 -0.5571102325318534 0.6770879333397822
Ni 4.190040180397427 7.9199922142548855 0.0965056299046513 -0.9774511466197361 1.9235096378608032 -0.5983820946974469
Ni 3.860347280320299 7.165643739831112 6.751186886237701 0.862097831957696 -2.494876123201355 -0.5199287383855498
Ni 4.779387251843016 7.02382893127257 4.4021726329559545 -0.40913013297372763 -0.6512450041347494 0.48473110743849424
Ni 4.042168120562794 9.201377896222127 5.625707339247257 0.1794545160173232 1.245145923132391 -0.7938656391531748
Ni 6.6519512672695456 8.791250333850853 4.426349987080448 0.375751814623598 -0.7891345522260925 0.6219434269571547
Ni 4.171783906783904 2.291932407651564 9.623480973054289 0.5302596879979126 0.9563524169679076 -0.0689425886079845
Ni 6.7536755243588855 6.49920523315229 3.083056379745375 0.02887785937661478 -0.7714119381353488 -0.19922887043077303
Ni 4.471650713755812 5.937421002784732 12.028464228127122 0.7567329959669354 -0.3058977699449377 -0.133882226704163
Ni 0.14157251850749777 5.284411750873058 7.027966644314812 -0.3281450113789123 -0.15196556656843505 -1.1879944136220637
Ni 8.411925537658771 8.107363187061985 2.472567153574415 0.23070714354471233 1.1381597494881237 -0.42124619951097125
Ni 4.694041050917247 8.108884543196446 11.097060890240101 -0.48581919829635045 0.6522004260694831 -0.14689843645817283
Ni 6.9657168833710905 2.047087980875967 11.185948470167753 -0.4208919014953461 1.4702344349387453 0.8139210151421531
Ni 1.3632571806105995 5.26290616107112 9.420841031487813 0.8985617312116847 -0.41652462566558585 0.2502418711435303
Ni 7.540291774572815 4.512821240258736 8.424589418815065 -0.7973145169337236 1.177718228507036 1.4330028042807965
Ni 0.47272761086941273 4.714569967645209 13.059489158668258 1.717893632956764 -0.1935629303942473 0.27110997284179117
Ni 4.067815179841873 5.687186091927775 0.5859615844920516 -5.909081292068733 -2.6937830915163348 1.0736700544451703
Ni 4.889075150920146 1.3182832637715258 0.26735580202198345 1.6175519612122076 1.1487380392246023 2.5692895051159237
Ni 3.697167748268566 4.816209704949302 9.848771277958445 0.32363169688959104 -0.6724383503829129 0.643818372653375
Ni 8.800002827167622 2.180000038721741 3.3285243747143562 -0.5566371495501768 -0.30543882803064815 -0.022907757836108936
Ni 8.568888169951165 6.296733392047585 0.7035746220992509 0.5106198022797981 -0.17559940393729112 1.0651273070814817
P 4.702126777039285 1.4030566083750589 7.758571632845032 -0.013547656777447634 -1.5149549177745716 -0.485116772912687
P 1.7711120998674341 3.9304893109887145 1.3283176404978885 -1.2300741164009332 1.357358121062288 -1.262065067485233
P 0.9528478856218322 0.35341666468745786 11.234839409498699 -0.9872879302044997 -0.5065196640684954 0.8795057430214982
P 4.020653139673606 4.53178184541599 5.238557889158682 2.5180780152391153 1.95332646411192 0.5521559738503716
P 8.767509665283471 2.7451274961502126 12.359012656252702 0.39083313443675266 0.6524421097666441 0.01750587009424727
P 2.8574636818317747 1.0232810399949903 3.9139159202103477 -0.08960294517081342 -0.18776586409649598 0.6804257394637636
P 2.0270661828594903 3.0068289245391187 9.273372788404918 -0.33762646850678624 0.8676845820168542 -0.5202349567720589
P 2.5363917998499215 5.138746596542117 12.236697501259549 -0.36096565745335896 -0.6551065439726846 -0.36802333563108874
Ni 8.601137163566824 1.2487328715998447 7.828972857521541 0.2548958249757739 -0.4335895515676726 -0.9844216644002982
Ni 8.893810397705419 9.01467369060976 9.506237005176004 0.6303879581800821 -0.4396596690211525 0.4844500858629657
Ni 0.8404215455026722 3.1204235159121483 7.3436292600408075 -0.21405025171432168 -0.1228820189389174 0.25681155394124805
Ni 2.8733158371093603 4.7780349352790505 7.365085077080321 -1.0198044147749663 0.2361617389013804 -0.5125697269173172
Ni 1.888998418113601 7.917015239596713 5.352983591753315 -0.265215204623911 0.6681533498543137 -1.3503580355953713
Ni 7.08084222196583 5.6117944434867475 5.944724451338866 -0.9324247025077168 0.577963678942095 0.6031139529554774
Ni 0.8630662741880051 0.3161744299811068 3.4710031331414553 0.6120660199424426 -0.43948406267523665 0.02376136408565585
Ni 8.033286290835923 7.023941624319567 7.587242515277962 -1.5576162040885237 -0.11048338816424844 1.84260473468462
Ni 3.30695868195402 0.034335693202552094 1.9776577946210825 -0.9104173449986901 0.6004258646003531 -0.1109587851387702
Ni 4.973181728328948 2.2506491881016437 5.808995067318165 -3.3758466236938376 2.977504839584866 1.2082559920845772
Ni 0.47451661299049097 1.008799983455869 1.1045449352932901 -0.9455211306803588 0.7657825077637134 1.852995076780009
Ni 8.798481471033162 3.5402238981506704 1.598837299814314 1.0539864599733137 1.8211697047392956 -1.675235174856289
Ni 5.380576484310544 8.691254036815467 8.6822911831443 0.5331953735874688 2.2132133145443817 -0.06350959051787126
Ni 2.381523380014221 2.200557128711454 0.12472584709016331 0.06591228642209294 0.798980848892553 0.07548116105745065
Ni 2.400483985171475 7.385376399300866 2.9801347590316922 -1.7743614861365056 -0.14696837046415978 -0.07860042341272269
Ni 2.5547138110741923 3.210061443711054 5.284767673079824 -1.2084701649779122 -3.5706305709793797 1.4268864069704135
Ni 5.506182276276008 4.048732490550372 13.717288804186031 0.34650114528859677 -1.013221876461442 -0.17823555600855756
Ni 5.888437091690013 6.476384891135387 0.36174655907798997 5.513371803376285 0.8861085930499965 -0.11238034807664515
Ni 1.7929557688103628 7.907276682118718 10.390606021681352 0.8412919509559382 0.08319961274763091 -2.534448486177338
Ni 8.565216254836512 8.389593532178855 6.031797673209864 0.6195772407178233 0.8694614714116188 -1.833600988524113
Ni 6.697206916726112 2.620920976184961 2.2425888179151796 -1.0317245632513201 -0.0917053362257969 0.02578816470769752
Ni 2.4002585990774814 0.9285052483617438 9.800815690917576 -0.704805968080341 -0.5123882070341305 0.05566438344183962
Ni 2.422675124342645 1.4570365778866474 7.261710805961201 0.6279014443128025 1.5214055584959216 -0.447200714593204
Ni 7.144795526136657 7.745778154684691 10.600901577573827 -0.023037084325121613 -2.434546473073362 0.27528030216939686
P 6.777510103798763 2.6921711551488476 4.922193759215131 2.2481890592886185 -1.6872509683702424 -0.9417773473672102
P 3.218982976598321 6.646945817765427 8.87754973013247 -0.2864651151416228 0.9812455806651617 -0.4399751433790422
P 0.3523535936107856 3.4071803650833994 4.997748812574304 0.3163711586724358 -0.3088810209429777 0.8483604277669453
P 7.544264204479461 6.8672982889936645 12.725930887079132 -0.7103433529588024 1.1934268974915445 -1.6289306353627946
P 4.096786684007366 0.3247118673998585 12.548691019197065 -1.4796644700033936 -1.5339772245133454 -2.79930964989594
P 5.711978562267127 3.952004291877902 9.95321801124149 -0.7271946201881863 -1.2594672248510697 -0.9733813474257365
P 7.203677643192617 0.6894654526152199 1.4526612703369866 0.49792575175189735 -1.4262467165038857 0.40702054282989253
P 3.996658911750484 3.0985141093584714 1.114379281861233 0.6925677741429364 1.1719106206863237 1.0720474312400827
Ni 1.959253141829014 9.535146528165647 13.271503283527439 0.7418190549695806 -1.6931292815278904 -0.807904376634428
Ni 3.530128479357184 4.561551591997712 2.827100418535869 -0.0973944161907742 0.32548314827603303 -0.347957161008833
Ni 1.3655767791612892 2.840794501963461 11.575352720304995 1.116137993801394 -0.0014272193648298 -0.12060247887612131
Ni 4.995288347714869 1.3352435673445824 3.771698234008792 0.5274903527828916 -0.6193813226569332 -1.6000216656379282
Ni 5.531566385112095 6.475492737846661 8.577074380706778 0.08120340825320854 -1.4065237841536615 0.5536904082170271
Ni 5.783998810385493 4.120752738668739 3.8634172267422433 -1.5578977398846847 1.7828116737863877 -0.23675823483479874
Ni 7.542479897902008 4.626368876195516 12.762697932770644 0.22058291062651686 -0.604694667179036 1.6501003274618744
Ni 9.142270393072172 2.063109175724048 9.969368803093618 0.6071726964058833 -1.459760789100931 -0.6072930240338315
Ni 6.701780376216743 5.419962704236013 10.874752255537741 -0.11750327112550732 2.047420869395183 -0.4771514953190234
Ni 5.4921801651866256 8.606837553527424 2.468814475109413 1.7956260519422365 1.5026876703714442 -1.0945008751475924
Ni 7.881742315886636 3.308958983538218 6.649187470291944 0.25848019989292254 -0.9195730433560291 -1.0404272332316404
Ni 6.526495732700076 0.7996914609917624 6.261761922238224 0.4557509181560603 -1.2821500111605661 1.8885171809460186
Ni 2.0965977928566724 7.280121093405619 12.467541695163213 0.10297833803645491 -1.4674226765215632 1.6619178889220927
Ni 1.4190402388741408 7.176208712987086 7.403392261080795 -0.4333545527387311 -1.0039988152012775 1.898663525351401
Ni 9.001582514983602 9.028487979954148 13.282801700597618 -0.30039560917978586 -1.1431895986025473 -1.233922800723062
Ni 3.0598322209767326 8.840346937992567 7.889958578121446 0.024268128518745304 -0.11255235487813518 1.9776982080880647
Ni 8.604208049097492 1.269477783334552 5.333767549022868 0.5721815250426792 0.06984067494222165 0.5706488904482365
Ni 0.3126452593926491 5.735681666485507 2.8496963135675033 0.5665657215177985 0.3350939318929197 -0.07270411253294574
Ni -0.16097826120039027 6.990265185441949 11.395735968240016 0.2118357605615061 -0.8962994175400694 -0.4387957783589604
Ni 8.108020563169468 4.619635466637442 4.212411628443792 0.7515825621142476 -0.5447329419134231 -0.8343034354532469
Ni 3.8550507071114373 3.1099054981924232 11.91243077139533 0.2187828813033006 0.31163184421523754 0.6157887202096685
Ni 6.556716251469786 2.240741591053153 8.900751350291713 0.4668058904186412 -0.9744511834511477 -1.323730405705514
Ni 1.6898979773315577 2.955403330759464 3.1648790447350357 -0.8059032870439992 -1.2078410160343456 0.14241803208931603
Ni 8.641950828754256 4.111061136626992 10.635042875270308 0.4329735152502285 1.6541169048204352 -0.10633876986825558
P 0.9344667105478879 9.23712976538194 7.037285420192744 -0.2057476453858973 1.1088717991572838 0.1626209893997522
P 9.31286888405121 6.633732558005022 4.848795838597225 0.2276786411310337 -0.3643042349082887 -0.13021660492711767
P 8.886973686187599 6.044939560707169 9.198395286911603 -0.9366325699414771 0.6408893719320382 1.65293908246225
P 0.9657794127647441 7.819188283716021 0.8978818519490196 0.23345719548602373 0.3279429226704352 0.7248078651235647
P 4.27671052462541 7.008446330357473 2.235276917382521 0.08496776039164722 -1.1933232820341448 -0.23355181208235906
P 6.936970765299592 4.833940077676838 1.6109734018671715 0.4612955021233733 -0.41749238889549395 0.30963949637555704
P 6.040093759686297 7.484320894564279 6.599513314284367 -0.00848695442508861 0.6992444148321635 -0.8039240518304412
P 6.703536509532447 0.2129335123009316 10.257046917924068 -0.4748750405800209 1.92868938228953 -1.2812308417804064
