# total energy = -381167.279604301 ev
CRYSTAL
PRIMVEC
9.30811878817288 0.00000000000000 0.00000000000000
0.00000000000000 9.30811878817288 0.00000000000000
0.00000000000000 0.00000000000000 13.62337272556232
PRIMCOORD
 96 1
Ni 6.271130829192351 2.9423335262369164 0.9477098198922574 -0.17997747840032877 -1.4811397689973393 -0.9056250658163693
Ni 5.143061318171597 1.5672265472109246 8.785685563432375 -0.4545797806660945 0.8831795923286596 0.519281334609538
Ni 5.807437592336702 4.1397112884546186 3.8882329170588266 -0.9397986263742846 0.07589999376242412 -0.23694309715209516
Ni 1.693556333034854 2.8800342883560175 6.409224215320163 0.5290556403874823 1.4943608956733039 2.109535636448057
Ni 2.208118438113888 1.4162954038912208 4.908896047397121 -0.15650793452347886 -1.5793970474090413 -1.4184863558321763
Ni 5.675830103258854 2.798029763370104 11.235753651917301 -1.0099295788634155 0.2018573091925556 0.31969353817744944
Ni 3.860970368451421 8.918480768445319 10.838904807261576 0.5943742590896345 -0.17483450074680856 0.29218916210959356
Ni 0.5543254569845192 5.195587031508205 0.5675727713954105 -0.4260397642448727 -0.9106592858061671 0.29958571168398085
Ni 5.879110105661507 1.4832021604858572 6.6471294881535865 -0.33514586817677766 1.028927460122157 0.5108046645970945
Ni 7.600637335130262 4.681201780682829 1.5021134650731311 0.010184139621853428 -1.1811444805797657 -0.005644856990603182
Ni 7.804736451970912 0.4225420444648749 1.773367865275401 0.3561013873825222 -1.1805878367453475 0.05934543183785263
Ni 3.8968159332324372 3.195914601627523 5.361804898027042 2.193666502760706 -0.7916264654100108 1.4661695208407524
Ni 0.18115925851740564 4.577639652987792 3.1130900313917502 -0.192906527757171 -0.637755968509379 -0.42323211959274853
Ni 1.3076789677889933 6.401407257308452 4.672203622419052 1.6987761954010228 1.1061595424324433 -2.1713182169724927
Ni 5.548690511115541 5.866581378007586 8.049205810050655 0.7636726605095622 1.766080477074636 0.23513252630591763
Ni 7.726613412446874 3.7991830770942707 7.7819836868318015 -0.31347635362314397 1.7661591528313714 0.8453021005565957
Ni 1.6790170517603935 7.9488447443468395 10.976337316967822 -0.6870319319263717 0.22714410878380237 -0.053583589653410944
Ni 6.850589137245481 0.23076594585678448 13.266426770840615 0.3300838802728379 -0.48920379849786716 -0.3727281973059258
Ni 1.5594170356941048 5.644098726905054 9.9567371737752 -1.2371186819525404 0.2407760977449402 -0.7575133257763857
Ni 8.935607706694364 2.064726870871209 6.946693600307293 -0.2139926590035089 -0.8863567045050605 0.18949210275898334
Ni 3.371056161461229 7.198861703292353 0.970173102542485 0.7483152042168855 -0.13723777343995722 1.0781437739458075
Ni 5.745864387707664 8.772324689974397 6.069757129481767 -0.15012542803590273 -3.6488563846615025 1.3483916558976197
Ni 3.926871848235787 3.6876066592729146 9.556973026369695 -0.12821911488111465 0.47714455334048794 0.5644808139643118
Ni 3.6185218029226935 2.21219539406665 3.191656137361796 0.2737944616524897 0.4711893641983176 -0.4971281955512664
P 3.3123405492465703 2.616279439320734 7.826832063935902 0.604306687711998 0.38321135622543684 -0.31313876777806715
Ni 0.061692348547291505 5.748433428445021 11.868832308056 -0.45570129586504743 1.250992611721155 0.38975378532964494
P 4.257095972290868 7.232650173859762 6.984185771271057 -0.9039713322630303 0.30576741501466054 -0.37191007228000467
Ni 4.85168928120973 8.533459750111911 8.775154358032935 -0.1221561965164864 -0.956412837892198 -0.7867889348120514
P 5.065580538831899 1.1176723425293502 12.325909334201095 -0.3489686329924829 -1.936597324282697 0.9645316103445906
P 8.498796316394822 7.886740976956826 3.4066336524261733 -0.286733538311661 1.261265454402073 0.4412208428606853
P 5.915979563490021 0.8244554364582649 2.7203283816192627 -2.05711932762987 1.3597176224334 0.17355460559312044
Ni 3.672657820779455 1.5049366174486392 0.6526545603949839 0.38000981856900357 1.1620987768022244 -1.154229915577109
Ni 7.803033066264622 6.383740448179818 7.351580936197732 -0.5731814270621032 -0.3506498773496477 1.9597159125780315
Ni 0.6112985893947099 6.6647897815991906 6.837257118955207 1.8622196807020703 1.076067093922437 0.3953433636022804
Ni 1.4285076555122787 8.783159340040642 3.570931254075022 0.3546037197910732 0.18111313466666873 -1.465341368512502
Ni 5.661086043374894 6.890697820351532 10.659035653984018 0.3609309475606816 0.47580937946883217 0.41455233243056344
Ni 7.916331486029496 6.190606295066002 9.763026848119202 -0.29792220793862884 -2.064827494907405 0.7509338727866551
Ni 8.7332771323903 2.540436888857031 0.9356613911587992 0.6707169968164319 0.9999022765344007 -1.2944928489966352
Ni 6.9517032297451395 4.2909123672141165 12.544851176983009 0.3725415352164165 1.7079432066122715 0.21282306417543992
Ni 3.5933061095984207 0.6469691615457902 6.917104022046485 -0.2682586194359251 -0.18874853972473946 0.43826587399741945
Ni 8.811241933897906 1.2188515918593028 9.476772414771098 -0.4473832629176553 -1.0953969045993006 -0.36549774099575766
Ni 2.4298750559645583 8.131414182834208 5.6428281687142965 1.1048192263544652 0.46753582660613024 0.7650883099101663
Ni 7.372886288892427 2.716434795603189 3.030519572794129 0.5763407986266912 -0.07094136420556814 0.12278354568784015
Ni 7.474242392476037 6.768938320766885 0.9722637059831021 -1.239513407436962 0.3303119371232441 1.0912314603677014
Ni 3.0970065332392918 1.806715131020524 11.698076733713027 -0.405195830916328 -0.9265803279117978 0.025518970206710886
Ni 2.277193986345496 3.901516533132311 11.38965687751033 -1.238237883158648 0.8717361263784084 0.4808086324556364
Ni 2.7584237186691887 5.402841600558869 7.221804354051183 0.12725597963689697 -0.4382365634213808 -0.5359305131304447
Ni 4.897457300432856 5.900788713912607 2.378872150833138 0.06182706060912579 0.21834450821430137 1.24139236962723
Ni 8.35415746125792 8.208587794259657 10.892676877680547 -0.7022677750395196 0.11629305286749003 2.156300146297106
Ni 1.2876385884138888 3.3333024323644227 9.160682668830786 0.5469502612797161 -0.7763533413010243 -1.1820878183296417
Ni 5.304845727794771 3.7894654012616606 7.416672609662714 -0.5707386219485655 -1.5263824428852228 -0.33549296710355125
Ni 5.851260214769583 8.321076407705146 1.6391503797382974 -1.0381970583495412 -0.3007892450737788 -1.4223216704178667
Ni 0.20956484409056256 7.547972000014451 9.077743608736066 0.8140477705280045 0.8549571071478566 -1.1262737966838152
Ni 7.254766263685703 8.332832561514136 8.922245902424525 -0.28965893948857213 0.48458892543367516 -2.1328056627195915
Ni 0.2343253704146294 1.4602390318660787 2.7445369365095424 0.9635371076418051 1.1012415363055357 3.477149888020715
Ni 1.8167027422929285 3.0973974742210633 1.7831227735824653 -0.06929020175539036 -0.5076854022418225 -0.46648964472980303
P 4.329503826986148 4.431939672328938 12.099721121078485 0.8425440781954844 0.0097683922406735 -0.18392052220847682
Ni 4.130403169841007 5.787508910384961 4.979656365097793 -0.0130419207856227 0.9969568207528315 0.15066947346483084
P 1.7020918778035354 6.856174008413649 13.432713517437191 -1.306411454811092 0.10994859870670097 -1.456583419814214
Ni 4.594599045101792 0.6558304904659481 4.668225332523594 -0.4347030963468256 0.808926133030723 -1.5414563064992097
P 0.1644186071908261 5.044441801460388 8.240696149417309 0.44554826659144553 0.9312844182556865 0.6703426441961488
P 3.017450043448758 7.3767398499984616 3.330478349177053 1.1432243084952247 -1.152718106918273 -0.03790603101715407
P 8.073620074362296 9.299918161112487 6.773581210331354 -1.262889106048425 -0.506782687921895 1.2401551547860188
Ni 3.3682544177585325 6.3597999671056105 11.693186248193436 -0.08275095524598652 0.014268594103872198 0.8385760946866719
Ni 2.8458455686882242 4.522721753167487 0.12970025557391812 -0.19284944926699046 0.97004919772871 -1.506757983786076
Ni 6.5450222193978576 5.231776996677924 5.8472055983014934 -0.9509248181944332 -0.08777129127871336 -0.5786229097926486
Ni 5.402692670661052 5.727220226124602 0.20141093218503925 -0.26488584630895023 -0.4589902510289644 -1.5924037440813543
Ni 7.4642361649664055 7.421809760325566 5.420235681812124 1.5097018969057485 0.9906684166409584 -1.2798103072837959
Ni 0.9832631097488064 0.1967931745408268 7.331335778213129 0.07243697491448815 -0.16875101355689 0.2615873780633366
Ni 4.264849635096006 3.7603868387127397 1.6142874641094807 0.435555674155108 -0.1956367822041405 0.8951511628682389
Ni 2.520908456005675 5.29741784914111 2.4185303209982894 0.030312020719980057 0.9842576280186083 -0.1748275587682731
Ni 0.6399731795958002 6.9387370205163785 2.210269544325494 0.0665748597067563 0.0057708410455061905 -0.839708151408586
Ni 2.2799491894551247 7.760457731725964 8.122105133408734 2.1060587336430503 0.045750980982869595 0.3361501410715759
Ni 7.214294563953721 0.7834969221227921 4.390104333220063 -0.6268637470769075 -0.8651119361936713 0.8106451726043588
Ni 7.263804446859518 6.0535535565991925 3.401429483309303 0.7727694806045079 -0.568608205869124 0.27664735772025256
Ni 5.694548729790826 7.657221388182404 3.7263740424867438 -1.3908377408769725 1.001978956557771 2.1372148475308808
Ni 0.21873054848938536 0.568192692095077 11.959958789283252 1.250202254609376 0.29866319986971146 0.3775988951346658
Ni 8.868319317236569 3.6531386960467125 10.899815273845325 -0.04359871052655717 -0.1248093178686173 -0.21139430214871338
Ni 9.318543706458323 0.2045040200003422 5.071423244885662 0.09823876646894049 0.014925768071896873 0.4593921144530734
Ni 7.185821029114685 2.918523358823299 5.781159842678616 0.42252146667896906 1.4694813588228046 -3.268286322713655
Ni 3.4014657849718963 0.07052947635905386 2.2803894634655486 0.3691289099904417 -1.7182862404094925 0.898936340942284
Ni 0.9121974857576084 0.2841051887602214 1.01605002675339 0.8071099057575907 -0.3493704964165919 -0.9447228031487794
Ni 6.480656579184736 0.6659800630022294 10.509287572540105 0.3241824271867385 -0.7305977323324644 0.5887070335015281
Ni 8.946153805083584 5.315503523607356 5.33785510883422 -2.68367608498932 -2.469707594355527 0.29343846113566235
Ni 2.6724818595097175 8.883705637304868 13.026409485893764 -0.5618030100218324 0.10921480586446997 -0.12967410216008635
Ni 3.6516773214243763 6.1542115512867825 9.320334588479582 0.8473294153992696 0.8516581246816106 0.6666829359563744
Ni 7.773107464921861 2.1291390516773983 12.396819512611446 0.2801594846385691 0.047367433540370034 -0.3452973547884827
Ni 6.2638239560806666 4.5572176407495295 9.940198508622537 0.14695191540392757 0.0195601815201147 -0.6085922024612292
P 7.177443722362434 2.546682636446764 9.413859771873563 -1.36653953045124 0.3458447426515205 0.9644447070577389
Ni 2.3166417930299796 4.328805718090128 4.4290131998368185 -1.5587030093947996 -1.0033426696745171 0.041991256830121226
P 1.4422464385859686 1.3019079342485542 10.151851163718131 1.5493758184566027 -0.446312912671612 0.8487193537682609
Ni 4.962074259848543 8.115543840598 13.053261546470308 0.31136419237614765 -0.07555957970386987 -1.1972596409740737
P 0.2409871909063908 3.1106894676013 4.822278418826303 -0.8105569837659267 -0.2582693694336971 -0.8292370766739331
P 7.23269671445283 6.8203749842257 12.349014877035662 -0.34340553708240856 -0.631533384638435 -0.43912925043897916
P 0.8857735986372892 2.578358164088882 12.663592053701262 -0.711929980719632 0.7132972933808037 0.3167447399617706
Ni 8.868282084762114 7.898785682442838 13.467330410561212 2.2162932390212857 0.9631434717478121 -1.451716064419584
