# total energy = -340869.93189285276 ev
CRYSTAL
PRIMVEC
9.28431927159143 0.00000000000000 0.00000000000000

0.00000000000000 9.28431927159143 0.00000000000000

0.00000000000000 0.00000000000000 13.58853972734634

PRIMCOORD
 96 1
Ni 5.287911965999439 5.397132699395659 8.136137830662733 -1.7154438858646908 -0.365782362115712 -0.21687486564731034
Ni 5.820980448545969 4.725551455752716 5.622937559902528 -0.9962417969636778 0.5692887768759163 0.4771152427644493
Ni 4.480259737261714 2.980712174038567 8.883263724382042 -0.36246486770670483 -0.044797873040980915 0.31568930211406276
Ni 1.9097845001362201 8.999235086412433 9.278037627338007 0.4295961141375633 0.27296810909645247 0.1955493646966568
Ni 8.451358114426343 4.519541692633986 1.3573637822368272 -1.3413612314133996 0.34283449507028696 0.06308792959942038
Ni 9.072228405518272 7.0853933386993555 13.196768729371044 -0.06781901652650256 1.1702370896386425 0.5394971474357805
Ni 4.273432954035975 6.791916002533551 12.534545151249187 -0.8777566215408753 0.48989131148319504 0.33331061474025175
Ni 6.891954544045306 0.42854004417397945 9.905841448156243 1.6208185477786214 0.9452449942008366 1.6055654782742927
Ni 2.7350212298134586 3.8887928857027547 10.600501652958345 1.4242345711698632 -0.5362033071758572 0.4195713829117097
Ni 4.67363354167998 0.3487199650149074 9.560910413887596 -1.722210000943931 1.0491409589555545 -1.0964947656491697
Ni 6.461366379012162 1.8530665929347998 7.8660114862144415 0.7932819987355628 0.16030185434827232 0.4018500543725467
Ni 3.513715666349312 4.430124412513364 13.155718111153485 0.23620930430986417 0.65087039440415 -0.22458560402800676
Ni 0.23946395120497538 0.16347551066139293 1.660886751991097 -0.6161203925174744 -0.4485119772054598 -1.0616781721906168
Ni 5.280252402496219 8.089046834244934 0.932940405283851 -1.3023216010124345 0.4939289718876784 -0.16726902969472482
Ni 8.36143019673884 7.476105351918765 3.818977589126798 -1.421874812688435 0.5659473712075092 0.07999421843645578
Ni 7.303147765856355 6.938190454646562 1.4805796986933553 0.525505718252695 -1.6636824370216832 0.040863313873265104
Ni 4.347521822830759 1.9771515216869662 0.5952715656481957 -0.7838967008659209 0.4313462640594506 -0.3939817073680634
Ni 3.8263651220716612 5.007488382907002 3.8189098135951935 -0.5061633091703411 -1.6904694753075402 0.05407621301911333
Ni 1.6742413170129538 1.655357011357742 0.9339932471035663 0.37044582902965234 -0.06310464176996873 0.43551350806326283
Ni 0.5359150548739086 7.324854504608512 10.84964729243139 -0.6569333127687783 -0.510649627076469 0.03713984227509087
Ni 2.6960920785783045 6.476769064893182 10.429666462310282 1.7175426773752485 0.5374081261172358 -1.503605039979391
Ni 3.3303132209643294 8.756775085337773 2.5616569905614233 0.27733564203652883 1.1057797904955213 -0.07806434840359458
Ni 5.432933034993741 1.176184002915688 2.6040399086125747 0.0913420393491072 -1.1380347938744853 -0.48453570359823656
Ni 7.406640074184106 9.102838806572958 0.7706180070916702 -0.7542176857442494 1.355930387476826 -1.179223352297653
P 7.331650626407732 6.2788180910117815 5.246100033591254 0.09788858221837334 0.8005253105615374 -0.6478066678771618
P 6.416764508624926 8.624519955515506 8.16794869421556 -0.5556243920149463 0.09893630675659734 -0.6963254414131556
P 3.7184627620299344 8.383359759156544 5.434709125294547 4.238394655815075 -2.4588899349147333 -1.906197371834601
P 1.7696098458675928 5.747021560222755 12.12798944697736 -0.7039073675254717 -0.5383815457740987 1.0379301778413994
P 5.323925840943671 5.84809066118767 0.6127000900218258 1.004969920865295 0.1908496452281423 0.30330481240678087
P 0.27842281226220245 3.179656570095538 -0.020850724503674884 0.36810766781477894 0.13501993985303196 0.6379372312822497
P 9.314586279079554 8.229871390871411 6.773099472409943 -1.5419553576228153 -0.7756920535679416 1.4566150443830979
P 5.150921833284272 2.67394897681445 6.24727647272149 -0.7577719787544112 -1.2610546239428475 -0.017963012236323902
Ni 1.3418441139313935 5.348594277583738 0.7295061123660835 0.49178904272654006 -0.04572347017904384 -0.10282124363330035
Ni 5.2942995777451545 3.055710906134339 3.9362199744827544 0.4567191956066005 -0.7219385139955696 2.3209152833087514
Ni 8.587187707216781 2.9974796548710705 9.345736099091257 -1.5005515978650479 0.1574983234612062 -0.8893085880445328
Ni 0.42445494363892866 5.368314171984756 3.5029625676227307 -0.7189884302283102 0.922076012283541 -0.9270780934838229
Ni 4.7615560463775495 2.5093844154876903 11.57344076307198 -0.175483190074401 0.49689268250169266 -0.6581656425139827
Ni 1.9044831537600522 8.781796326114959 5.989909568421655 -2.4380668275217943 0.2989856162061367 -0.6764387297915576
Ni 8.349954777963108 4.610091659721145 5.581397658052701 1.817837297931953 -2.3881336901367773 -0.750671620264204
Ni 1.6267705919317847 2.589359542780706 8.450536452159636 1.0922907548701513 1.3738255225896918 1.1896736010966995
Ni 1.0087970084919842 8.707048270642929 3.57173430669837 0.8959399773181215 1.3759338271819466 1.7832567317436063
Ni 1.7393151116724326 0.06312780131369089 11.641057532814528 -0.010149172618859939 0.12235545701148606 1.1976149674309633
Ni 7.538273154606719 2.725904028164777 11.683154493828226 -0.5713302327859774 0.16791746191200113 -0.5879943237052195
Ni 1.0302437863010006 4.722803297210954 7.146919594916918 -0.5024002425834831 -0.6056580595335698 0.26782487433261615
Ni 8.451320977148752 8.219937169115719 8.914462751286552 0.7166479550205915 0.001251870129230102 -0.13261930083133933
Ni 1.1737050896364642 6.879987056341487 8.270800384504861 0.22976611978768172 -0.08487417223657641 -0.0118134476951603
Ni 6.80586105026911 7.327407692442918 12.224915884626958 0.03366962433830331 0.0814566619145952 0.5636284932663455
Ni 8.771193633362623 4.89241852829014 12.52484303747844 0.9941836288830684 -0.6837470905275128 -0.0023756993210281665
Ni 4.816129275798068 5.086256548678298 10.875044548144189 0.41824469368048617 -0.4952479478094181 -0.3280953890878995
Ni 0.8543746376754277 4.831123451625583 9.956540331092043 -1.0143809297665496 0.5772116312674188 -0.16404718032331747
Ni 3.3989800472307734 6.503619316591743 1.6436699100997378 1.0880211809605198 -0.9114421867187787 -0.04862238899339368
Ni 7.2035455873563 2.4583299431189536 5.494403585294916 -0.31921274188628895 -0.3801082918200809 -1.8563051149898482
Ni 3.362492671997252 6.244345413087591 6.344598422377435 -0.22066184349356838 -0.3978134224093278 -3.35036930535834
Ni 0.9256744969230994 3.4227479048892504 2.5436249854269337 0.7217400248315183 -1.931640494498054 -0.3553966480060137
Ni 7.274032140224722 5.245724018655642 10.902207681406455 0.8925579482197661 -1.8265803342319058 0.8943392084899049
Ni 2.3508360931307326 2.437839450207915 12.54279334060223 1.6812014197420528 -0.4602866012428847 0.5944843023049374
P 1.314260401000403 1.577071630195133 3.974715548002029 0.8042094442813439 -0.013144764912074135 -0.771504240738839
P 7.762285213037865 3.240032499139708 3.2740363189343067 0.10329149840149952 -0.8646457951905302 0.6252737768819683
P 8.34473699046152 2.9530727551911897 7.124675294071627 2.017523310504803 0.10369824692161494 1.3311585798487848
P 8.68273263813998 9.124034907758233 11.259491502633933 -0.7168173907189204 -0.6947154166135584 -0.706325490048661
P 2.368077074252526 0.8424665696157546 7.4868101721844775 1.1743518831379647 1.0149560855437294 0.8238238760781619
P 6.166737787241025 1.6326939877076083 13.152796335838982 2.453995325826593 1.226578444542849 0.8713861992381574
P 6.383833027720779 8.32937144185809 2.9518388691432165 -0.8747972818022353 0.46746486415887883 -0.42925570007900915
P 4.484307700519174 7.843541576407783 10.637964810160579 -0.052972695542289415 -1.224087559800195 -0.11365278703116555
Ni 5.382296356997907 0.1856901016846109 11.914418534141028 -0.9490175738693913 -1.3484096536197487 0.30039998005516005
Ni 3.14827557053083 2.1972455973322225 2.7519781107616783 -0.05872528175535048 0.644690233735367 0.004008864049076967
Ni 0.5733336473430335 6.533719080079548 5.485992920352411 -0.14458315806143487 1.316956834427106 1.3368787701620135
Ni 3.8249353368843937 7.684139096666224 7.930815107179444 0.1710135843388216 0.9027030070735679 2.0856991961500917
Ni 2.3943424138290226 6.919751796322446 3.849171124240522 0.5253203417147662 -0.4135699139126361 0.5642869527859509
Ni 7.583450652796621 5.063500681834186 7.741377854185862 -0.02254446095941924 -0.36324725439868405 0.030000145906516076
Ni 9.03461762763761 1.2577838861033268 12.779804374622296 0.08862464041794414 -0.9677467748477784 1.5353555929181106
Ni 3.3352339102451865 3.7978158399232953 6.719084230585235 0.250975149765129 -0.5839080694509879 -0.8210044043514957
Ni 8.902148958469194 0.5028879454799631 5.381646454640058 3.26277310620491 1.198014259751911 -0.3176374269793691
Ni 4.980220336835538 6.936547130113143 4.126866974293873 0.6185876231110443 1.4746693307816472 0.014952764655090376
Ni 5.4105671095643375 3.8219272173994927 1.9522110544885416 0.2084838133701377 1.2115143511208748 -2.0359028414532547
Ni 1.9070549102332546 7.859631301924244 0.5192747692171553 -0.1577729172788315 0.45003869826263143 -0.25288676496554513
Ni 6.143796234008955 4.097866474222772 13.152579082765074 0.04533986158737998 -0.010508869951123836 -0.17137353878140166
Ni 0.14456892263962628 0.9604999789844071 7.787143978225589 -1.191539964881477 -0.0873048931652561 -0.2268980542112673
Ni 1.2282968876957787 2.628232988099473 5.90627270555813 -0.4191859745478329 -0.4473693789605844 -0.013511661333189633
Ni 0.800265624224801 2.528853633264966 11.03185577434181 -1.3834401628613207 -0.015556459677360305 -1.2798347327638282
Ni 8.039013637009962 2.0349649785773316 1.5561048516989853 -0.34063877297054884 0.5786002840848293 -1.4301115987759305
Ni 7.0778173340707164 5.191689279760199 3.320590681690909 -0.8209902632841086 0.8710897510436612 0.3661379456829178
Ni 6.124354869189874 7.364999901684783 6.383298250923462 -2.7683633380260706 -1.2147750241500177 2.105060117175207
Ni 7.647048240671843 0.7127711266514722 3.512420503793313 0.012966330352680895 0.24239100764054383 -0.7505464075402494
Ni 3.9484446378338935 1.1509120855147608 4.751423140186744 -0.3799684238081069 0.2615506112881302 0.0015010100255587054
Ni 6.205388408894244 6.782687389052096 9.865864097261072 -0.1911473789742192 2.5621032717801295 -1.8612622018848073
Ni 6.898007920292699 0.0352702009604642 5.766962421425442 -0.9032007726455928 0.4137989992043067 -0.32407032708890643
Ni 4.936110535376388 0.24615980235469942 6.806377258427631 -1.4381573518985427 1.1301237665575246 1.2088540306798923
P 3.255936538268213 0.17235689059736914 -0.003760149356126248 0.0079580785048121 -0.11379779724946208 0.1554640666399968
P 6.351709282604243 3.902719364799519 9.494380837946535 -0.14287183179728297 -0.7047532604655347 -0.2625042334506511
P 8.537210215898194 6.089334416421211 9.325122124732227 0.2705103915845793 0.477692712534474 0.1979464041739236
P 0.37378205679744364 7.275480494050784 2.1010331238443194 0.4307158295643034 -1.6762757003056614 -1.8519630359710684
P 3.233747014907369 4.285948216584267 1.7617673812722352 -1.0091623616800878 -1.0611382405267469 0.5384270543000533
P 1.8775864804645022 4.80966738949717 5.012866789134172 0.7439147611563447 -0.484696654656133 0.2781069729849146
P 2.8704701655085842 1.595259611895507 10.412082889802708 0.1903338819339883 0.7042765779394322 -0.26137371939063375
P 2.907978815875868 5.308105360689747 8.16105972922236 0.014036166378091955 0.5233339074123567 2.7772763242449847
