# total energy = -340876.9750028215 ev
CRYSTAL
PRIMVEC
9.17394033483633 0.00000000000000 0.00000000000000

0.00000000000000 9.17394033483633 0.00000000000000

0.00000000000000 0.00000000000000 13.42698899613146

PRIMCOORD
 96 1
Ni 8.15010116566187 6.987074866297078 0.7022440406695826 -0.39990938570640805 -0.4189316924451817 -1.0652329794214106
Ni 7.88235971390118 0.0820407145727428 13.498689169193888 -0.21123592219397816 0.0007420203723471092 -2.796095770944333
Ni 7.277870430385149 2.066485127901524 5.975211253149232 0.36080547772641086 1.0648521990432243 -1.2292907012676895
Ni 7.682303594711686 8.528581252481779 2.826004830924285 -2.0134663668266097 -0.6415082364629596 -0.6838864443188545
Ni 7.400755362587802 4.597676208824729 6.359975489170993 0.7404190892982603 -0.17088528629107344 -0.6618166090030085
Ni 1.6055129686391925 8.605064393935569 7.764841536856314 0.07520271058508339 1.1766908156837863 0.6329102103813035
Ni 0.7619361189348313 6.600154754271761 7.021765204679393 0.3135007791031762 0.18637746838940158 0.11544098927983991
Ni 4.980935918614222 1.2255833992296594 5.990330824389485 -0.011697748052902435 -0.8578164309735226 1.1853070965978878
Ni 2.7623285103256574 2.398490032449044 1.2735245771844657 -0.37002159700804016 0.3463944445074034 0.17863227722634398
Ni 6.349687832360836 4.785053942325228 8.529239941405418 1.6279289335711578 1.369764979367073 -1.2244292594103299
Ni 1.3431382720362892 4.602822789411939 9.501635427989454 -0.7354602026310882 -0.1716807856091753 -3.559947637344237
Ni 5.525620284397585 3.556268837881779 4.895600842029237 0.8351513852758391 0.11071761566224159 0.5320800290361031
Ni 2.3573265616917984 3.043087783571645 12.274214899363505 -0.09081547742167585 0.6424911692015193 -0.5468404751747291
Ni 1.070800676114828 2.216277227416636 5.669492440146338 -0.5999656371344828 -0.9387768699779897 -0.9257676022025152
Ni 0.7228266934422495 3.789039228682669 2.925539332523324 0.5829030252252413 0.40881311595394104 1.1200339864216904
Ni 6.734241067752461 2.1199049830874928 8.27195219477686 -0.3472886741868987 -0.9086296569706481 -0.4278760461226631
Ni 2.182893258153071 7.381554305245499 11.46313122930592 -0.4229035326087362 -0.11401428413564235 0.22715413608613136
Ni 5.827259446086517 5.84132309678205 0.7381756131935194 0.35201924689334857 0.730145218176078 0.46297340404642845
Ni 7.241303103788674 7.171195850941143 9.050368380319295 -0.008318290057708256 -0.3859171851923741 1.807653672530732
Ni 3.374927557191233 3.123323066665666 5.789072919002265 -1.8755912169129698 -0.12891202718308123 -0.842491113470362
Ni 1.4743898379208253 1.3521929512512214 2.9679146808127816 -1.389199176832285 -0.5495108229180408 0.03695549417842668
Ni 1.8469527331565074 8.640420760393877 5.049527636500955 -2.292738820874535 -0.6036690541279991 -0.5764513560626265
Ni 5.731933030967609 8.890474854984971 9.786543157102706 -0.838034363250589 -0.19509402232679304 -0.50456948232066
Ni 5.40105652109429 8.762938734978903 12.212988020862532 0.6375302256518182 1.6003404824299277 1.0831957345474184
P 5.96554742428904 3.6126885715918435 1.198746871258594 0.21772487235243151 0.01976818376586273 -0.925869160777386
P 2.5596119484083726 5.922585861205425 12.912064299897956 1.0904236197544253 -1.0923828003633251 -0.10623181197674608
P 9.015607402595586 7.385315620826169 11.944542010475999 1.461866008369392 0.6595671508471996 0.8290517001360045
P 6.479333958668256 8.582340543464053 7.477839397140456 -1.4306466453437943 1.2801455791360274 0.3613454093902809
P 3.439631359119215 8.516370737755258 10.051618661771341 2.0720916326689864 -0.4330023116056349 -0.838646285802975
P 8.49971086191502 5.430642479015422 8.319094322519286 0.5693173161210067 -0.3685910352091007 0.2956077008728393
P 6.335330615571202 5.64658786304814 4.3893497823279795 -0.9435776338007428 -0.2064071333467671 1.228018262313169
P 0.07506485026166419 3.226172112945916 12.569850634428068 -0.9468241657624983 -0.617193313866679 -0.03666804484499492
Ni 0.8969343220953334 1.0675347533179527 12.22241332727127 -0.3174366238224726 -0.32077777238056365 2.006206599940403
Ni 4.062459349576128 1.2333812486042215 8.507434402372011 -0.3773394708256921 0.5974037899445775 0.3612790749287197
Ni 3.3437269857525456 4.443370530612812 8.041464280357607 0.9677251775812237 0.24754349837576078 0.06988824035070544
Ni 4.228507671552091 8.15483491892925 7.66985914450393 -0.05559959164217521 0.2695742529235551 -0.825060062478108
Ni 7.523576077207371 6.015527051809761 2.668492860528357 -1.1818849582902162 -0.41265048742216026 1.2334317200192564
Ni 2.4471302646654283 6.220005010291653 1.8454729765634288 -0.46651664131299647 -0.6540459639186542 1.8363636388709148
Ni 7.0138260766220455 7.067842237936658 11.658104068097243 -1.0273806844603275 -0.3964491950719495 -0.5653621881280005
Ni 8.226345784664202 4.48693757376551 0.8812927536440065 -1.4410220750408473 -0.5312845297180011 0.6581587005354472
Ni 3.2359331855747793 5.033741119790665 10.683640775337883 0.8607600869828789 0.3503472585075644 1.0288102178180023
Ni 8.871998538937481 3.211970853143773 8.232086836591968 -0.6170863559751695 0.3338675156849863 -1.1443977599780355
Ni 5.261502539110955 3.3087926205545086 9.652421065254288 -2.6968056803927425 -1.2991169780322078 1.3023059172831508
Ni 4.834703307990086 1.6274019905306094 0.22757977529956444 -0.5591046372540629 0.7020538592565007 -0.7351151605868437
Ni 5.379011542215381 7.129133334020713 2.991922882945991 -0.9503285793713311 0.2963103833668187 -0.8226535099191444
Ni 1.0784517424423392 8.058600283706717 0.3437796571031083 1.2106098370287344 -0.14758106434749424 -1.1380538200378787
Ni 6.985084121221455 4.6900302672408625 12.412486364473235 -0.1637309346344793 0.4644613014458646 -0.4077795324831041
Ni 7.68623921516073 3.7435731798587533 10.353712850906131 -0.18390766669267036 -0.39358292926774796 0.0317945188027775
Ni 3.617165454526886 7.537006726012499 0.5613029588916202 1.8031956367593784 0.35851385347875675 -2.145773535734169
Ni 4.352649433595115 4.751926843394002 3.2623954167758655 -0.28566344517593384 0.969801343383962 -0.9389200804240733
Ni 0.7428965229442834 7.946228687249062 2.9668679342085023 0.794463934858806 -1.3103467853097561 0.4132729514975076
Ni 2.4887249106233855 6.721608551765672 8.99629717536204 0.6127175374835125 0.2229994904878095 -0.3709037425026773
Ni 0.6106945368300947 5.022915870070686 11.418955953902007 -0.7855167529678472 0.8414683286328024 3.2238108660091
Ni 3.5632226847357993 1.1068267402253036 11.608262967077176 -0.1000051143407439 -0.25608264619502347 -1.203828552440843
Ni 5.1142974908001095 5.666972358707288 6.646641862666723 -0.48553046341133793 0.4138007989765196 -0.9462690645899766
Ni 8.603935999261369 0.3460309420872465 6.937080560471651 -0.7873841451938892 -0.19695678656714466 -0.1681102946490976
P 2.818408808239418 3.213668032125295 3.4526968850948045 0.3371215038459098 -0.3343313426952823 0.3793837549492305
P 0.35411134882738066 5.796517571669862 2.1970183742495566 0.48035200453419213 0.5853136915492629 -0.1438601638524813
P 2.9500089838606995 3.035078933566948 9.96837157403065 -0.16121253908799976 -1.180864744555818 0.0995950233865188
P 8.687125291177281 3.651017294752925 4.76643359541282 0.47482978916438223 -0.6301164496862502 1.38940537930582
P 2.8246654356199485 0.5226494782389393 0.1652712892206393 -1.0567871626469025 -0.007619721328786877 -1.539193735717278
P 3.0032086644760922 7.877901178847019 3.256085580540779 0.6964018031770458 0.06092408917888217 0.2747401133952107
P 5.808645520932415 5.272850703436053 10.694650421260722 -0.16640719591506178 -0.22376825033303396 0.3121612343561463
P 6.335147136762389 1.610934767439623 10.493487007460041 0.8061693962211923 0.5191103562493123 1.0785268683168394
Ni 0.5279318331446718 2.452964890785689 10.32119214943803 0.9207737485323497 0.07012992404786632 0.6862510878962891
Ni 2.4663404959481725 6.079781330656149 4.523095742618332 1.2683619562375383 0.01373071932253119 0.674476206748548
Ni 7.628764478299989 6.95115888947189 6.8532426709665835 0.46468730141374165 -0.8674902066178608 -1.289970278535933
Ni 7.285007756047983 3.190448788869982 3.134275834157771 0.008775432199784886 0.11897779878850476 0.019034133813315608
Ni 1.3056260295744264 4.56687929076543 0.5568040584995201 0.7212042069327063 -1.1053658428865543 -0.4764665534368568
Ni 0.38271477772731743 6.962727228367563 9.90793640658971 -1.0701514997689505 -0.34896734744090224 -0.9785294672855792
Ni 3.3957340541106524 1.1584576770253434 4.069747127862189 0.8789904939479766 -0.5703686402036565 1.617110759909731
Ni 1.2965071327764095 4.3860700986204435 6.48102012892125 -0.32539161700349123 0.6357821326124599 -0.38727858431627493
Ni 9.110007249729989 2.3057231467130803 1.3426327879180087 -0.5556123078300883 0.27596961492693767 -1.7042575302305683
Ni 1.4720780049297788 9.277605967640424 10.175294387639978 0.22961082515674003 0.056984902025476056 -0.024311580162171033
Ni 8.567341150843571 0.8195319518093888 4.345524034054854 0.19813100938090392 0.42079214269268816 0.0741344172215691
Ni 1.9579665864289457 2.5588872071135604 7.882045047744066 0.08353642726175935 -1.7220647336153179 1.1447674846126283
Ni 4.7753295654581285 3.5008307157988643 12.048829530617347 0.6232660024233201 -0.016431148972829768 -0.21439786486172754
Ni 6.617117370146544 1.2895716338032697 1.655601766051157 1.3469652078637384 0.07848009578477451 0.6674714932959407
Ni 4.8382536229406226 6.5358821275444905 9.200293501970796 0.09249723599947296 -0.2127266478068917 0.5608722706774469
Ni 4.182151750505431 8.101268280696232 5.159682808948148 -0.5773934082609218 -0.5095702779693612 -0.05422945076752596
Ni 3.8878333932881466 4.464644898494704 0.6235077794435658 -0.2803554026994591 0.16091814777603253 0.37472954400667075
Ni 4.543549960224829 6.745424101149627 11.802981687718292 -0.13086478003407784 -1.1976113678865374 0.06549885303375816
Ni 4.899865806940101 2.3197592755872916 2.7151918869474976 -0.8884976621074634 1.845025942531603 -0.02362663828000447
Ni 3.9987188113944154 0.0979749317241268 1.8678555564505532 1.3265907579724443 0.7770025448492489 2.1154188347017118
Ni 8.179191730799207 9.049725287094406 10.58562364348773 -0.5855849429327786 0.6926315375013362 0.22009722923934993
Ni 6.978478884104178 2.271421783405449 12.669908050632223 0.6619724178545825 0.07147949609722529 -0.4654082387401662
Ni 0.21086302102859203 5.88546809818251 4.720432705861213 -1.7155022499064523 -0.16995814649111377 -0.9649350164305962
Ni 6.461875950009679 7.939082187645787 5.104712557827708 0.27742074555116736 0.804817253068672 -0.3870410143841721
P 2.6466726431902448 0.7343234756024858 6.42327017384729 2.349231613754941 2.1747233859993 1.0245445005631129
P 2.9177258874500134 6.193584061822548 6.820534821113495 0.2999389812583415 0.5725815886945751 -0.5457477563311827
P 4.994357393478908 3.2644274445834722 7.093196257132512 2.2813064106678773 0.11789382169570664 1.2283854158446006
P 0.11289634585086183 0.9680708910603066 8.826620559941796 -0.5731863121581097 0.5284365187462448 -0.18443885660579204
P 8.790524773883972 8.054077531069472 5.319893752621718 0.643116461490344 -0.9118422503706748 -1.1635825604366024
P 6.085102216111733 8.46737272186169 0.9464616743523296 -1.2214532075011415 -1.5158961986419184 0.335708425548467
P 0.07547492539936174 0.2676671428431206 1.5495418406166759 0.6018230020581958 0.49925964007197243 2.113996243322572
P 5.957556922165224 1.047856651072735 4.061086928086206 1.4589058972998037 -0.4991303135829597 0.19362129443600848
