# total energy = -340889.6215880325 ev
CRYSTAL
PRIMVEC
9.06796836020007 0.00000000000000 0.00000000000000

0.00000000000000 9.06796836020007 0.00000000000000

0.00000000000000 0.00000000000000 13.27188829944083

PRIMCOORD
 96 1
Ni 6.279559098386344 1.9664343028373623 11.31569206288351 -0.6654423786810539 -0.7776067540921511 0.4155059545930844
Ni 4.920860042493531 0.2025829496324184 5.752182374440501 -1.9070239815009544 -0.4852797808531126 0.44836336744273747
Ni 2.8744371897710903 1.6090293935107072 4.732158338996933 -0.031387256062029814 -0.2750476173333005 1.8642030296806862
Ni 3.667032041970959 4.3311156449959824 4.916318803883117 -0.6690979731557702 -0.08823383273742869 -0.083403758338637
Ni 5.3124874648307605 4.522676478951571 2.653527875858235 0.09699975185551682 -0.031073067255720684 -0.47364399638639715
Ni 7.457823717637818 6.594163196528602 2.7464709255013684 0.6719256724125525 -0.6599975535163988 -1.2924776183388194
Ni 5.539785162531626 4.433619960595224 11.613247473502934 -2.060747668411077 0.5523490636977841 -0.4466456134206823
Ni 5.436709564918694 7.87280115878857 12.591253263441176 -0.03537323729297133 -0.5510077191785414 -1.0514912043552858
Ni 1.9400737184913792 6.368488665184094 0.5155548134498482 -0.06722329192403262 0.34304326864698337 -0.38554000435861346
Ni 2.533898701800999 1.5640250659877917 0.6648181084711962 0.6038523737833987 0.8812857177400564 -0.7165505102107788
Ni 0.5338866185113685 9.439301780169018 4.867332731404467 -0.0176868757568018 -0.34325435621652495 -0.20404454665186147
Ni 8.805088065288361 2.3287903229493314 1.012600996452986 -0.8658953513269153 -0.8777247398616754 1.6440016707633043
Ni 7.120105367862291 0.5210481887497438 4.679919586227637 0.5810520880594315 1.342406127738146 -0.7063398882263642
Ni 0.9616399204412931 7.341980420417337 2.7501606818723285 -0.4914100621205666 0.6312364222233064 -0.21230807221223433
Ni 7.790636296470387 3.829167318237275 3.8374073811871194 -1.0245321592679388 1.5078365615622353 -0.6342716095052044
Ni 7.519685398548826 3.7553721908180764 12.404941876433606 2.4853453008927846 -0.027453982445894656 0.2919857878495359
Ni 8.10340866498145 8.698203920917495 7.093718486407741 -1.2277189859051953 -0.2813617324767864 -0.05779248552843596
Ni 6.736883952297929 0.6014710943245948 0.09796126339513513 0.7854380772111118 0.9642583020785458 0.31216534812120433
Ni 1.9504021345801563 6.686783426494159 9.268609062056365 -0.5033731480197138 -0.18048449994373433 -0.0951099910319717
Ni -0.002028504547023209 4.954819584418439 1.2365154351172212 -0.4509288141770686 0.38165995257791685 0.8667661839676427
Ni 6.612362609250442 1.3679121118596251 6.855474843965204 -1.9441039170723873 1.1829853904432466 0.3965553816325106
Ni 3.32501547514005 4.166459473494653 0.3745034706760828 0.46646984723546114 -0.27048776587675993 0.2193012157006159
Ni 6.179158551472438 5.943654342305072 4.57332017606677 -0.01708472339642864 -1.2967189101136765 1.4324962969580233
Ni 5.045209094140063 2.926786571755735 9.159832432665546 0.239270202623375 -0.4858014576845375 -0.29628647210741876
P 0.06722719785545804 5.868734786795435 12.363149423343215 0.04253427381778481 -2.2188607426381464 1.1647297866671682
P 4.178383852034373 5.858252215242646 12.669066407689996 -0.6221524576441673 0.7133047495799715 0.4316987623028629
P 2.5814148565904556 8.295069246590222 1.5607206982768609 -1.2181226004660117 0.7295836892456532 -0.14832668426426712
P 6.6731814737872535 7.826182732877768 5.743476217911234 -1.2431268358198333 -1.4159880148903548 0.13308261362100307
P 4.343021887598761 1.221482556985549 12.726493852018551 1.5525048510038877 1.0601792190475872 -1.717399981149797
P 4.051876623891679 6.1053271521793535 8.035305501371667 0.6783521447641865 1.8346034616466984 0.5308261020243439
P 4.8309239311954695 1.1352824486976518 3.705537356490515 -0.22541015681183116 -0.46560544235263684 -0.06090532012580479
P 0.3490650987236277 5.465019762486001 3.6171600289726653 -0.6771650664346209 0.27787017438376016 0.7949701850712632
Ni 1.5774003194829158 1.1572904081774251 2.810043732062905 -1.3106128944869495 -0.24048479175676646 -0.8069407271695781
Ni 1.9417150207846792 6.477929976663857 5.173607900505863 -0.6820056823563737 0.5083793429850535 -1.987584099743209
Ni 5.874846597545071 5.507077000255754 9.455344829988391 -0.36187737063435094 0.4847511620431523 -1.5728659311587427
Ni 8.570254885787868 2.1280889767747015 10.292455246210572 0.3576327364253841 1.0492646290176124 -1.4213413087824682
Ni 2.4241944192355684 5.261779385139415 7.046841623395508 -0.3657713063721184 -1.2647295016912734 0.7676365302533167
Ni 0.2624705338072301 9.036294057400344 9.364073913731358 1.3808474624334799 -0.07507184143417393 -0.16653986483818414
Ni 1.6395431074165325 1.275391629547252 11.525320824018108 -0.17413104692188075 0.27729630415816114 0.12395288340559298
Ni 4.198714237346962 6.74217964588515 1.585579627044002 0.5848187541907155 0.2485500852634042 -0.2756135171390996
Ni 5.709383376849798 7.671474122789422 7.732998475273298 -0.30045397322154704 0.3232254625901078 0.9580989673453693
Ni 5.330006779917254 2.619971858530298 5.2444795148899255 0.18697807808787797 0.3886600380448339 -0.7003078230996713
Ni 0.7529823387299706 7.407224453568129 7.208029296956577 2.0085889841296503 -1.3443938475921362 -0.8070692823276423
Ni 5.104268772793447 4.495028243082667 6.917732795098407 0.09405763850805736 0.8533632802981754 0.4827289894068009
Ni 7.916508766820093 7.103737684771648 9.110528074493553 -0.2946131981700539 0.7495354497772317 0.3320484601983765
Ni 4.4348622722757876 0.5423343379392042 10.402081544247151 -0.03338500321834895 -1.2535968821132217 0.5491310709811188
Ni 8.529258600329253 7.046990338078437 4.9626905810515005 0.6371764418568252 0.31202985098460456 -0.3185218864668514
Ni 7.356262470759588 5.954354545101171 6.951589868979589 -0.7723573327677538 0.5030399330500112 -0.14289651438763132
Ni 2.377721080820307 5.044683151968728 2.8571327855373654 -0.15678664210616222 0.42886952038418397 -1.0909959473181274
Ni 2.050929633052661 5.447944777854599 11.453852537308636 0.5372669725536812 -0.7454147427406388 0.013184617011074066
Ni 1.068415249190503 3.3775552844625913 4.094961262489226 0.5112353243766099 -0.3863925821668958 -0.6814086722023233
Ni 3.565008328700695 2.701837477888928 2.794130354192672 0.43383689169178835 0.8588381873698177 -1.0933215101275107
Ni 0.9810000331274557 3.225476385230914 8.42722491229367 -0.4221304018881375 0.6969173093608836 -1.2835934284753119
Ni 3.5736682385907583 2.81669236654604 7.1517825021229795 -1.4989485150439863 0.3020817386329572 -0.3869032032547272
Ni 4.129852084776133 6.856182145505963 5.904344698982113 0.5639185137029386 0.2638319511231392 -0.1618738268210825
Ni 0.7639745301108447 7.5670383299058 11.47139724270685 0.17189984359851684 2.026410328581787 -0.5296079133465266
P 9.160915148101015 5.688264078280209 8.161746533344521 0.9806082041914789 -2.1363460717726817 0.7590652436445379
P 8.350891660499364 1.59584456735348 7.950060250163794 1.2509800133156648 0.2834885490118021 1.6494012445123207
P 1.9079912460400243 3.423067418219898 10.468255044166247 -1.6072384951013416 -0.6548823437770205 0.3234188095478365
P 4.1310853284882265 6.08660179728618 3.692677163604559 0.37240346697665544 0.49625710580022275 1.0795090297244503
P 6.860017896169311 3.6538744197191457 10.128322296490037 0.4791176179064587 0.10013984014639528 1.2567261717708227
P 5.987416358147423 7.6365987160489155 10.140612114159149 -0.11712043386479185 1.3241898618404355 0.2541949422540074
P 2.430895647935837 8.62836242775177 5.791254436989512 0.22794783563202034 -0.6468700149955053 0.3470685877562926
P 7.090453110961237 3.958231713488868 1.3318741915611017 -0.12596785695309273 0.44859168140345973 0.8201248299600198
Ni 5.476100819957893 2.86886945712973 0.3374626330646371 -0.8158485711821691 0.0417652568622442 -0.3151835661222378
Ni 1.1861718877584218 0.6021765822716595 7.221633063257176 0.7964441985136284 2.8562894097150937 -0.11147840508766607
Ni 6.577886193122672 0.7487666401876769 9.187623942436295 -0.5146680042072427 -0.3064976083124657 -0.8336370055138417
Ni 2.5409717172085897 1.562556055095446 9.239597003729381 0.31948630726264976 0.006880529169917182 -0.4989534216854632
Ni 6.348475658768 2.2390809108630525 2.500065204637841 0.35161969746208477 -1.0089397041463206 0.37075641829153566
Ni 4.000044116109897 6.710314804677107 10.731688596225124 0.0724238622883656 1.1495672199941172 -0.6299318444792699
Ni 8.282147391518661 7.550697850720571 0.3814676704620185 -0.9728000210009697 -1.860477758310299 -0.9157066184220874
Ni 7.259933441689282 3.7843352821153142 8.10694698627894 1.6669251123286972 -0.6235148852093326 -0.6796456667646295
Ni 3.1659179683116094 8.574290131757584 12.680638949053032 -1.1000444306736408 -1.4651541922023605 -0.9486151962246501
Ni 8.905071485652588 4.663148378540023 10.228285767323626 0.1898471721055569 0.48066902155397867 0.0036165137066647393
Ni 8.409280309485874 2.4668592108928955 5.801699829871567 1.3667714439563883 -0.14255250078465126 0.27163422077637733
Ni 3.8316338056614607 2.8803676411513015 11.222709114179104 -0.5256407011686625 -0.6191491520414693 1.15271630714606
Ni 1.009337434600176 3.578691893123842 12.777351553189673 0.3830354927692048 0.27849803777574617 -2.1760166508894265
Ni 3.2270995515872714 8.447891719236544 8.014548014744081 0.5567235386163961 -0.3629433500050201 -0.26335064061134644
Ni 5.691873129731775 8.104297325891634 3.682351467906323 -1.240202720194503 -0.38277375446738593 -1.8048804806609688
Ni 3.0993862836378976 8.27534641516521 3.717522490418993 0.8712180490914092 -0.0657240816706868 -0.24302607012138147
Ni 3.3578143171006354 4.614571271439426 9.387498289886345 0.34742777086792426 -0.5259947420739716 0.181561535057997
Ni 7.271685528828049 6.36167862086217 11.380975995095577 0.5621814764071738 -0.06887368304326204 -0.005140406550358889
Ni 0.8825772101371329 -0.04250247502169192 0.29749465523066526 -0.27323601804585845 0.42898599135739024 0.2996713294192516
Ni 4.602311378066268 0.37413621795299634 1.4662778066485787 0.05124825665201496 -0.4180670304520413 1.2183542568608439
Ni 6.309945860733571 5.656163469891911 0.14898218799873852 -0.13540277711374746 0.9258509059449409 2.240516373234709
Ni 7.683189938054303 8.948380103071376 10.992163270171828 -0.10369850403193108 -1.0398713607281704 1.860739496612118
Ni 9.372017454112191 4.890110561407452 6.070044593654487 -0.6842764806684216 -1.0472550547867514 -0.4263680941185689
Ni 8.101522527539425 9.038751476856058 2.172714263215518 0.0876602196221458 0.6320830864943179 1.0629058739501307
P 8.34565037472297 1.7929459300450155 3.421997397940288 1.7482069392283246 -0.7698628484806741 -0.062333310821582964
P 1.673883504017234 3.345055685461558 1.5710463939750965 0.33967435217475045 -0.2793285040968415 0.9117178089776685
P 4.579704932667392 1.1585417878264603 7.921034589884104 0.9164172713358669 -1.3888518207951952 0.5851774230817147
P 8.528496890977667 1.522892761002109 12.268573232578406 0.033889196548277115 -0.6721442161812617 1.4513453113437262
P 6.252527484373487 7.882213710061748 1.3485039389405646 1.0210984509960415 -0.5360444130004898 0.700466974385355
P 1.6522836031186676 2.9996386304539224 6.132408640018802 0.27763363289292187 0.2172844423809032 0.6065255497401877
P 6.937558094567145 4.042201101532833 5.949574818919964 -0.1586992857478428 0.7475194477884675 -1.5601646815419905
P 2.4194428037566222 8.595617993602012 10.277206550429286 -0.23006745307818444 -0.03151555410977798 -0.09629115582426644
