# total energy = -340849.68618882704 ev
CRYSTAL
PRIMVEC
9.42147209700207 0.00000000000000 0.00000000000000

0.00000000000000 9.42147209700207 0.00000000000000

0.00000000000000 0.00000000000000 13.78927675095228

PRIMCOORD
 96 1
Ni 0.4250440598201198 5.767655618356901 7.322644146506434 -0.6350419120123257 0.07216623775160474 0.2349291520458599
Ni 4.19243259463 2.8071558694249323 11.872746911994723 -0.7492495431056967 0.35497061621218867 0.8544189752561995
Ni 6.895754420306648 1.5700788999734705 0.05788364013979687 1.1153311816293825 1.0505434957300361 -2.0599678528222585
Ni 6.515795872958449 0.394360209563391 3.594161580633904 -0.999149714639092 -0.38125500383001437 -0.8348078858934914
Ni 7.491615421745734 1.478464505507605 5.288849812430182 0.5603966165926091 -0.5342405270225316 1.129776153410119
Ni 4.369801227930533 3.3719542774298388 5.832960552050869 -2.8294974863332305 0.5299390714337002 4.486199378272022
Ni 5.468307186089938 4.269509657682781 8.543974067530268 0.9393646241606597 1.3235879665903785 -0.3539470600436807
Ni 4.370488995392073 7.830882631198204 0.14316868966508567 -0.7911631526203471 2.2540002666537564 -1.0643696029798506
Ni 7.390099060128118 0.5810334886860642 8.086693498855313 0.06472237987904983 -0.25952741021051434 -1.0339069156146192
Ni 3.094030272663429 8.330051064722525 4.836312954945435 3.160785928437131 2.894974227879801 -3.032918283358164
Ni 8.482763705600476 4.096898867780568 8.476530459675075 0.7219541977248534 2.8576469521842527 -0.6515818186488779
Ni 4.97986038778797 7.945655004026585 2.9971681182512975 -1.833354933951578 2.2532916706225063 -3.7840498739779216
Ni 4.840611030506452 7.950827392196244 6.558234893924254 -0.344921973726935 -1.192432137678443 -0.6337913274346761
Ni 8.087674274098413 4.866454128410592 12.924909591160075 0.7963832633687059 0.5072478004837716 -0.4030186207593511
Ni 5.634944762696043 0.15768246739798014 1.077407513592678 -0.17160108141117542 -0.6692481255803894 1.5859297063212363
Ni 1.9225550132763256 3.3658020561642883 6.04145490264849 -1.777953060142506 1.2428116185722597 -1.6092123309982609
Ni 3.760712479696911 0.3517779822220322 7.173691615133964 0.370995016664903 2.3383483911835343 -0.6451617740551469
Ni 4.352861421138099 5.379142374363802 11.854792412659716 1.2263611863257202 -2.693789262163922 2.503538169751727
Ni 8.466002906777485 1.7164885760326594 1.9747075719523641 0.6479779033477034 -0.361223539100436 0.5438286849315989
Ni 4.9285510508627235 6.209145799832679 9.692993248224507 0.34859505170314803 1.6162761798235776 0.21758089057539945
Ni 9.430045615469918 7.383588822923684 5.464166449112589 -2.65556827100951 4.680988981984519 3.511133958275644
Ni 5.294660034259378 2.8844873122237624 4.164209632879491 2.099341469523875 -1.0854202530025627 -2.9549115276653817
Ni 0.14839854881440714 8.357590027600324 7.737301033362895 -1.1693608576812764 -0.8377911368915313 0.8609251518058334
Ni 3.5497468769737863 5.483551127908713 5.234671637257829 0.14230001845421297 0.06147481947602961 1.7520677077353117
P 4.987727316971331 2.29753902336846 8.194291420697912 0.06207362940229309 -1.9788624035994955 0.0380276441966829
P 7.9481328511825415 3.5152925535922894 0.9736224614991895 0.12111515684648175 0.7317894386477204 -3.9566482863053603
P 1.824854347849441 5.328897663783129 10.04972127187521 0.12971498270035078 -0.21491954169315244 0.5771530101153416
P 5.946484579829196 5.05328191967531 5.227224905729053 -0.6219298001103999 -3.7216741399541773 0.45945742047336996
P 4.800371923270364 0.5026590889284339 5.185733684854081 -0.044173866303736826 -0.012173916358372583 -0.8786904462090543
P 8.12370198331658 6.197698711260484 9.137795320264924 0.12363046706916771 0.3856258792042004 -0.9076994318468947
P 4.1508085309987575 6.150666722657687 7.617941345780768 0.1945669461787294 0.7652729151171466 0.09062650133932135
P 2.8397164769191763 8.511998533451935 2.326223637250687 -0.032915519781098156 -0.8234811480267623 0.5382712454484794
Ni 3.7828058317148514 4.097954072653066 10.090813022334164 -2.009184451621804 -0.6263161021035536 -1.3388433500875523
Ni 5.3322799722583705 1.484315239666727 10.396052701090175 -0.5168506136808582 0.04515757037324481 -3.403240185215442
Ni 1.6111847826405388 0.1252933306955169 6.466439607194532 -1.1040509807298726 1.2148146191387015 -1.554498998615781
Ni 0.6743607067753249 7.500198382806861 11.051967107688132 0.06441847548538583 0.5011779401406079 -0.10892709942072208
Ni 0.7113955713584049 4.4719676711213845 3.222250854732922 1.9911916145888096 -0.253156473687164 -0.469290861624024
Ni 1.3231326953925573 7.405343001946893 3.723628623459036 0.09326548162406519 1.4318514642851727 -0.9268461799786746
Ni 2.0418120068128256 9.246025422883813 8.723537903824482 0.6229340730051981 1.8564506394287767 1.441589260398227
Ni 2.9146642872828084 6.740837154962939 11.65738525040099 -2.590175090315681 2.2514085946671805 -2.445515570490356
Ni 5.675570150287242 6.885513280160167 4.536548093612717 1.5798210223203375 -0.31732992304127927 2.2336530704559725
Ni 6.556176302275675 7.738674683991558 7.940403475491489 -0.5857790612214557 -1.768318622376535 3.423530560033362
Ni 7.741378646477336 2.3943540704202118 9.448798113489751 -1.1312663648024002 -1.5228266072131644 2.3438448955217313
Ni 2.1327009479288486 7.241418809298642 6.271280408173113 0.2358634909346712 -1.754083966834392 3.9838878387476035
Ni 7.879667013607115 6.83875451424757 11.233654543788248 1.8863631107174932 -0.8796396974962012 -1.998975372299286
Ni 8.89750632785283 9.082044701403108 3.046864499157154 0.6106082044499936 -0.37665941403953196 0.6499689656358032
Ni 1.5195138593422182 1.7729326152392615 2.648064891951608 -1.1836585052508712 -0.14282118106500566 0.16371705067740838
Ni 4.597951595720064 4.448734320982263 1.643075523470188 -0.6173668633300657 -0.09034059466778635 -0.6463455099506029
Ni 4.369622219961091 8.662139112453174 9.029962803767638 0.6652783422993639 -0.7794062691947351 0.9487753759515982
Ni 8.949070044524126 2.4470766281568412 12.53760983277035 0.030865065009972648 -0.5118251354418089 0.04066456759889771
Ni 2.0858008599351137 8.432999490095675 12.869890078531347 -1.9100288297655492 -1.654904690829053 4.898068250333151
Ni 2.731331862158243 -0.045951345755693755 11.174291732532538 2.025522012439563 2.094475142570509 -4.1053539511756005
Ni 6.756495641553054 5.506633734494622 2.295597257973621 -1.2242120011932014 2.0753438210576967 -0.22690653885169954
Ni 2.5680483296111514 4.726997498743404 7.800662317367609 0.07755578419829223 1.6280821713195701 0.9557854887208443
Ni 0.34024610040115405 3.914169416868858 10.760268910746785 0.07274704995573923 -0.107981190567685 -0.5895202734314429
Ni 3.1765906324643725 6.178422379393231 3.126111327229011 0.09069335002151478 0.927182480272171 -2.258451360446575
P 7.891905505833685 4.058760748817401 3.002628803466478 2.371845494499715 -2.560446195792681 3.5527549762505397
P 7.358951673445255 7.485246506622438 3.062625679792895 -1.1782172796306418 1.4561139363769633 2.10410160991668
P -0.04489708303040269 7.081357420201502 13.376632433457468 1.6209908116904277 -1.289168094349612 -2.460117893784563
P 0.45145998322647457 0.9118317368895249 4.571503639308651 -0.11945782374871686 0.6816788951445744 -0.03258718990740195
P 2.4791473191031397 2.1141877552997426 10.140330395270578 0.001989262515886897 -0.022072406419007148 -0.05574177364699433
P 7.75799812321919 8.344513024359001 6.5316079295434 1.1374460112505507 1.2912961964362082 -1.8669286561419653
P 4.624557832862351 8.081974283492505 11.176787480485439 0.7364462206934413 0.23830423916567992 0.11943802625437495
P 1.1837891233902793 5.759534309427492 5.068028407768479 1.2138851653458964 -3.6635373837124456 0.5941384889297445
Ni 6.338446082602068 2.5857701185858835 2.1596765067765107 -1.1187363506561896 0.1694992045768242 -0.09602324687486044
Ni 9.056832842128049 0.29614701605557847 9.923066538464727 -0.6057326215252471 -0.2588473534243542 0.08626205372303852
Ni 5.1122697563424 0.6216588762772625 12.461327941960775 -0.29412160324561604 -1.1497322848170715 1.1443195984419325
Ni 8.26293249765395 7.505502671585582 1.2280926536799015 -1.6959490103648724 0.5839687474855942 0.12235005769484734
Ni 2.058553962691666 7.089488150602986 8.80868634200467 0.6681548925162106 -1.5997887236915158 0.0248535687085701
Ni 6.671099418657269 8.775762065688296 10.3652887683208 -0.12630441435690506 0.35768852936398393 0.31884121747948313
Ni 7.234070061079454 5.631392867723436 6.760689138774028 0.6511948676231043 0.3770543354851055 0.7199294539853408
Ni 2.9082765292153616 6.113395379125501 0.11624212247221814 -0.14409027758541634 -0.20380106318248772 2.010693689177479
Ni 2.12940343270229 4.5865704574523996 12.515381753701725 -0.8372535192205065 -1.5859322774243978 -1.1447458873460736
Ni 6.130203285308872 6.661527203028174 12.37135288363611 -1.6987034331815585 0.5609352627048985 2.0279532475888753
Ni 6.438238314829798 3.145735311415863 6.771569054727256 1.4862243826090984 -0.05826788250295771 -0.43805375798661333
Ni 3.8040418297738867 1.9408515120476864 2.434289806255456 1.4624468205735266 2.258532607306471 1.225185420850064
Ni 2.881755085321757 2.521657001109514 7.825828011429494 1.2021948734921617 -1.5201230922390725 1.4677929153767884
Ni 0.7718060503089531 1.7211616261822962 8.271690698095687 -1.0188425650823292 0.6797888772107131 0.3630575069853812
Ni 2.5784967421433036 1.6028467798533843 4.7347410066425715 1.4994269973423016 -0.567554567793629 0.3151527128843024
Ni 1.9223948482510358 1.5356999483685814 12.835113540804855 0.9422198342212676 1.9056106460931952 -0.24046062338705043
Ni 7.794459220152849 8.55359433266695 12.936547935615412 -0.10422609440062695 1.4317851298236115 -0.8267544194613954
Ni 8.66996835574823 5.984575591431983 4.098297014236628 -3.1805687674910126 -1.7137197040847323 -2.379153598125354
Ni 9.067450841157568 3.133374340052307 4.82594368277872 0.06929148730697099 -0.3098500697244663 0.5123318998748982
Ni 3.302470920870217 0.5736611867866873 0.8096125334550478 -1.2893992365238116 -2.191760543987245 -1.0829993022658961
Ni 5.944741607495159 4.089248632454952 13.443799992180839 -0.6280721655627118 -0.7049214106122828 0.9494934850645455
Ni 1.038302751594527 6.92742940942576 1.625369750997985 1.9469784104067054 3.0327208226353766 -0.4090951659707342
Ni 0.6346435490922415 5.107003153451983 0.8192912117186002 -0.6878521138348218 -3.707414801821686 -2.362089957774848
Ni 0.5723450071376868 0.3769022218067838 0.7405748125246155 -0.15950712636111883 -1.0497184287255792 -0.5304401794398348
P 0.5683437079470602 0.2995387460028956 11.811329277679262 -0.8051833781588391 -0.5666420832816886 0.38725955815288143
P 7.156163908483996 1.439403082281003 11.420016914332418 0.9991954802753631 -0.897052750766326 0.9325092918017229
P 6.133246420789382 4.4825102983742955 11.315728755630078 1.4398668783904816 -0.18555060161273207 -0.9421151903226033
P 0.9721451746776915 2.5937595269062306 0.7046648717073957 -0.2736720771420125 0.7071310166690917 0.3885337968796147
P 3.4395627610463593 4.129789226797468 3.428069507260992 -0.17543999554129142 -2.3282457555318934 0.39403544342413427
P 5.526268082300757 6.3871927791226755 0.8120357360729644 0.2927411779583216 -2.032334407375706 -0.11478150131897007
P 4.073561881448611 2.3953715894044074 0.11021143819644681 1.155719612748758 0.8945760070910593 1.1212655448359465
P 8.495143519908185 2.4323131814139356 7.1875779228266055 -0.10121301860591603 -0.8554561582714623 -1.4901167756849691
