# total energy = -381165.3963049679 ev
CRYSTAL
PRIMVEC
9.26872037179981 0.00000000000000 0.00000000000000
0.00000000000000 9.26872037179981 0.00000000000000
0.00000000000000 0.00000000000000 13.56570916075142
PRIMCOORD
 96 1
Ni 0.934379694662271 1.9806977245337103 11.725032223851253 -1.240597127419444 0.83840820165024 0.13334666591566713
Ni 0.8476717430146559 4.256242710915466 1.443770952446405 0.7632072908373694 -0.6918990302106859 -0.06725234538975515
Ni 4.539170398442159 3.806301952085139 4.494712981465196 1.0875984916008044 1.6646872241371136 -1.8149725747896486
Ni 2.6568230651400855 7.77924622666143 8.03008560446765 0.12226546840084103 1.4117019859204913 1.8159385382473434
Ni 7.936666172442047 7.1954095342025814 10.873553817404417 0.3944499052537336 0.31239520474382326 0.14179659645523324
Ni 1.3644668545840914 3.117932631946487 9.457442580113366 -1.3790332920428767 -0.21485500700380417 -0.3680271922858307
Ni 9.117788470532593 0.03691731300307337 3.300211285604142 -0.26852267173058914 -1.7531241740242838 0.9766931854077889
Ni 9.055326564349386 4.944713986977551 10.930773335379104 0.9683715529159709 0.03291834799457556 -0.4435942281888683
Ni 3.5700793462110925 6.976491629151217 10.333326454013976 0.4836088209085929 -1.1979931767059884 -1.188404761686605
Ni 4.908528902879135 0.3397690417126442 2.5675143105728964 0.9171757467684463 -1.714976716420285 -2.4484288874824087
Ni 5.3096049682240976 3.1869753295512804 12.027235142138977 -0.05755928647170733 -2.330370258074064 1.8111346891007971
Ni 2.575953480417059 4.464306944481369 10.678600188719974 1.3628919063963238 0.4673620200324274 1.372975258774255
Ni 7.587253954116699 6.2489619656939634 4.12805908961529 -1.0478880603850598 0.6278765046121381 -0.234953320415576
Ni 8.24645461143319 4.0937713125647575 3.3085948431264316 0.5400951860310957 -0.17195357965458774 1.2199707094183443
Ni 2.7700312150320108 0.038711737255494906 6.299589569782687 -1.491028488865961 -0.44726396373097166 -0.2512731406215221
Ni 7.589154041780678 8.749523675092444 12.782329979804398 -0.008427819052379033 -0.1683504356843617 1.2803450967413432
Ni 8.581843255926337 1.6710575850675613 4.997023863802921 -0.40864676557940594 1.63223630269726 0.024133916933726178
Ni 1.105192941293865 9.22706668301219 13.141034090242622 0.6049998571242806 -1.4944830230734647 -4.041957489196826
Ni 6.765266761958889 1.4741714281980447 0.648823398055069 -1.6883837964231052 -1.4655843377612439 1.3191073051112057
Ni 3.9137356892226296 6.847350549042801 6.464291022240486 3.4923479359173917 0.910169233543626 0.9646704499152998
Ni 5.714119728804849 7.390682933737794 2.9425378568646248 -1.0734126870187255 0.4274636411755928 1.2232226406967386
Ni 7.000868363572026 4.084066962397994 5.586141873095601 -1.7571569493327608 -1.1840467418282252 -2.702624601067365
Ni 1.4517040501615273 1.3181974027861145 1.1223280245348346 1.006205593044609 1.6964699158653493 2.130151512926196
Ni 4.972640641277893 5.170564894822364 11.409032815378975 0.7091683588140948 2.3365853857458405 0.08725424243297876
P 0.8852619651123874 7.8083500084414075 4.5578070143736875 -0.4898244628010016 -2.0537529822607983 0.004344650121940905
Ni 6.848824275572423 5.652547619771603 9.402555999041235 0.21257032473468548 -0.30926694352748674 0.4640648373383943
P 6.330563779321646 2.0737556764671417 5.526249256182906 0.19632120986567478 -0.9656235578571886 -0.3469343761712735
Ni 3.2002481370382005 8.834008060737188 11.478977359470136 -0.05383658620448148 0.5835229181974273 1.4902214195836336
P 8.861971789918776 9.201466477510182 11.129253712142301 0.8079267452319312 0.26294183520870196 0.0899796117839418
P 6.981978711575976 8.697952515275949 1.610344686407247 0.4307425690371807 1.333834326908735 0.42537770518084156
P 3.1132704656295034 7.879329868591429 2.3561198257988583 0.22155453051116686 -0.020492720636713094 0.7741771595853119
Ni 2.1576005204103503 0.07253237080229742 3.906938009745739 1.5756265246230154 -0.40971505894292015 -0.8167661979004321
Ni 5.201911706917869 2.5726445472656407 8.643364386997867 -1.7976559378880719 -2.4766400598093026 -0.18286251325760766
Ni 1.0600079297724032 4.676773820195518 7.336565656451566 -1.6062406499644466 1.090028955419168 0.029332430415530127
Ni 7.44394100065109 4.5195485175414545 1.186829976058733 0.29693567565564344 -1.6809923890550404 -0.5433828556434319
Ni 1.2166863779280528 5.636077103777011 3.805982181234372 -1.121863069210629 0.3903045156267923 0.07756426883872448
Ni 3.2646564744869466 5.632174972525619 2.4775465499915175 -0.4447337411099502 -0.3622257551127052 -0.6594313966002836
Ni 6.891933093743976 3.6967549467164913 7.746847414810502 0.556973449843673 0.17474065548142162 0.5138359952242505
Ni 6.425836955409667 8.189303681988815 6.015672909798695 -0.7909404950865797 -2.1079605786514533 -0.6787192982956182
Ni 7.39048829061124 1.7615666389151663 12.014646366211089 0.2461594735440406 -0.30283044387352365 -1.7663897807849385
Ni 4.739254263819348 4.762027509626164 9.129247389454434 -1.4758726070611292 0.632615047738388 -0.61772321822822
Ni 6.327301189771789 6.021887586767955 7.06696082750148 -0.4918906013014109 -0.24228507819029885 -0.5527236734283836
Ni 6.36310625633741 0.5306064317064877 9.676379949477386 0.5415049218944287 0.6426652328855383 1.108584092713536
Ni 5.403784435315292 7.75929067182949 12.60924496982431 1.6225401584554187 0.09261113586951793 -0.8751754910772604
Ni 3.8851138808988805 1.7997259604400606 3.631526327520125 -1.2257785743493728 1.6666376629952648 0.775865088810696
Ni 4.227528215388597 2.189837129655816 6.102968498314097 -0.24272190861740134 -2.2572295722243316 0.09312869893588477
Ni 3.68002490655316 8.697099793007236 0.5320569864353306 -0.35063419362036385 1.1694050806556504 -1.0736016631010803
Ni 1.4650232012500073 6.573849150073508 11.860051526381598 -0.34633196670058414 0.0472357930585122 -0.7972474111412141
Ni 8.390620287167511 5.565069437466053 6.1191655870594825 2.7662935999812355 1.4507418734317725 0.47702319727127523
Ni 5.239088544089681 0.7596049969692877 12.021279989338455 -0.08707272254979197 0.12858215464748823 0.27335608856349053
Ni 8.720123294262478 1.710282809428346 9.914932711637896 -0.8163404232169231 0.3114035302545153 -0.9528001808402752
Ni 8.932219421164143 6.177546475689274 2.1983096668931017 -0.120157935139535 0.945265820136443 -0.22398293744700137
Ni 1.4631231135860276 8.287765297864196 10.081370195410148 -0.5737763803336247 0.9912898522750412 0.7910333119107023
Ni 1.4050731182713785 6.140082308187787 9.255218567216115 0.27745159878910275 -0.8915529039940194 0.696838119383516
Ni 8.679989735311109 1.9488225953804166 2.4739780926713615 -1.087631658831585 1.3838433118370104 -0.7615373593341143
Ni 6.641677645317418 7.9534610936475625 8.31903517958111 -0.6968928838808515 -0.6623596259906721 0.6644543037361718
P 1.0090577742168185 4.139614403228379 12.791134337228856 -0.49192222587029477 -0.025544424128007618 -0.7961762895642224
Ni 3.1402146355767626 6.949510384322709 4.569052752728352 -1.3351427613075135 1.1275061264290194 -3.613128335132274
P 5.7696857070758565 7.320583602017421 10.316925453421725 -0.4253710203126223 0.49699604084877635 0.37517743017736677
Ni 4.056103233216405 0.24735711958496603 9.267794366935565 0.523852241809672 -0.248041778168418 1.6288100506245304
P 8.526434845900637 3.8904248576377114 9.105521319199536 1.1875159313237484 0.08928772792323977 -0.5654848297487939
P 4.8834106708333564 5.343982651861657 0.35355348256079155 0.7252786341123961 -0.020063860629410606 -0.058704712930060195
P 0.6232139238327512 0.5459962149126899 7.008696724747621 -0.06692118730258152 -0.03853209463692719 0.12222767318437014
Ni 8.79052849375315 8.79437501268267 8.819108592835496 0.20316497226038557 1.1759629363788264 -0.4742422920920285
Ni 2.5401206076905005 4.6126250069155095 5.437977671418641 0.198181145892549 -0.1598835358639311 0.30967806292297634
Ni 9.181130905145448 2.579086307882547 7.227389399895403 -0.24603580348198273 0.11269530821390268 0.7507076157084619
Ni 4.599361468148902 9.021634766014921 4.980379095866461 -1.0054723144230104 -0.12327462639164577 -2.146214994146962
Ni 2.130443169895913 1.0074357481622018 8.502063672712014 -1.4632677738129252 0.6751215536420309 -0.20625749514278027
Ni 6.723112621979482 3.4021857464778087 10.254631311076166 0.5534032159939115 -0.30029739303902475 -0.33433931311508225
Ni 8.49884186553153 8.698684744180603 5.752973277481119 -0.127152107069181 0.8766975841487418 -1.3999936963446278
Ni 8.689397486427886 6.590477234313407 8.226666820438899 -2.374786836516226 -2.033911779165155 1.697102921463658
Ni 0.6463885052290816 7.494474063792631 6.828543388657529 3.4530792202247564 -0.059987436297225714 -1.0633511890176655
Ni 2.851772059464374 3.4112042113414764 7.674949024477553 -0.2612796170149307 -1.8488987952234481 1.2443442531667022
Ni 0.019302110049937305 8.386792305678616 1.233399734394822 -2.5091388037679563 -0.00480127804338528 0.7243604931735009
Ni 6.820165392367426 6.678724720404861 1.0059434841919546 -0.13756841730649857 0.16317917589606737 -1.5457852728918668
Ni 6.674099628969126 0.3228712377116643 4.087985777345948 1.1497124873227296 0.7780726379849762 -0.5565386762990996
Ni 4.8416087422258105 0.08760331002976346 7.150715764857661 0.15050517997282467 0.14405916723716483 1.9804150927985955
Ni 5.518253131169662 5.078035259946723 2.441203897647794 0.6926307661703878 -0.7390800587718626 0.606204418955343
Ni 8.689119424818523 2.2640332357541344 0.2204796844239537 2.8808606712965545 1.7553540917960673 -0.5259173518688168
Ni 6.135475754192675 2.6676674679052366 2.727345050506689 0.30988786494093723 -0.1648568207088064 0.22167074437405695
Ni 2.9841293855210873 1.711237487620492 12.433135576406384 0.8299539002352997 -0.5001474419935644 0.16271200645166173
Ni 4.5160634787041065 1.9812075041508754 0.6403045172162226 -0.8736063468179278 0.45783608281986315 1.1265738444227371
Ni 3.5980152692317464 6.569984093703365 12.719141405948722 -1.5765742332482655 -0.6934082677663607 0.9160182361252354
Ni 7.045849463246622 0.8325590945457855 7.32420767165945 0.8168219908390318 1.425641735930035 -0.22340701033887328
Ni 3.233995547694537 3.9375192255434643 13.154315239577821 -0.31190129582654025 1.0249057405572737 0.7224897585133493
Ni 4.589017576280604 4.264519678154167 6.727493019198978 2.285673686497638 2.4771681643986305 0.21759863118721234
Ni 7.5968563483600295 4.10285465847061 12.433066987876076 -0.6906795559812879 -0.15690105619683947 0.6615029344173318
Ni 8.995015001278587 5.943817155579181 13.396856332088623 -0.381532168750801 -0.15574097445046728 -0.6178900828233874
P 4.014060317880743 2.3266434414623345 10.512230366605998 -0.37813497014379394 -0.5073195342619714 -0.40828398292334844
Ni 1.7334268040476466 1.9449019266884005 5.4933119316818475 0.24187061636069956 0.6857306966164447 3.3688583653014628
P 0.4415173458106955 4.006089218412342 5.132477869315904 -0.37835017147839356 -0.8593554933258685 0.3628399916579364
Ni 1.6792789399843893 7.04137267133588 0.6464904611525146 1.4176602603864552 -0.5500885497983817 0.8852033076269079
P 3.0035751607358616 5.689381514291868 7.809250001183711 -0.37774621934580754 -2.5681726179026607 1.6196245274705205
P 3.0179602146602327 3.4096563350493567 2.2583515102028207 0.5566888287237187 -0.45687346179627764 -0.5731469742797419
P 5.3418508461898755 6.078630692518598 4.894236536157884 0.7742702335197504 -0.6954188704384863 -0.3268694871005983
Ni 1.5682304019251823 2.355839910445433 3.476456929210655 -1.5025601436546443 1.3662698217296212 -3.1075435241732223
