# total energy = -381170.8410816508 ev
CRYSTAL
PRIMVEC
9.26124690916397 0.00000000000000 0.00000000000000

0.00000000000000 9.26124690916397 0.00000000000000

0.00000000000000 0.00000000000000 13.55477099274106

PRIMCOORD
 96 1
Ni 7.0272858481709495 4.817728339126909 0.06714866950563464 -0.29297514834599864 0.6075264802008763 0.36439062397450794
Ni 8.716268677825745 7.433197031642774 4.197682312976444 -1.3794865775302112 -1.6611303600237906 -0.27571970369966065
Ni 7.500072494369508 7.348419578963017 10.050008604936282 1.1516248738540942 1.5072071555083524 -0.8188302795183124
Ni 4.083728228559489 2.3989407436789927 3.1627481768867662 1.3040714938240057 -0.807932401658886 -0.780599518171888
Ni 9.249475697771597 3.9145715568098973 13.064467551233392 0.42184603787849934 -0.13616613764233323 0.3205402024484609
Ni 4.166190369553651 7.298149531645372 7.597136843102382 0.38606913738920606 0.3474974477635951 -0.8405329613027267
Ni 9.282454997421217 6.358614572124288 8.627421833327386 0.27751639058876726 -0.04444511768725249 -0.24523541906787444
Ni 2.193313282257904 5.072245922101028 0.5843800388208803 -0.31040979888267833 -0.906944298848425 -0.4431702532775723
Ni 3.157196059464708 6.736816105342906 12.576766593280901 -0.07380428757565999 -0.6947164450548229 -0.765181898065237
Ni 6.537347373005502 7.323025240395407 0.5328634276917108 1.0023299121392866 -0.7133191477576748 0.7363662593851253
Ni 0.5378570919352027 9.198075778351383 4.909700854400822 0.2857596044341659 -0.6369352723802966 -0.7698340521252678
Ni 6.075896492819617 2.939112221175117 8.625062993782102 1.9434688545915493 -0.7757355052113672 -1.2821507824915144
Ni 4.55582028125237 5.0600210764010844 0.3800769356839518 0.5239198618228138 0.9745717681894118 -0.15819252131475334
Ni 8.309348018459001 1.4810863627818232 3.151877325460559 -0.19976365988832046 -0.6419687210391459 -0.3375012557828317
Ni 0.09508614642870165 0.875712929845313 1.1408253790927163 1.295842421045994 2.230610941195539 0.42815835324977236
Ni 9.058295781268624 3.6018840830468823 4.926969375076666 0.5094028991535613 -0.44320470605993345 -0.9194182629457199
Ni 6.953445927893944 3.3132295445803464 6.045170454502419 -1.8730059726842967 -2.259455633341373 0.16131049811844478
Ni 3.9813451458224662 8.804102341930488 3.239346096443652 0.253888209646866 -0.9150437880271081 -1.065079998783314
Ni 0.14385957627277782 5.240782090318881 1.6927604922010127 -1.9862121590963473 1.2607710312641578 -0.3709312533065031
Ni 0.8978593491803691 5.614362261413052 5.545242798600638 -0.7032373380416406 0.8120407674003047 -0.5252642916658502
Ni 2.4526189297978345 3.3819665179022995 4.923174116161638 0.05479175102889919 0.9612190010315896 -0.4101351771994743
Ni 2.7547578435212774 0.7638139160804926 1.2748059834653962 0.884652063109128 0.5810086364160058 0.12722615484022606
Ni 1.1031626669654748 3.820625469855183 7.201162051260459 0.5384306538444792 -0.25353699695503434 0.150279951335896
Ni 3.5413155293517096 2.234470262781046 11.864518372937313 -1.2088954254407889 2.303890466615981 -0.9434459933188848
P 4.99722982348774 9.078892794023679 6.4741652954796285 -0.5601960705460288 -0.8723331365324588 -1.4348701965068387
Ni 3.0895611745050986 0.6976793530931488 7.278085040578002 0.41184778901520686 0.24075861424344344 -0.2877100432923174
P 5.354491677821836 3.5753876561169298 12.539355787065052 0.18007749431330278 -0.11361627736627532 0.7572796124990249
Ni 4.838982900400674 1.965088378785405 6.043069077616573 -0.15557282430371916 1.4130885818553727 1.3454863093253666
P 3.2308414935601233 6.649056531212103 1.533383697011375 -0.26825322011928643 0.5777767597422695 -0.030189121988870592
P 8.894084615279462 3.9513294451304084 8.968649691176397 0.6817236323395808 -0.998581500840448 0.7556181656362019
P 8.244963831105967 1.492505480015179 5.226543849577143 -0.99031566128723 0.19916716395490214 1.5467021282791815
Ni 3.7037392747195903 3.7738561738061582 6.8651658716962185 -1.008653283254153 -0.029391822898555835 1.5187994883316422
Ni 4.062232874870423 2.011403873744053 8.979628899189489 -1.3405081393844849 0.11636221554252864 0.32868931391815653
Ni 4.540279909218654 4.401287118108997 9.262950811781762 -0.37326761474916365 0.9159773555849708 1.4400489124943006
Ni 2.3447439277425786 4.000849331461921 9.293313809226659 -1.2949708170743182 0.06404129465162518 0.19083036195443265
Ni 3.4827288824594063 0.10811764671990619 12.216318870067427 -0.518693580426868 -1.4668310656841512 0.44380968663378406
Ni 5.713577997764181 2.182764722218332 10.976368514841656 0.9859715253859211 -0.1757683254149876 -1.677318796858195
Ni 5.363289862227099 7.198785615346364 9.590352554369073 -1.375987049017385 -1.3633513625312454 -0.21518693642192618
Ni 5.446650344155271 1.356050270512935 13.088147633028985 -0.3782596686471163 -0.5265629558726157 1.5277538693114527
Ni 7.875551221045868 2.9853999323935376 1.2289748517113745 0.4785015815890146 -0.3820774997313098 1.5233274581089828
Ni 7.8415068780208745 1.7261111678450014 12.85016693223806 0.39340166649487734 0.7413428866641103 -2.3949869656131852
Ni 1.1185363365578274 3.1464993194772584 1.7709578290703079 0.05848385516850573 0.013338368980118965 -0.7616016369131464
Ni 6.5948134090419765 2.942205477587072 3.7618693421474947 0.24870589411497815 -0.26615648549125775 1.1050483116461356
Ni 5.0867212507593695 6.569206061799292 2.4733391171345636 1.0017156755940555 -0.7064422181321833 0.7769896893334425
Ni 3.65799797705897 2.8193457783026434 0.7278830570940764 2.1997798147472953 0.9001442452074562 0.9001532440685207
Ni 5.795169581564559 0.7186375544711574 4.540373447810752 1.0493348201339154 -1.205550677338272 -1.1640240188493953
Ni 6.698289318894601 8.365360038756922 2.895434329288699 -0.6553479705595294 -0.20739032319564285 0.8058076420063994
Ni 6.972950113533399 6.978219762929814 7.601746165606065 0.06409657336959283 -0.41824289390827324 0.6921036900223241
Ni 7.68572344656728 6.601611164150884 12.094637201368629 0.2672995979567655 -0.5203385722294587 1.167538459760557
Ni 8.675630327120176 8.756694019856239 12.924270798047225 -0.8252184424328434 -1.1719540723297492 -1.6481689147671164
Ni 1.2690223348747791 0.8755378922818821 12.817066310256116 0.8988898039750648 -0.42095232241963626 -0.7208067143839716
Ni 1.6434730631627343 6.970394009432502 3.26904506249712 0.8890807883044429 -0.38284111737021165 -0.05721450153777888
Ni 5.798688855326664 3.8344339887480734 1.9738458137050006 -0.5440014630640373 1.1255693144176229 -0.5472935035517478
Ni 1.461063547324795 1.7445225263688553 3.3920677597242146 -0.5512100649973346 -0.6572331033973842 0.30938110050784784
Ni 7.130502443114787 0.5916065896539603 1.0723356810587847 0.40490452492815426 -0.3959408879769633 -0.02972555208889074
Ni 5.915639879189453 0.328080591973527 8.226796969496112 0.4460591447895931 0.42853939073827485 0.9973640834935792
P 7.208324699491016 0.16612083506743944 11.045145311524601 0.2434562156802646 0.3397669118885568 0.4085842877725866
Ni 8.201611935104882 4.718318116594189 7.103255855198702 -0.14556454813809772 1.6679412122980368 0.22941413576490166
P 1.890201937626511 2.8771915254555562 13.312709713414872 -1.1630248881609195 0.22912977175526344 -1.7572721347543865
Ni 2.53342330762511 8.22478357445432 5.7670533625793645 0.049227883787876514 -1.2586997505574258 0.08897122512408548
P 1.2251795927963465 4.671215415662439 3.4153959141435983 0.32499720977854996 -0.09905380617106811 1.7124470080198961
P 0.32381115722528925 7.577737309551116 6.627009207217189 0.18393877704092193 0.1950415718223028 -0.12320700637850396
P 7.335815022146635 5.773822407823371 2.1647784549199534 -1.0461777625621724 0.6364575614129296 0.2015858006987238
Ni 1.6419727411904685 8.108360441655845 0.6056994288218417 0.6452273371857598 -1.0005360534636574 -0.5294716448789785
Ni 3.1109546544799995 1.05678234327963 4.669700275695385 -0.07949285332000504 -0.8964151171823271 2.5343500129262613
Ni 8.189220386963575 8.998440343572614 8.329813521510316 1.3564587491764704 0.16005245734162757 0.19706117335549286
Ni 1.2594276832496722 1.6995684346813371 8.563484038067333 0.5040812298303319 -0.1522548156740797 0.5759654175651435
Ni 7.45760967805569 8.713156898920305 6.145529954826233 0.5802905273030587 1.1568280153215882 -1.2337209691249011
Ni 5.593978257333071 8.020767569966404 12.046572256900346 1.186079455987538 0.552294813421081 -2.2332607201135604
Ni 2.2677737060666487 5.841188716627451 7.487642048991884 0.26898572740993676 0.38484503517411783 0.8599998117780866
Ni 4.388969659941631 8.213345934727478 0.28228094845842944 -0.35441525792935086 0.19900261335257985 4.223926801216202
Ni 1.843117759188245 8.175986065368711 11.082624650966343 0.2719435244866801 -2.737702418607104 0.7127527337312435
Ni 7.24820362796371 5.270547737348894 4.981825591781138 0.3442419169407749 1.583007647578435 -1.231457627012021
Ni 4.521396227110938 9.226933823200643 10.180527355276661 -0.16006505574711788 0.6648091159724292 -0.5124905369399496
Ni 5.452873901966151 5.148817910167036 7.355008029895547 1.0571633150393986 0.669177420243454 -1.2772302052614455
Ni 5.077441481523504 4.42385677642018 4.92698326694678 -0.0997426047079766 -0.8005857314858277 -0.6510771110983175
Ni 8.630389136783645 8.098469430134982 1.6074736709504245 0.4334589395270793 -2.767527472388337 1.2185578882312176
Ni 5.5951173906823835 5.586791529860983 11.6625657742236 -0.7013779162353985 -0.09281605279147241 -0.69921741824897
Ni 8.447062757518209 2.179495502118271 7.568427904325675 -0.8880484903851867 -0.4925421188424807 0.04355320200060241
Ni 0.16644127420472582 9.396831394689624 10.313120624887333 -1.668061025705353 0.28276426925126785 -0.021778529327672172
Ni 7.014625723874114 5.034867530248778 9.308440203530992 -0.2838361621592079 0.6570762661045458 0.12927789516293217
Ni 0.5502171518375846 6.429963217027591 13.034904725507035 -0.04121169835161935 -0.13270131902218435 -0.6370807968192254
Ni 7.579876657548607 4.028883125351109 11.42455728969245 -0.7120436234793609 0.8927780346503721 0.44655871013383097
Ni 3.3055056647972005 5.713096412933578 5.396709997221655 -0.01778843433167259 1.042177640263844 -0.26744075152032004
Ni 1.6505023494402018 4.693312750389761 11.60156935092893 0.7486967559260203 0.60478671267221 -0.6057513905783246
Ni 5.752104784212487 7.158915948120414 5.553010206243474 -1.0975620305714195 -0.09981459559649261 -0.8953460524878645
Ni 1.0720726616513012 1.7703799272735834 6.010212026423953 0.8446793793709324 0.43571945342648183 1.1258169116520547
Ni 8.031936633537716 2.229691459461977 10.270937498225134 0.494913961508767 -1.4286404135470427 -1.8622813871779411
P 3.656840321216172 6.0495019396038305 10.543090347246096 -0.1474879904130557 -0.24497136677321038 -0.1263506942138082
Ni 1.0323048681395164 2.280980243921284 11.09504027834918 0.16545511641443764 1.702247441779075 -0.7442019533794603
P 2.3982739339135417 0.7579821090068152 10.241320957267673 0.6573333764206745 1.0369418457862012 -1.0073001116603684
Ni 3.420595178064771 4.591522387444249 2.9793653040162025 -0.2859274974705979 1.3461974764597784 -0.6430750667294474
P 5.278410535833174 0.6298120108403054 1.7648722638358894 -3.2010468328397064 0.2856361914824242 1.3630068347076334
P 0.2584174939773359 6.546710493462048 10.801823649737347 0.5251807308131085 0.23552616219991052 0.46173773186711453
P 1.3189126710759864 9.001635473698736 2.5242639345968954 -0.38746293241293916 -0.06030265354479937 1.9098375396903495
Ni 1.9471771275856398 8.160510522062193 8.36398474361568 -1.0307141197089347 0.15399956627932834 0.11492368332378917
