# total energy = -340870.65499605855 ev
CRYSTAL
PRIMVEC
9.18847867809598 0.00000000000000 0.00000000000000

0.00000000000000 9.18847867809598 0.00000000000000

0.00000000000000 0.00000000000000 13.44826733105207

PRIMCOORD
 96 1
Ni 2.3143388402844356 0.6374470223571969 4.523204054415553 0.09374910612870306 0.19837963505660025 0.6114101315259987
Ni 7.353493422050042 2.4560894985066737 6.020466630244534 -0.07598998237306913 -0.25261448514076495 0.7441603015082474
Ni 6.670550567118684 4.192711939940717 1.809316170445479 1.055966209407504 0.7360692969699969 0.9838596212492411
Ni 1.1437358645370508 6.299519804234522 1.708669252061924 1.4896110396931443 -0.0579053569572164 -0.47202214451225805
Ni 8.177801019105543 4.667287667335569 4.812461952656634 1.3135876608445571 0.03814231539767625 -0.5220275298961075
Ni 2.4637894435115504 7.040616539757606 4.017844167414688 0.4132459549143141 -0.03623944194800855 -0.3499433382009264
Ni 5.820653057367978 6.061262556052592 0.6999902391408428 -0.2161248748551633 0.05024321242626831 1.059339239644795
Ni 3.844790200549711 2.470763498712865 5.334120362867105 1.097288979415691 -2.8946237865189177 1.9857069373251544
Ni 8.979238493109564 6.501041515269079 6.8389413811316615 -0.21254358526180817 1.9913170844230799 -4.316231461588895
Ni 6.3585374018077 7.112433687917649 9.422542152688665 0.37876334775641224 0.09466776128823051 1.1313756366867547
Ni 2.4305822821182033 4.300152819346476 2.4204859819137177 -0.2884006416014388 0.06093977290816601 -0.06812214958921817
Ni 2.952616501100392 4.410148095782491 4.931506042745158 0.6859831789468831 3.523337956541003 -0.030567588374211873
Ni 8.49541915631745 2.9338352509930314 13.45001492675086 -1.387251566187611 1.5166006809081107 0.5949676696992593
Ni 8.586991533308623 8.242193876616493 11.880320493548439 0.0332343365730976 0.16478971491629685 -0.3774551704679499
Ni 4.566251157462506 5.435545545381822 2.899661461658738 -0.5701439257873601 0.9721898982207967 -0.6069086441112193
Ni 7.558185158176107 0.1700594417133182 9.741010224164238 0.6033818619048834 -0.1613935447505543 0.45694005336815496
Ni 5.0809162166667585 3.772302293457261 6.857285259661179 -0.06848441802464333 0.3030785553285877 0.3242647024878996
Ni 5.145336639613288 7.659552453276109 3.6199371048416653 0.8053417581135743 0.8319040819831351 -0.7723449914725795
Ni 5.209683554731609 4.732121571815773 11.373549256245962 -0.34442857903028423 -0.2816810634894181 0.9125336200107446
Ni 6.969745804885749 6.506425963685378 5.266623637310035 -1.7787855833461301 1.4622213348262818 -0.29620702501973506
Ni 1.9933485314534467 3.06536832109424 8.988727434883474 -0.6173519509317303 0.8177177631804239 0.2716229079224677
Ni 2.532372247230406 8.445194932693754 1.694831403401608 -0.874918380761132 -0.38383433452141635 1.3726142758904103
Ni 4.319172969895515 8.540323250874529 5.697291301220036 0.21726644465877423 -0.16059727410150407 -0.6913249028747708
Ni 9.054381870496059 1.3533710021101604 4.762367286580156 -0.9863319940491335 -0.804611307705453 0.5936425231299324
P 6.0180675185013675 0.5287960203295506 2.0686122779086342 -1.8160490956832789 0.12175407598206127 -0.05622385548973543
P 3.3238769759477074 8.706294738491584 10.073586285568794 -0.29311115970323065 -1.9230141862816235 0.24624329150709853
P 7.511085017251287 3.2136703645055915 3.4918157168172 -0.06413385436543148 -2.5044084881718223 0.7740324064773315
P 0.3536231903164544 7.734925542625756 8.411958368169124 0.6299799241083861 1.1543834104358377 1.3295398132984393
P 7.727942298945916 8.610909142912078 5.642233937891609 -0.19170453702926984 -0.7972296705294012 0.19419722154413652
P 8.524500690852575 3.171596321334552 7.919885939964861 0.010225534382750132 -0.8541065862221032 0.11732869322085598
P 2.508169794792643 4.681741144057133 10.677521089045579 0.34211844283986886 -1.7022839514439654 -2.437641309948602
P 1.0742158360085323 5.70872820044148 5.118948248134164 -0.1690060669904896 1.0166291023707783 -0.9838171980470798
Ni 8.700643824198028 8.034938554981645 1.379334885881378 -0.2806279396345554 1.7393793136343656 1.3308919564509594
Ni 4.841161246485074 3.132986334567854 2.5684177296404673 -1.843138752811219 -1.5827248262306937 -0.16852192826521945
Ni 0.9273747606828315 3.369617222050663 4.470445648414357 0.5205002946183036 -0.38034740441408044 -0.6681420370004042
Ni 0.7290341009140116 4.292213973899919 6.624387651003526 -0.6964228862229683 -0.5034572230930878 1.34834049094471
Ni 1.4392005800225167 7.064543337839585 10.997320571059582 -0.8879294483088193 0.3459509292120816 -1.249306996488616
Ni 5.162794748812889 1.9354427397819263 0.27127420806978675 -0.6176350293897879 0.09316289460792987 1.5416177717777386
Ni 3.675795703497569 6.46810081975299 10.507910963932186 0.011719088209141108 0.46335726974840846 -0.9242812474649759
Ni 8.686181158997938 0.3098456032266747 7.279560167285435 -0.23114525952339549 0.5340880606050673 0.8383629502346013
Ni 8.936521256441697 6.703803670904661 3.6468740484887974 0.6373116818831088 0.9277262685907829 -0.12888425926893934
Ni 1.899175815039386 0.5519261773233174 12.139454883789533 -0.04986577448219154 0.8143195361321524 -1.5634382100869395
Ni 5.995050379793471 7.8327093311005775 7.145736409487669 1.4489436438807692 1.266254165865916 -0.2733180362367035
Ni 4.918656874374252 8.073952834803492 1.2042125925001754 -0.33360834848632864 1.4690234453497797 -0.09031179831237995
Ni 8.179703034160447 5.968201645540189 0.6857866890351881 0.4187650849603304 -1.0814841511729503 0.48678130509930356
Ni 1.8607036554505796 2.6308727370302627 0.7109410678482561 0.7190110559361295 2.134165004960963 -0.6057220800022859
Ni 2.5181117285578893 6.775924038856068 6.692476114577678 -0.7053461568545272 0.7937131727357105 -2.7096018037161467
Ni 3.8433292324640607 1.5700628911913193 8.044605753238962 -1.87245987037284 2.364505766305192 -2.0465189264062045
Ni 6.495427354889629 2.2605494869926104 8.579967860323267 1.0023677073557573 0.6711294017635022 -0.4529342746428716
Ni 0.31574644413614006 1.037985665180096 0.4580484110699445 1.0212578593920412 -3.6693879289559517 -0.7529701864903935
Ni 2.1688852252161768 5.666644968791915 8.58765953569747 -0.5142543137085919 -0.9808516876608526 1.096315302648512
Ni 7.394611863454367 4.651933719718445 6.895786822381269 -0.7629003011199119 0.6134073644616855 1.1463191453704644
Ni 7.032742013660733 6.325440502156666 12.231642888841955 -0.28056777582058134 0.514188750577979 -2.216834713347053
Ni 0.7998864588288153 8.348192164893652 5.435561165795316 -0.5568546648776216 -0.5239710267757234 0.6071397862854189
Ni 7.661527976159221 3.971425811596505 11.550662692923773 0.594117405883822 0.39867808440246827 0.8123600984129363
Ni 8.998754821499013 4.311711925332316 2.396158566168 1.1689098861867868 -0.2841716911217558 -0.1619437608270695
P 3.348106993821049 6.546781761372035 0.9361543519145259 -0.026219852928477425 -0.9221883694916891 -0.08566864311341375
P 8.776770368786817 5.787905319900937 10.999270366202822 -0.3380414445570178 0.6447822792285411 -0.5780012170482498
P 4.566490057904185 6.177653013542777 5.057825570130654 -0.4554421286663899 -0.13422212654208496 0.07755089910228578
P 8.827646974385866 1.3890131103129255 11.899779853371026 -0.45393829042735373 -0.8234410388174465 -1.1759189705147683
P 0.8617010292653412 8.785389161644304 3.2246524340399936 -0.5543966902554324 -0.4061473961963199 -0.5832236417894535
P 5.6570705741677125 1.1730103571212245 6.759246950331185 -0.32860935260984053 -0.058309534374170545 -0.6583327642194662
P 5.102408067939321 2.589267306264055 10.184601483121208 -0.3610571887259008 0.4070899626152473 0.7313891178855082
P 6.064974701377138 4.0076100400323105 13.340614144875484 0.35260854373791534 -1.0370500892292913 -2.904898943192681
Ni 6.73726810969674 4.6456488004065895 9.643563652851325 0.5560619937729971 0.0981012124498117 -2.2189646152058624
Ni 1.0806477709768065 3.0512088756855102 11.54865868575723 0.9185844541905148 0.8824429712729512 0.7102963017709509
Ni 4.671707325506626 0.16044553663145342 12.083617418634239 -1.1575857194232193 1.7906527670973613 -0.1416029923871884
Ni 5.92239708008755 1.7922586789096158 4.241058957401529 0.32055100108173823 -1.1670527783733902 -0.2803122081663495
Ni 6.583866460703399 1.8822782030298768 11.900237439601625 -0.07011912541458892 0.5758839135949309 -1.906053647167885
Ni 1.2046279117295555 0.5420880733654156 9.076934991038387 0.7113018602173299 -1.0259709485969946 -0.015034011514987011
Ni 4.327819328188581 4.604861144229204 9.026356092143583 -0.3157072998361918 -0.5092663735756972 -0.06175301283808073
Ni 1.4684658841281648 1.9258499682006718 6.613117982091258 0.301865508857093 -0.44409533619500285 0.602247234079808
Ni 7.055704021497471 0.12800745089074123 13.329505274337423 -0.6782246180473869 -0.7985625304082118 0.8199245410237557
Ni 3.5907747116955098 2.98948067694713 12.06274578966219 -0.09562035500948693 0.060041429463612725 0.2787327794943716
Ni 5.288189915258659 0.31139845609758665 8.950722968851647 0.9675266884171724 -2.362437313811938 1.4619889071005017
Ni 8.934536545080057 2.3588110763507886 9.812071160541585 -1.038145122065683 -0.4137208376682036 -0.21420683189684397
Ni 0.6751648078590096 1.8071440141219075 2.625061024362501 1.994675973592984 -0.03146721737034581 0.8162908009259103
Ni 1.2934253682058443 7.92012851579795 13.219095597519878 0.15498635567262986 -1.7348976237139284 0.7562840813549749
Ni 3.9528099541026145 7.4065201316242 8.330179071591074 0.7261569229522913 0.6207856592036277 0.5553127743117985
Ni 7.460989432326957 9.154306574467462 3.583223620042756 0.37524967817619886 -1.8284394989278314 0.2848178093461869
Ni 3.9462126265208703 0.7375775482475849 2.9369133912992775 1.668458775364404 -0.2472239102528129 -1.023737174170469
Ni 2.242815723437226 5.3989937778049715 12.542620512623047 0.24302761278327825 0.7672158977761303 2.156729263414724
Ni 4.558661474199943 7.13947538021998 12.387454675752693 0.003897792392509416 -1.228248376046104 1.30701463561273
Ni 7.820185434869495 1.4917862426274218 1.8412424579322872 -1.3769180454720866 1.6548087886811371 0.2556249898323146
Ni 3.1011574449534227 1.5071953211157019 10.35328265305561 0.5210538531289284 0.9450961273277982 -0.15845297406499162
Ni 8.95112174881968 5.608913758212391 8.706206529097733 -0.6766104794827316 -1.5254661017185405 4.091376663059902
Ni 5.78785018902978 4.17578676249563 4.497436804084793 -0.4120465352895743 0.7248685431581711 1.2397486633762198
Ni 4.059497378269231 4.408494169647792 0.5931438542957239 -0.7179008535910861 0.0007936995458889556 -0.22339441193338302
P 2.72746202329669 0.05089314486039619 6.794817388401447 -1.732285897122694 -0.17922620205660103 0.3739810958764205
P 6.257289556928538 8.223072652803667 11.282518080639978 1.2929658708291474 0.398783499632081 0.21982546363520206
P 7.013161365921601 6.767700350575203 2.73446272508573 -0.7819336636022791 -0.021719136844646467 -1.0954627248402296
P 2.862826688943284 2.5250490298450994 3.5322009176351417 -0.8725848475319489 0.5307291714351634 -1.3728343623210164
P 0.639575073983843 4.560122442285594 0.3337540243516027 0.6838805307815835 0.07339265395953812 0.3076188664011025
P 5.876776284205434 5.801403194855786 7.805885405739316 -1.0180164696366079 -0.8415984264527635 0.1284183753761143
P 2.6978751224426283 3.85158967465903 7.0759269438855785 2.874569181860888 -0.6848997160747172 1.0740680612145372
P 3.011845433679672 0.9198493967699507 0.4662436150673785 1.6688508685964998 -0.12629387283394378 -0.469728720492391
