# total energy = -340895.41705224145 ev
CRYSTAL
PRIMVEC
9.03493557446864 0.00000000000000 0.00000000000000
0.00000000000000 9.03493557446864 0.00000000000000
0.00000000000000 0.00000000000000 13.22354147852531
PRIMCOORD
 96 1
Ni 6.183229870649155 2.2368241916655554 11.50167816580593 -0.04779912176114994 -0.7762633526903793 -0.26093868873574416
Ni 4.4435168729637295 0.4800902787234244 5.937740730816119 -0.45652224910444605 -1.0467755440471715 0.39898661678182257
Ni 2.695329105645738 1.8312097909359446 4.720579498892674 -0.01045539100536909 -0.8541610936091225 0.5875646923669686
Ni 3.3558100059116254 4.537940985362383 5.010029925080904 0.4139522369527193 -1.4477727635011195 -0.48390681176498596
Ni 5.205035458518502 4.7127489201714114 2.6268298375793675 -0.5937389394984806 -0.24660787393536884 0.8198908595723429
Ni 7.27611375582435 6.204940820997828 2.583880464016122 0.9493986113578938 -1.0901562250256516 -0.2911614921760276
Ni 5.276004877989504 4.63301561312729 11.459600663532175 -0.9437087600619684 -0.3408354623623872 -0.12979751511182808
Ni 5.498896740287349 7.917521906949145 12.531527111991274 0.3721558697422236 -1.0750872465076713 0.20476265576480865
Ni 1.883558208047972 6.585889847423704 0.3482949620271386 0.08217811346165202 -0.2429453374821171 -0.2253433081296377
Ni 2.651121165547507 1.331866967852144 0.48440717097336 -0.5326922086988051 1.5535680021610794 0.2669818096060305
Ni 0.5356795272503785 0.12537780190949374 4.976428999426842 -0.6374083553619733 -0.03369636381118068 -0.8766942417146321
Ni 8.550789581060144 2.253340054019851 1.2906242936317465 0.3680022525851662 0.5489580357383643 0.10090474333687782
Ni 6.655431747063206 0.8730982337512038 4.928413737448907 0.47327658574464937 -0.5930449987552496 -1.5139282762822701
Ni 0.8586703450238657 7.321225189486821 2.7027196830012157 -0.3184408967172709 0.4121421803271741 -0.4563762104448849
Ni 7.49973744790923 3.562999150062992 3.7404769083543474 -0.002631781195892242 0.4198421200745931 0.3329948832720459
Ni 7.46791640457672 3.8678649834442735 12.619014200803699 1.744911813416821 -0.38017282650942913 0.22208366354175946
Ni 7.929258288348615 8.58364964199153 7.033469717225104 -0.6211137319670077 1.2454354293483518 -0.30596513284776333
Ni 6.856621693948023 0.698846850977747 0.1963282480156452 -0.13127487098830296 0.24777566899122488 0.1432508124032565
Ni 1.8359802369551284 6.445748960674539 9.140270343073848 0.8957486872429219 -0.2086154538519956 -0.03507936020163636
Ni 0.33347676408004906 4.931656375850961 1.2895410048482234 -1.1402595694399458 -0.45587150289432454 -0.06170287632643568
Ni 6.275313934716429 1.8954301134820772 6.9989824643845235 0.5025290548518636 0.7864217812806198 0.41085508608463434
Ni 3.2363952615261113 4.353266900831861 0.597857050847766 -1.0224585645683617 0.6312292231344548 -0.15531108600190024
Ni 5.947914971843018 5.6557522579749415 4.886442847415732 0.4050683041995281 -0.2663308062855929 -0.23239790098357394
Ni 5.397407308216343 3.112291385542195 9.176000803058821 0.02374876568016555 -1.0655916483124102 0.08026212738586176
P 9.281408686717931 5.728745503029838 12.311606840026212 0.6490585380063919 -1.4711824006743115 0.07009135750044702
P 4.046097158861769 6.053813452507511 12.665759150830315 0.015713554080514874 0.630341935433495 -0.17526104676126592
P 2.269512588819735 8.411226930192093 1.4652081620368433 0.6247207325919757 -0.44027519111796437 -0.6932812552701931
P 6.248733154056508 7.86925728074748 5.748260060523844 0.06101819155458523 -0.486716256189323 1.0998017185352156
P 4.623284987440431 1.06492979429763 12.916755083937389 1.292123320323194 0.5008917763587567 -1.2703540469669024
P 4.022253963701493 6.1843140629262425 8.214755026699732 -0.2626297032849219 0.2902078700135067 -0.903520617878857
P 4.544166056019993 1.1165915563008355 3.8047035553554296 1.0327452912063504 -0.04457238729373614 -0.0655675014881645
P 0.1391000621631609 5.611634667233134 3.7162650878198615 0.05436983300013217 -1.4760466707451483 0.33336949300264523
Ni 1.5187184718724827 0.9337605986413618 2.656913462787845 -1.1373177132028027 1.6183793422095096 0.49710377007123413
Ni 1.8928912965665645 6.5377878500636015 4.863605240592454 -0.8027272033088627 -0.13960190279675957 0.03653691858376933
Ni 6.019507801873344 5.593275678007791 9.140879297736143 0.07390918858464046 0.37379443378691113 -0.15089778742555304
Ni 8.632113036777328 2.26677500332009 10.085357137036514 0.34859505170314803 -0.13536215368379914 0.33294680364292983
Ni 2.3079833447850464 5.1904982470698915 6.92298691021566 -0.4328475311953255 0.18365004215590952 1.4296940516225378
Ni 0.7153798797097628 9.029758624270347 8.947960834431939 -0.28983737404796533 -0.34908587529663754 0.8821303251285388
Ni 1.6903641792066733 1.1742615505062328 11.255217770391337 -0.8222850708361322 -0.6881377633960407 -0.023731796399301064
Ni 3.987957348002967 6.782996003398159 1.6802224639480867 0.651904234985303 0.14611990642093545 -0.6673143988927862
Ni 5.619793214118215 7.931327288610723 8.039622737701144 0.025212494709885614 0.06300179764351731 -0.12013068144602536
Ni 5.175473149096591 2.9939789033050532 4.793057752615954 0.37826378241217434 0.11876851099117611 0.19860100703878697
Ni 0.809608837498541 7.298972142999606 7.060961219397779 0.49131287442107 0.37133903026788306 -0.7707239109293887
Ni 5.124877509499187 4.546144706925676 7.032900516279633 -0.19310450270059004 0.266390970099567 0.12063487477595355
Ni 8.28038299221895 7.1521182990681424 9.143245547380888 -0.6670259211180899 -0.023049168509979658 -0.13232696640190114
Ni 4.7062256966376035 0.32552873119543557 10.668290281190174 -0.4267637868950908 0.16078727862512307 -0.7734947888063065
Ni 8.065505117835908 7.341969401721756 4.603339463516283 -0.003203594538962225 -0.15070469757814042 0.40060949709722615
Ni 7.349983389636559 6.0546175617796845 6.97976877024741 -0.3795146241001399 0.48237366294991113 -0.2017675776922267
Ni 2.3200811236102115 5.196054732489964 2.7671053448696044 -0.5882475773666064 -0.6644645881488169 -0.11966376911193584
Ni 2.3797478385925777 5.17154295209215 11.431884191462004 -0.36213165273700215 0.2680421325497448 0.191518903381025
Ni 0.8791019484855743 3.258856111533101 3.9820846398354113 0.5230719120002217 0.3633734955639032 -1.4112998653860662
Ni 3.6985051148276087 2.821818204639246 2.6358620627410683 -1.0806508566383775 -0.1719499801101619 -0.08720641991417885
Ni 1.268875396553377 3.328650989370591 8.244666988131005 -1.024908311660435 0.28931235478243084 0.06886956927820398
Ni 3.6537460436551914 2.7050778012038803 7.115309971261032 -0.5537451727143624 0.5165238264690588 -0.577851835954579
Ni 4.10046036662205 6.835904586520014 6.065969054920789 0.17152394831633686 0.7762772366474502 0.11615189930393545
Ni 0.7692795952715893 7.4405947591941235 11.071396583785457 0.5294500476124236 -0.21676945041769763 0.36342388918586443
P 0.17581533013315515 5.4691537321525905 8.024468440148157 0.538774153226827 -0.283166389785693 -0.1654502313184312
P 8.494285093552616 1.5136318031058154 7.977194042892897 -0.772205894791554 0.11521627486354351 -0.11899476806936926
P 1.8734210102572069 3.259696360547844 10.345517205365669 0.5800704408724526 -0.5779667642658884 0.5157260131581118
P 3.9735827653959195 6.178016712783494 3.840976111478946 0.16961259022623693 0.2652139190723304 -0.2641577098936741
P 7.109012621118284 3.9374791625689154 10.310924243778073 -0.9430978659508468 -0.1100784394163459 0.31294542082033844
P 6.365798815174999 7.708724544253433 10.195734235298941 -0.5146811168333653 0.21716668585611631 0.12074080422619851
P 2.356645508154977 8.485909708212116 5.793260364477913 0.7529416472453033 -0.010940815282219867 0.7603088862436519
P 6.98597486754017 3.870828442334979 1.635804913342952 0.2687697547443887 0.1706986242015641 -0.3676528396655475
Ni 5.09864909132932 3.1811014553946633 0.6479286641779104 1.1243387844446313 -1.5006582986462413 -1.5824643734804555
Ni 1.4610123379245157 1.1293127456853254 6.994843560366744 0.49074594617400646 0.18416734811196026 -0.2514150655160251
Ni 6.7881549516499655 0.879965688332987 9.3009494455253 -0.9420092608723583 -0.5325217445592119 -0.7501471152193017
Ni 2.721828571884878 1.5114543836159984 9.165513953258694 0.7864096970957617 0.38440409098195727 -0.004347735445734448
Ni 6.1308543487302005 1.8943820609475595 2.397203334253682 1.2632156361499083 -0.35696347827250136 0.9305668233633716
Ni 4.20898801355848 6.788651873110298 10.365458211821995 -0.11214869168181331 0.6836347333193646 0.5765287462677813
Ni 8.127403461921945 7.173756969931675 0.15399325007608225 -0.4561756643983047 0.22011779806464027 0.31253558697642947
Ni 7.646627431583263 3.8302706162362745 8.16666116078171 0.5605519112235507 -0.6625313756818461 -0.5067191816738111
Ni 3.0919808502180945 8.432558413243784 12.377049589364761 0.08403367861315204 -1.0603255148174644 -0.4793875837383937
Ni 0.19025044680900713 4.632374132696679 10.153564576681633 0.1986621992940256 0.9144385503429413 0.33112054906746846
Ni 8.542197357264229 2.2770567600811336 5.8715562132613295 -0.47938784084870983 -0.7110231526346464 -0.02657826470916068
Ni 3.5775273265759604 2.65339796932939 11.620662847254867 1.1191050468495178 0.5604567804065832 0.11945628108682008
Ni 1.292691486906726 3.1033739040631527 12.633493588664198 -1.0072905985786718 1.0093983889502938 0.45004461179990235
Ni 3.1652180385353357 8.386724184729921 7.996461043150301 0.18423419679415365 -0.38116810054316286 -0.7537574582783793
Ni 5.661236463909875 7.664579848704699 3.6244800801223507 -0.8019612716771156 1.2834941838932865 -0.7695797700226166
Ni 3.0826025870212903 8.306475886354184 3.6508476363011115 0.5214400328237536 0.1339390480840274 0.6142373165621486
Ni 3.508184195520591 4.445070881894221 9.2919045714537 -0.3900576897233089 -0.5847891865043606 0.2753479221825387
Ni 7.416146223345806 5.9458550065165525 11.141084849382366 -0.17268582983492195 0.9423838706029577 1.1118787043044076
Ni 0.7171516305892361 -0.17225646898361632 -0.19024863982187865 -0.5007796762609247 0.4160577133314964 1.1037478476671572
Ni 4.394195159291903 0.23394972003057146 1.8061107397213756 0.6843178754293182 -0.30418670079110194 -0.7279862628515463
Ni 6.099358563080817 5.456667451094803 0.49151947231105214 -0.5544429701123356 2.0721553960273864 -0.775929109279412
Ni 7.950210304103325 8.91599071466133 11.150235432200983 -0.06748348756395474 -0.04094301807126497 0.3774870521471499
Ni -0.029857751817417597 4.567991181308984 5.828037638752614 0.6832069017533265 2.0081009887496384 0.14230336088832266
Ni 8.208004122787736 8.90357671308868 2.1459688788456472 -0.380378514762332 -0.275390602495016 -0.01915163322778637
P 8.403032243564441 1.4634517705479622 3.5245898316600486 -0.09974620425240241 0.381096366764963 0.9187749729347661
P 1.6362449147087368 3.1624352783574783 1.7316231163112272 0.7639225717368392 -0.4746405559717116 0.03564551711775151
P 4.629708826682172 1.152315691830859 8.206635330037914 1.1382793057851235 -0.8428248426606968 0.6984810543035777
P 8.653001807982541 1.6279689136603044 12.24907243647095 -0.44969751287312876 0.11611616096999357 0.9862746584486368
P 6.408100383852686 7.8323224638413755 1.4039829206561643 -0.7737824952500545 -0.14065091288656423 -0.002009574230861055
P 1.678275435317151 3.1508795956708573 6.117910899928908 0.8171914583633089 0.37780972559389125 -0.9943978017764036
P 6.929678183552416 3.9867737714338136 5.977186356337245 -0.8325494288766179 -0.6698453928447561 -0.270435829592902
P 2.5394041863293118 8.411940690107842 10.071049412953219 -0.14777981062186163 0.38144732234647855 1.599385574715826
