# total energy = -381175.0521612654 ev
CRYSTAL
PRIMVEC
9.11852666026577 0.00000000000000 0.00000000000000

0.00000000000000 9.11852666026577 0.00000000000000

0.00000000000000 0.00000000000000 13.34588548210348

PRIMCOORD
 96 1
Ni 1.2754356698536833 0.847394706474728 7.241931082961646 0.10886153629010929 0.10686533179568693 0.3073481292382191
Ni 9.25886071516827 4.060160742512138 7.7840812880995465 0.12439434181838577 1.6307669172405848 0.9400377389682842
Ni 0.8749563649484845 7.930309627922398 3.006294326586237 0.9595945780542894 -0.9972064748697923 -0.4093661602439337
Ni 1.9949877216708602 7.027411361941314 9.514735689836462 1.9760586156021132 0.363395092830458 0.3430977760340026
Ni 1.7468179019720058 7.969619596055913 6.040308062156253 1.8132915875427997 0.07130568952352236 -0.3781773933459551
Ni 6.450555132745661 2.2206712547964718 10.95629085341846 -0.3830846008395854 0.6587186868039752 0.6106722249187096
Ni 7.351711760147875 7.086955340580112 12.68844069351629 0.5549829017762056 -1.1378303911731629 -1.668840841294171
Ni 2.8677674943220888 3.6695230633565337 2.721693257598625 -1.277181611411697 -0.5585384803379477 0.7146481509817435
Ni 6.355266529870402 5.733337423735763 5.093737524920552 -0.9187541469991596 -0.5409058548578491 -0.1000879038625373
Ni 8.665180804412342 6.573491108244631 1.5071912298361976 -0.18476487248664308 -0.6013928564993126 -1.1365013879490944
Ni 4.012498204021327 2.1777685871861285 12.0925331267142 0.4352815945581148 0.8613473269449167 -0.016920172794106344
Ni 6.7476184920251026 8.992645331345958 10.281829915593452 1.2438973954372705 -0.6786773893140892 0.16601227446948827
Ni 4.513588595772912 7.233161795939145 9.0245674692355 0.5383103262165311 0.3286918850213178 -1.61198577997834
Ni 3.3290555175042478 8.722709588674544 7.679355922055332 0.06734490510356145 -0.01052301101851091 0.4053259287362891
Ni 3.7460183829278777 5.383723995712771 10.426606585983025 -0.4101742579675259 0.2366990994620891 -0.09750471651639336
Ni 4.240196931523535 7.1189978430206535 5.611223939335295 -1.0210853383699188 1.2730169385110461 1.779199530955097
Ni 0.9971747124047474 2.181561894247957 9.393114605871906 -0.03894218559115229 -1.2344840725431707 -1.3119652947497857
Ni 1.1104724052971 3.17488858843133 4.549051457537713 1.5879575353845425 0.11872274535490521 0.12608561347787964
Ni 4.040264117490721 6.219473431878216 1.7560786775777584 -1.1542258018120508 -1.9935912251692374 -0.1885035135934689
Ni 5.332614654170586 0.14787605757783254 12.169712335779861 0.23051096837350624 -0.5233418778321568 1.149727399721065
Ni 1.4361861751252551 0.35933560107424645 0.8938991920884903 -0.9995646906893236 -0.140168573933507 1.1235232305218714
Ni 3.540915364318004 4.149394643731016 7.995413172223687 -0.649740908785397 3.0429083046913403 -0.37895206672845055
Ni 4.200668118751836 1.2830678766102948 3.4973962843101134 0.8466375315385677 0.09964490278784775 0.2557548305419595
Ni 3.0401623580502832 3.198842957785713 10.28674115401533 0.13255630880388783 0.831836204859677 -0.16175324208281822
P 2.764317810147945 8.495621802453929 4.04258842991875 0.9422280617513837 -0.0748844080137162 0.8079532275944925
Ni 7.2191922132018345 4.838126075670837 11.845941723968235 -0.3460609724273847 -0.3513008806700853 -0.9218207017396254
P 3.176201656260425 6.299059931963886 7.408154527893096 -0.08759954158753945 0.7822247124801368 -0.03967623554369941
Ni 7.23087304576482 7.4735079198229775 8.511284695579176 -0.4477056792540806 -1.3495784771168693 0.5556979255653591
P 1.9561245613403002 3.0284632884341147 6.607815066038223 -0.13043746268867212 0.08630807646962556 0.04714246201375752
P 0.5809331224344605 7.4397146602769775 13.041505483853951 0.1410931426303054 -1.4985150270509935 1.202512661842897
P 6.45259768270203 1.7731066141336682 6.5727415653588555 0.6001376439359729 -0.6491636961256884 -0.7670017248827952
Ni 0.4645944009240316 4.405679952095801 12.838274498753197 -0.15510308375615223 1.463519741922731 -0.3076970279372056
Ni 8.76572167860398 6.337968684927401 10.188235534958789 -0.7863744729824521 0.22292544271676445 0.4266396026124007
Ni 5.67628280285629 5.892884283497331 7.570306550701695 -1.3177327933611822 -0.40754479076447875 -0.6910960746934163
Ni 1.470389768367848 2.147093863734227 11.661581529647417 0.03348476202100685 0.07070687959725887 0.994692964419319
Ni 5.488769422040328 0.6367403288762935 1.5504714044474057 -1.0854176818994017 -0.16719626747526045 1.1910414279785038
Ni 2.247060270750634 6.0436682392050125 3.902563423735711 1.6503268416503833 0.20543191391769136 -0.5031769728485076
Ni 8.378986728829295 4.566649302005556 5.0772156665904395 1.4041527128183238 -0.22850653634896775 3.5647828539493513
Ni 4.384105518181652 3.766480356597933 0.9614428541055143 -0.10967220511686274 1.6967288259536908 0.5124697110043432
Ni 3.9213494122183525 4.937992178894744 5.418135491361635 -0.4154568465227039 -1.4021313115129208 0.8623094337478697
Ni 1.5376389019759846 5.232247031984177 1.4124351489138498 0.8077012594846863 0.3208819020585958 0.8141400731314947
Ni 8.310461001498428 -0.15163380238595633 7.111621866861247 -0.33413182508996647 1.1424655759523292 -1.3850689567139953
Ni 2.8009925240966806 7.160851880073039 13.422089987443051 -0.7728916080046688 -0.6020181487881373 -1.6484257679729288
Ni 7.778522634289713 2.115160783612777 8.633880550036304 -0.3040776860170634 -0.4836561292067606 0.28741179532560823
Ni 5.399626706087359 2.919278051034274 8.701143361434326 -0.1112781161514019 -0.3895874349551097 0.9414770425179722
Ni 1.021730904514132 8.563728077561613 11.253650564812109 0.9310946708423836 -0.39272212392934946 -2.0284569266981713
Ni 7.3693469905747415 7.269471768824244 3.4880935634820425 0.568278333333531 0.14022899485779722 0.1107988625221382
Ni 5.8411366450937825 2.330294181472678 13.473471972930303 1.2026525298548707 0.6286897445420527 -1.5529753628824028
Ni 3.1036181845965913 2.019170054190017 8.36238462746518 0.6033348107170319 -1.5762772708331372 -1.4551723983993003
Ni 6.489573308028266 7.925403860616475 6.0863912718415145 0.33487770211705553 -0.5343703677321764 -0.6021608450135887
Ni 6.03739469291045 3.0204207479809115 4.544207696212609 0.1343931049023105 0.19738333258160198 0.9045919965661646
Ni 0.5408699640045338 6.92044192650307 7.9404284568803565 -1.8194432089664923 -0.9124528873714802 -2.190603547564666
Ni 8.775706465221052 3.5620156348494247 10.563041628247213 -0.6261975742478183 1.0668090656592788 0.3231647845555015
Ni 6.299798532617753 6.013321782710385 1.471183992033918 0.5158933919739115 0.22133470119087686 0.8243416962548448
Ni 8.228120706382295 2.25600554533634 3.831897578213951 0.12643296951496935 -0.3066963545868331 0.4887949930952227
Ni 1.7196173371512504 1.125463263012595 3.159357913941651 0.23803298778216428 1.029003564775731 0.1441537838335001
P 8.385780031139541 1.3063110008905852 10.810380750173634 1.1946651407740199 -0.4537521425584766 -0.25681746747851897
Ni 7.039393105881802 4.735962103746014 9.26423335103565 -0.14159913573244648 0.22936477058420496 0.3778279804263364
P 2.5004732432392753 0.4136710773243027 9.664742747078597 -0.3748565565028383 -0.9164064727025896 0.37802646959038766
Ni 3.8053526354550837 7.607522905129931 11.048564871402755 -0.849203492493531 1.6231284268587207 2.3585022404235896
P 5.371167784597054 4.111753365963642 10.80863272862615 0.4731089498185335 0.13646567116062303 -0.012090869726263049
P 0.22710146401050174 5.771626116891094 3.456117626285615 0.035191203189152295 -0.27525999045442273 -0.29651710006098614
P 1.1436729606146898 4.822387498774885 9.550689128331857 0.930561681157049 0.36365374580848336 0.6855874861703611
Ni 5.048280758012089 7.310778694281173 3.6017879122811003 -0.06645273230659524 0.8064596737681013 -1.1608844447791489
Ni 7.0803352902750945 8.338965515621686 1.0896137757203388 1.29237863086711 0.10177917552203115 1.155535778872726
Ni 4.375670881085038 2.7742934782384268 6.332489362298909 1.730672529888987 0.5035973482153779 0.3035855768719933
Ni 8.968873332523394 6.976447916824585 5.385691773751094 -1.3871620917975982 0.051462429545350075 -0.6908525912240424
Ni 4.761977260109949 0.38347142910778903 5.817724828071559 3.95522569492622 -1.421494546530881 0.34434116152280053
Ni 3.4317666010245262 8.35296245393877 1.8539168204878416 -0.25265048058502293 2.2144469298411673 1.637497551096199
Ni 5.093909865073122 5.576599070164201 12.9085135972305 -0.6197716161168164 0.3509910627391503 -1.5002368948381066
Ni 1.5046298357168042 5.463529340436622 6.0960404966800406 0.9825553006155208 -1.3886386763431247 0.8736148314583599
Ni 2.680381772878399 0.3645276901151241 12.430264202736545 2.4131808629133924 -0.5644144795027505 -0.07728864657983464
Ni 7.6215198434470155 4.539439618658209 3.1402865155767135 -2.0202095990877145 -0.2564667690073196 -3.354517008978126
Ni 7.626772114763393 1.6525323370217506 1.3297091401229213 0.4448548400688468 -0.6905090918416946 1.9088301814717576
Ni 6.766220286270607 3.8232705402062686 7.038259673026549 0.3873297492691845 0.7093915305684945 -0.9828067545046943
Ni 0.2617336280028683 2.991861522698107 2.058869383408965 1.3048266268224753 1.2036166935403527 -0.8024042727518051
Ni 5.9314556509769805 6.615153656238606 10.747348023261145 0.8895572137202292 -0.3204257883577836 -0.14420957677210003
Ni 6.683250812819701 0.6506488174854449 4.203713706633208 -0.7834644984245087 -1.560311234422184 0.411696093928691
Ni 4.823819107449661 4.764667225454275 3.3352032281318555 1.2870870434508672 -0.025189869002066295 -0.5478208368101275
Ni 3.4529033456623104 1.688705532007985 1.2935313858733914 -1.1066462522608749 -0.06146427795306834 -0.8796191286709107
Ni 2.7286826082305757 4.38612983108484 12.607470912946775 1.7883488015545328 -0.6800107634135321 0.2884137542275614
Ni 8.599199146000347 2.4596495996916645 12.805003730780857 -1.398099050425076 -0.7479331382871183 -0.5804751325100389
Ni 7.597191614502404 4.221431003799393 0.6084163615795349 -1.2070455167162437 -0.08194619995650403 1.7567337457524133
Ni 4.736737178506244 0.8888402335358403 9.946835309401044 -2.457110731527123 -0.08666597402967655 0.230080565704307
Ni 0.22075952876650726 0.21771576459045358 4.881804729894069 -0.7254192734553184 1.291415238512576 0.15863500816881065
Ni 1.5852740848870228 6.084382460433533 11.622290710419742 -0.19811249743814266 0.40680457016434457 -0.3670748556748904
Ni 3.0330681443625367 1.295168161396464 5.510849934180273 -6.433946034303319 0.5710029313535456 -1.067898956289348
Ni 5.868036298537037 0.28859407178178204 8.018167543478704 -0.020788397500260968 -0.054124292648229363 -0.36618628242235
P 5.091393151734023 7.785078854908595 0.44066647529676223 -0.6660134206931756 -0.8080568430518921 -0.4459393313822772
Ni -0.033282622056908365 8.828238296911422 9.220738891049553 0.14062185942084168 1.0372840596169686 0.6828595457162369
P 5.804388982932319 2.840010699379286 2.4237198693654083 -0.1984346566642518 -0.22647947861660994 -0.4324739499059906
Ni 8.820542260468674 2.425290991497026 6.4098819448868 -1.0700656249233635 -1.7114509626552137 -1.783450335811651
P 8.308564347967513 0.010168069001550279 2.7493461013382907 -0.4475670967936872 1.73227355582752 0.3868525525224499
P 1.7094410614757682 2.7854819103655024 0.5057919040618705 0.5270288397654408 0.09615925823209245 -0.2389639842368659
P 7.73415188389823 6.039510191079547 6.866364504555537 0.1453030669465949 -0.8869169478839047 0.5154843294609509
Ni 8.707281041682684 0.15432012031964543 12.796955719211699 -2.4645751582249686 0.6333218439974254 0.16276419984583582
