# total energy = -340857.1469211558 ev
CRYSTAL
PRIMVEC
9.37430902861919 0.00000000000000 0.00000000000000

0.00000000000000 9.37430902861919 0.00000000000000

0.00000000000000 0.00000000000000 13.72024883306545

PRIMCOORD
 96 1
Ni 5.601140347109692 4.508742726713608 6.630187323652425 1.0909630371976629 -0.8717230137522858 0.2601133646209714
Ni 4.9772988213172535 8.900156600015872 10.162656684654598 0.8752117436318346 -0.2841935454986267 -0.18558094063003525
Ni 9.09321112279897 8.15908933821282 13.316297088582047 -0.4416455891029297 0.07711689688866073 -0.7417496351842257
Ni 1.9302077527013 7.404541819841732 6.952352331595618 1.17605035388631 -1.3763395472607975 -0.0037419835409354904
Ni 7.059979712460191 5.038213082220651 11.451276406897989 -0.46732216793342746 0.8818158792119135 -0.02903315400755645
Ni 4.100772792192858 1.0038947676430872 4.353901637778867 -0.26613026023901265 -1.086827931983367 -0.8290293315385012
Ni 0.6486365735131957 7.216558798312675 3.728161814382099 2.433884414009331 -1.457101497101213 -1.2366288868003155
Ni 6.005969888062785 1.8770085482342673 6.730344317549636 0.8063213484180243 -0.06337383627095537 -0.0812219201959698
Ni 5.622776252644478 2.5928870413319607 3.463306645471366 0.013283090262151317 -0.4369368707733508 0.4966096040436351
Ni 7.903367558713932 0.4841015114790079 1.5296153994872554 0.6155580922561013 -1.2088249772141697 2.6022546471880346
Ni 4.500662072220114 7.178283494023882 13.399730314942836 -1.2355935035572656 -1.4365527264155842 -0.7307615116038382
Ni 8.465413638542197 3.033892041322636 3.59415606498012 0.4585061123036942 0.26538386899129135 -0.15583224861269293
Ni 2.2928154052104253 0.15317339933567792 10.32972843474672 -0.8909427812138463 0.18937100380008676 -0.18927561587280303
Ni 8.16871675371725 8.313549830195779 3.5419233517871933 -1.1373786483477248 1.4031263284363382 -0.6476017509552073
Ni 8.102937226361272 5.101142819592844 7.14778324175006 0.9352755416929506 0.33763083938216043 -1.0599637606026713
Ni 9.164896464923972 2.4236057665714896 12.381290369211458 -0.20233759126308382 -1.2906163967603643 0.22186332000083728
Ni 1.602735010913309 3.6103839315621253 11.306637378619014 -1.5699796107498831 -1.795756406872514 3.6736598168584282
Ni 4.690107485977692 5.815071456385842 4.026687626923614 0.6296297398578188 -0.009597670990764117 -0.9257123234845476
Ni 6.507251695934169 6.786174890597091 6.316953220043285 -0.3637007969963349 -0.5201868771429429 -1.6774568650979564
Ni 4.582884137837795 3.9702824087248243 1.7062639438143594 -1.749013237179704 0.7607665426063608 0.8630313995155587
Ni 7.2858161943659665 9.136876654853141 5.874187724792891 -2.191244780693091 -1.989401355457606 3.026214131865111
Ni 8.845776232595034 0.8657455735936318 4.94149833464596 2.278089960613109 1.660866564839443 -0.8233790752312593
Ni 8.230559071227209 5.630819409901344 4.571874949163596 -0.6625426885357557 0.3325896774138272 -1.0433024978969063
Ni 2.0691068914833304 3.5477166748463342 2.1850183493501083 0.9894106329744574 -3.4762672283054457 3.674178922586692
P 0.3763897618320209 8.720638579655754 1.6294442925639643 -0.09600216382893789 -0.3847316495247052 0.5906996384515246
P 8.348937847264159 3.233761686863006 8.379381853683036 -0.6294582472769611 0.2936279514386491 1.097972635746277
P 0.6174416849308266 4.84138071284721 2.382164758080316 -2.928168969464215 2.3797976594672563 0.44392204384193223
P 8.11610813072712 5.961132567363963 13.130649207464042 -0.6912588255235256 0.7713417470190458 0.814998307366732
P 5.256062652724505 6.234215567421958 10.278428465314933 0.09365011865699355 0.7659971948776808 0.738183257989206
P 1.4496806653039271 0.996695298210368 12.123802469867359 -0.4871808545305675 -0.06393202276727054 -0.01970930550346928
P 3.1737192367112277 7.335040691750352 3.085148888932299 -0.016211062542223695 -1.8783374121995393 4.027794567432883
P 3.8566189101939394 3.595469405693042 4.755890763057333 1.3773821295926987 1.943539045707853 -1.8501257256520136
Ni 2.3211351931742854 5.607149279279448 12.689392038557042 0.7857872330204144 0.6877590399003832 0.44259792571387
Ni 3.9033685899608277 1.8037108249342273 0.5829573512652009 0.5312953283512786 0.20600218459886457 1.1462556391223808
Ni 2.3443178597200074 3.6001565602716354 0.2076381355389307 2.2984818940058993 0.0957100865098158 -4.646454181432443
Ni 0.32263653569379863 4.298195743043203 -0.2711172074277338 -1.335099566774404 1.5076910371233068 1.6433735502610018
Ni 1.9296827913884975 2.7214650657319286 4.595693193870175 -0.37147478451479893 0.8125519027087682 -2.310635498649298
Ni 1.4176392766046642 1.430866426825454 0.6031421137424546 -0.17736832291225582 -0.9225442101692111 -1.7294196313184924
Ni 3.446033543418334 4.491962713322245 10.476329505932293 0.8191532100753699 3.2607643033049976 0.43244206822679065
Ni 8.14213121294747 2.723855514567011 0.9653522955433154 1.5910060924028793 0.5051978599332784 -0.02921724499390452
Ni 6.640310640111271 7.722733995564108 13.953218587941507 1.8211010562848895 0.5097677386921479 -0.35493719187109196
Ni 6.98488212180197 1.0830045626205829 8.878126036065568 -0.8539338080896647 -0.386474857468057 1.3523804653420386
Ni 6.024549768812328 2.8434342021760806 12.295881038480335 -0.5184714371137329 -0.035422602473668026 0.004730829816766046
Ni 5.557493563673832 5.018902005356847 13.355509823786557 0.02723569578750148 -1.074319515103711 -0.737623271720678
Ni 0.9423992995719446 -0.2837078420567508 8.161078566615974 1.2379892574829516 0.10928473987045695 0.8051376125225683
Ni -0.41167278663783896 3.254535155955331 6.1975048353315 1.2507807528206651 -0.6415684002769337 -1.9679136178974752
Ni 7.519330235471479 7.984258472431293 11.280747411588697 -2.441560185387034 -1.6291455795870782 0.5810734282156703
Ni 5.576073444423376 4.044751920669513 9.990179707902442 0.4901905878911687 -2.0717108522907997 0.1729982188690182
Ni 1.8094760250658968 6.25283294540813 10.448188767273336 1.8956237100838127 2.424438695215399 -0.33808772441392093
Ni 3.734818511314617 2.266342356150531 6.287126043166949 -1.3564237821734768 -0.4393801901075207 2.302597715946486
Ni 6.765307678413195 5.553125135606583 8.7876686398533 0.058131614035409555 -0.520589254787684 1.0555774586095175
Ni 0.6796186652776967 1.9271048563702713 9.331100153988139 0.3601395620076378 1.3858788542098004 1.0763175193703463
Ni 8.847116758804512 1.3710208371659764 7.512824464916392 -0.6329022399615035 -1.6180679816166779 -1.8225501300265903
Ni 2.308742356468485 8.255363493257123 13.18577670732471 -4.251877006572226 1.4446221336872798 -1.3021498513212606
Ni 2.2930403886301978 5.152504659465068 4.017686415270884 -0.9026258739787294 0.6213068218144203 0.1283201592353532
Ni 0.5832273313689279 1.3439478323200222 2.685944870904434 -0.8696751300843215 -0.37969742953490737 1.4273839154321224
P 4.874059554569161 9.018797856709224 0.5537638776878911 0.9777864184719678 1.4211351063089332 -0.5759600182485048
P 7.1062231795325905 3.8507318440432265 5.2107584914296545 -0.7527470147359939 -0.2746439541369786 -0.4750408767339238
P 6.4848564713576495 7.235588645901762 4.143199978007368 -1.0471519535499836 -1.306199338800286 0.027226182705804725
P 3.0792918205708895 7.8011219687365 9.105031189215264 -0.5997311525261736 -1.1095631687973535 -0.12928020915577737
P 8.412945630189427 8.307794004373266 7.881432612717032 -1.4474346634354105 -0.20109292022270528 -0.1257832517461124
P 2.680602452115753 1.3461789178994328 2.4952601734762747 1.2733298417657748 0.0081370272848376 0.6039099664942116
P 0.6129757640483431 5.528789429034528 5.734885490717102 2.4959143346578823 -0.45146026120050636 0.7899236237862911
P 4.945941757186466 2.1180220366655287 8.99747880282395 1.0023931612770545 -0.8572603013597366 -0.6048065101665518
Ni 5.527617640389879 8.834677050552926 2.516746090064546 0.67971071567461 -0.29512613325073045 1.7798153101622252
Ni 3.027358147840077 8.234365040745026 1.3380204566399332 0.6711826235989409 1.7546706925757973 2.2305597762426297
Ni 1.6226460435631727 4.176404718473038 7.344421562923948 -0.43397213171807203 0.38887009717311094 -0.12638077612079526
Ni 7.795488008933032 2.8214420728933214 10.585940490614526 -0.4460519457007414 0.11436421127589337 -0.9159411030303967
Ni 4.303107881041568 5.953586248492427 8.185967357428304 0.41435744281093795 2.0958936201845906 1.3417538388661276
Ni 3.357333830173037 7.853149384558885 11.520892838992003 2.221359340690284 -2.2235797453803703 -3.192477088892825
Ni 1.1093932428980624 6.681445108693006 0.9522413867560746 -1.9935490590773925 0.6824628244984504 -0.2474023448122062
Ni 0.007161034765174659 5.377797431439727 11.445363092681635 -1.0023623080391189 0.48715797171243197 -0.3370757382096388
Ni 3.7204945669224365 0.29739058370258004 8.26968837508022 -0.7421977784652379 1.3357490274329447 0.10714146827520903
Ni 3.820780926286016 3.761769650141528 8.242631306559833 -0.38319901493026265 -0.23607843515895469 -1.0894548280832528
Ni 5.546085029429537 6.121470751188477 1.5425950679462954 -0.025273172744491954 0.8823869212240351 2.091182587862166
Ni 2.8580674987704486 5.631578728943076 1.595198066350931 2.4094705039413404 0.34687292680571874 0.18853719504488176
Ni 2.9859611986019416 2.396223409523348 9.980712593084597 0.8713363198368284 -2.613262568262764 -0.13581389650923706
Ni 7.019229590553901 0.8762354255405232 13.384678924160058 -0.8977981135727828 0.16313341025979647 -1.4279328459570568
Ni 4.100997775612631 7.850205851483528 5.207932137218763 -0.06296425953736252 -0.1984526543863808 -0.47973314000327055
Ni 1.7435652573817195 8.983616074442303 5.0474870862698555 0.29772217611268076 0.06471260968703695 -0.15613023946908594
Ni 6.709446170145521 4.557760989296535 3.0576812256708275 -0.1549958687543266 1.0488275414801937 -0.99988505014322
Ni 8.860072054059744 0.38811046057125104 10.869647395240362 0.6527953793410048 2.3491801916917154 -0.14813539418906743
Ni 6.322324699190353 7.65686072511656 8.313222666806194 -0.01677850500991949 2.471586299435479 1.4173769248180814
Ni 9.105969557561899 7.455959905568899 5.939427291941413 -0.4531744156781357 1.0298044634104717 0.46622584954545515
Ni 3.592769604655772 5.351596237345391 6.124925184112902 -1.748305926700034 0.23336103622779167 -0.22028003467411741
Ni 8.13093828781379 6.294923593523897 1.6216926763218869 0.1798445523668903 -0.5828572595889703 0.46052468539561975
Ni 9.414899915836974 6.167761089806664 8.982344918120589 -1.4328835050941129 1.1679639773337498 -0.7988178409521275
Ni 4.518473259618768 0.6469838828087837 12.411365027849543 -0.4094641192743787 -0.30591088257106025 -1.4169393230600307
P 1.1455499533173301 4.39855709688004 9.538248950589065 0.08230101219276148 -0.28206312941918515 -2.5260813451595654
P 4.6640281579024006 0.12225317801161446 6.442041189144033 0.851082711794115 0.13160320086199917 -1.2933474225382824
P 3.760401001004579 3.091609662803432 12.189672928022159 0.5660281038467736 0.10042574681793028 0.2915186184051302
P 6.144447182932742 2.8823657081058753 1.1652800618004604 0.31340950494095055 -0.8824781953862608 -0.7714870143476584
P 6.7131115250259805 0.8702152441997782 4.261893730831999 -0.6506369382371052 0.5908623892816339 -2.182281915072848
P 6.476447716043654 0.6224035067677254 11.355591895899673 1.0555412060549432 0.518387876260991 -1.5757419671549573
P 0.18816488312670746 7.822673505488872 10.878003654423077 1.6661445254089307 -1.9878959745566736 -0.34207704807897216
P 1.3263053824861974 1.5054203075525574 6.007658201141995 -1.1836446212938003 -1.863948747578035 2.865003392549324
