# total energy = -340868.744809021 ev
CRYSTAL
PRIMVEC
9.22538660492664 0.00000000000000 0.00000000000000
0.00000000000000 9.22538660492664 0.00000000000000
0.00000000000000 0.00000000000000 13.50228581267883
PRIMCOORD
 96 1
Ni 3.853563879295041 8.685904366782038 11.951088777008978 -1.3275268966334683 0.7889612598730219 0.763206519506421
Ni 0.08569830553591426 3.3685668591824305 2.7556810733634536 -1.5633597914405204 0.14687632497098577 -1.430842306294368
Ni 4.285994647018516 8.559082978295999 9.597978662820752 -1.6580792319022926 -2.5315171714631566 0.7622647244184421
Ni 8.218573961854615 0.7882050312389732 11.844879669623861 -0.09062984377343102 0.14461452552000256 0.7930210317646924
Ni 3.9357989747314672 4.283457665725604 7.701041771103049 0.20350101544356566 -0.44759512181814526 -0.25452198657612296
Ni 8.63663157738043 5.0828743092019435 5.0939530758734275 0.7467000372109657 -0.37101172883545136 0.48521498905344823
Ni 0.25419906777921525 2.8079032188354054 12.124971629747863 2.1253998571738233 0.25974055466258494 -0.5394590951089935
Ni 7.827694335015778 8.839673109292063 5.877099827683661 0.28119203966814155 0.7105133028777635 -0.4598939937901564
Ni 4.5791958813869815 5.873360778527234 13.911000002187324 1.0527507877939999 -2.9637622931877927 0.41877871180708526
Ni 6.001215410303477 4.58297828986005 1.8292760619050679 0.11173217296968499 1.3630382021662009 0.6577195561154995
Ni 5.417663586001127 2.6141885526951674 0.6971052618957864 -0.5780541817733721 -0.7848156131357645 -1.525373027784102
Ni 0.5344229509304474 7.605297942185856 11.696409066592091 0.5301478450103967 -0.7188012539181685 -0.05435903436685476
Ni 8.011713119923833 5.854273453818016 2.030432847350732 0.22671473455586763 -0.1764455539876703 0.5018893643853356
Ni 6.488712510162921 5.363888807977912 7.6640461260818284 -0.923931577435041 -1.2425233979078796 -0.6593768892132644
Ni 7.44866932985473 2.5583565134780644 5.134244028959477 0.44486178204738225 0.5710798073380681 -0.945509817826449
Ni 6.213556131826949 2.168519355315952 11.41214538668389 -2.021712665995802 -0.6672557777407089 0.6545252175479179
Ni 5.2796794798262745 6.883190037744433 2.396021077045866 -0.11022962028222952 -0.47101761450714363 0.9870112795043454
Ni 2.557111086297908 3.154584018858456 2.504728419100514 0.49031734327702015 -0.37917729536537925 -2.866035176247948
Ni 4.730639826494047 6.385535787326821 11.701566980195242 1.710773219861899 2.3041522049178 -1.649453180796179
Ni 6.4810369885785475 8.22505940857795 8.548904609348837 -0.02801088339062918 -0.150439873952528 0.08287513952867663
Ni 3.3292759379951136 1.2532779840850312 0.9082429930170918 -0.19150836185806372 -0.5056228632858388 -0.021302103911885893
Ni 6.97777792573071 6.693857430201042 5.759251050126661 -2.7739770846684224 -0.2766774396272396 -2.4811407758931336
Ni 8.655377562788416 8.262117786227503 3.447390406683879 1.0361170358920606 -1.1466230497641283 0.0522468731198584
Ni 1.6570916028244589 5.951084659955537 6.927306758620193 0.2463587340390402 1.6350202932003004 0.2911218971873438
P 8.34694521527596 4.13543633901734 0.810170676542331 0.6906813557535008 0.18787873552527642 0.11954446992525217
P 6.893218032891324 5.40083648098923 3.9026604638141253 -0.756351958478433 0.5526496256573386 -1.452628548931524
P 8.527513705625655 0.12178248236899014 13.968519364598874 -0.3824623938745543 -1.207599846557817 -0.19322560165948657
P 6.100729654691264 3.232926001183577 6.8567445447471185 -1.7845808498716687 0.12890277121170057 -0.3117958805969275
P 2.645794726911591 5.048915661423003 1.034376167668763 -0.5536960646439819 0.4430100735506241 1.0489491546597225
P 9.406019587735209 4.749155177239044 7.923641122436405 -0.35403833420590636 1.202237039584007 1.3246860847505637
P 0.7686822682860266 8.33398354721581 6.4895492527202565 -0.16491132809582568 -0.4776718865988677 -0.11678619045382468
P 4.598928983152577 2.0803800125069305 2.595463785676173 -1.5770799692400903 1.4713176407005952 1.7291064709534478
Ni 6.548446887877849 3.2092813355336376 8.99246857352426 0.0866880855168636 -1.5427837670613818 0.23001885922843612
Ni 1.8346802933282964 1.3728297679935626 3.802999535780675 -1.3732845624845575 0.6805908042867183 1.155295894947778
Ni 2.7941481675345625 6.085812204688941 9.216876100615472 0.9354881719243888 -0.237858666987829 0.6104164001541615
Ni 4.381237537447691 0.2978499066357326 7.566600213351754 1.187845289638709 0.6184896640805994 -1.4398370535938108
Ni 0.5310519946961565 6.895579731840363 8.939242705998968 1.3286576678038022 0.4552130433747193 1.449524970305536
Ni 2.3306739741723654 8.432676732203346 8.017050006025467 -0.730521113458258 -0.535033198127156 0.7485993111162076
Ni 7.719129986452185 3.681925563096397 11.124870540615666 1.3891786080069948 0.290976372748415 -2.595445080465369
Ni 2.7159353406207165 6.9448894227880515 13.104791629155192 -1.5380089713805578 1.2271615707398285 0.9248443190572975
Ni 5.261551595315104 1.6785037249366357 5.329568525047399 -0.4022871419099653 -1.0471779216919128 0.4809073628170298
Ni 4.525227370246854 6.851676117393206 7.509336394146797 -0.5834853800912726 0.46800531004338114 -1.1560872805008218
Ni 8.155509219606083 7.01554665814228 7.43901680793919 2.0360475945612353 0.6452695032776048 0.47279964610823083
Ni 2.8648423044348696 9.247158431866321 5.8054019687300125 -1.3799606889531524 -0.14324489886598554 0.46640222722231933
Ni 5.482508827847956 4.84405672836699 5.350753702651192 -0.8796163004574336 -1.1012903872656001 1.0282314624963969
Ni 1.4600557975371358 9.228707658826963 -0.19076992276315627 -0.11256495328362551 -0.650120660722319 0.3693178860727962
Ni 6.383663033863326 8.1993943832802 3.950592804554426 0.7272344722871863 -0.3212071466084984 -1.4467512642151406
Ni 6.0215850637389305 9.039301248191414 11.184389044286032 0.8888190500026241 -1.4210109220262432 -1.0229918113640124
Ni 0.6415149278054993 5.4093330619738555 13.149241386484317 0.37645938221358394 -1.1372009851192801 -0.6103248688816199
Ni 5.934395935741436 0.23186348447641833 13.306745487996158 0.9376710385083206 1.2892215732953667 0.07974199321633363
Ni 8.085728395971225 8.466580027663168 10.276400671936884 0.09988350116121507 -1.502937067378089 -1.3127769920178036
Ni 2.9530831264956077 5.260546028184458 11.62699356826341 -1.55872820620578 -2.368596134324482 -1.38411430611021
Ni 3.4315670237253246 3.009551717382568 4.643719157244274 -0.5535466835503111 -0.5227073295719514 1.7848999237739838
Ni 1.6293785417193403 3.589763951764795 6.649578342522535 0.14576997928068441 -0.7934856301059366 -0.40978396450764265
Ni 7.790331519611074 2.2124321951496286 13.774086963387406 -1.1667884689684098 -0.8934853451300417 -0.3784573864802192
Ni 6.669862199863355 1.080080577564561 7.348132912640563 0.05327891392879856 0.8525412986175124 0.4947013312773287
P 7.363306828388133 0.9063914579425921 3.7695814956517872 -0.688082484678073 -0.7577061585134821 1.2093134868148143
P 5.541136159180522 0.9470043770181787 9.495279815006374 1.7905447807645876 2.3489017412193487 -1.652884832185547
P 3.2826969614572503 2.0363564680350184 6.69475690538671 -0.22076340206843914 0.021844092458284965 0.3315003010043904
P 0.457402966493596 3.0154190632090847 4.792001562391045 -0.37699468589176366 -0.2938920037333132 1.0181221419765367
P 8.685350843590857 2.0143262450260226 9.824330901390313 -0.5602896587010996 0.6187395753078763 0.11519442048667258
P 3.057422248033187 3.6430128827563872 9.93969435981891 -0.31588162063052694 1.332564459057376 -1.0895756699318333
P 4.579897010762477 3.7798714917758383 12.611297105519307 0.2793786406084866 0.4446368105207697 -1.3616716608359773
P 3.2437104780250827 5.335566871362495 5.604987826899182 -0.6061483689064271 -2.142122569245143 0.6582705435229631
Ni 1.9820742937532219 1.7637831979245564 8.644366141438526 0.9430330741511823 1.3685437053654623 -1.1545716151872436
Ni 6.838797477811733 2.63544384323651 2.483286775751474 0.9971072302877666 -0.7642323896677741 1.8033203352627007
Ni 4.0031442963251305 6.865800184154836 4.503012639507465 0.6228389421882304 1.0529724168865027 -0.4478956837776996
Ni 0.9129746937630357 2.1867210429192805 0.7943749697433351 0.6081571718063397 0.05889626011557599 0.1397155455564884
Ni 8.887239202187532 1.105819405954468 2.396047830666773 1.1686913424180776 -0.37581943463673984 -0.7742401516127634
Ni 3.843701941105503 0.14220010781434564 3.815867104898325 1.3664004337702145 -0.31485935001359966 -2.0222950208618338
Ni 8.1314217354032 3.1647319440301036 7.261015742657922 2.7398706299030167 -0.047555895402092284 0.6619641903244664
Ni 1.573076007789734 7.08875010017594 4.730863080847822 0.15847585688312707 0.7384984752367797 0.7709465684631561
Ni 0.9692744600766862 4.882987859480039 10.458101117212541 -1.1912684563876452 -0.44826695107418923 -0.5275880547030204
Ni 7.662523014767429 5.868997170703426 9.521393194088978 -0.05424410605554529 0.028605065331202353 1.008147290152012
Ni 5.375817232747859 4.47576084772833 10.46973986484577 -1.1593572095013451 -0.183023207205188 0.37075281874710986
Ni 0.5847483569339532 7.316035947861293 0.8736653218026798 -0.681622330875026 0.7282965950031135 1.606223423573266
Ni 6.991745160921506 7.677163703174162 1.140198731358707 1.4082623641113232 1.4582302113890175 -0.7824028899292138
Ni 1.5143840987515307 4.661883020762872 3.854335121608086 2.3717539632271736 1.8160881764513304 2.030670389409722
Ni 5.791550050870713 0.4221693702976347 2.129729372616654 -0.06906188779466815 -0.6739686709845103 0.0626385007668276
Ni 0.27068667856718714 1.2881960720620196 6.021425464552141 0.9600602048367983 0.37183988116370154 -0.5123478407144982
Ni 9.042124216466437 0.48214453060072554 8.11518413258991 -0.7252981744964218 -0.5867218847506992 0.8310419910931558
Ni 3.8166346570567624 1.718874016346755 10.659392593301392 -0.11074461224543508 0.07451596893070393 -0.2363077775609414
Ni 4.096625137929046 4.684300710005695 3.3209002095738964 0.44977053220290936 1.7028030571722286 -1.331968220234274
Ni 2.882269059570545 6.9956105978732515 2.2299161476817257 -1.026103874630433 -0.06696283917379435 0.09952791759400925
Ni 6.606428442154036 4.388202704270049 12.924010032376897 -0.018539967785716458 1.0862350355943744 0.3990688920829837
Ni 6.865191308644538 6.850467591759128 12.378301666116924 0.11041731081300339 1.4170568224745015 0.3771949748280278
Ni 0.9659717717026406 0.5396897240945326 10.251083443710925 0.5106969353746367 -0.6579185595001831 1.8177673639259662
Ni 2.5270086500841926 3.482205170331847 -0.41646070111925676 -0.23106324133255046 -0.6318447452312665 0.42812750001183686
P 8.299545179337846 5.645207744509031 11.56235866522923 1.5947922989181889 0.3845236472789571 0.3153013226470247
P 5.39449864045021 6.524866799933547 9.460403241268722 0.0727143969455909 -0.6526786512574824 0.48688569188765174
P 2.225956611787479 1.5224378611832112 12.130007768248955 -0.29390640191101636 0.27355097818311597 -0.2115120586735002
P 2.241695121190053 7.989830503099152 10.250543758599525 -0.24768259505678636 -0.943086295986621 0.6279333259920024
P 0.5864458280535744 6.352905595206714 3.027630707345185 -0.07757455325136962 0.8741565628944429 -1.0012019691824305
P 5.161862068583443 8.385507330928222 5.492094926980556 -1.486529572554343 1.1872649916552067 3.5136019602001616
P 2.074687949024288 -0.13571189347505477 2.4395390703364996 -0.5026478398179149 -0.825857875789055 -1.8337336574472354
P 4.746433688215738 7.900740945478603 0.4955785384506834 -0.4804967576421724 1.2769887786746008 0.0073767520800453595
