# total energy = -340866.06382184767 ev
CRYSTAL
PRIMVEC
9.28238318251334 0.00000000000000 0.00000000000000

0.00000000000000 9.28238318251334 0.00000000000000

0.00000000000000 0.00000000000000 13.58570606528104

PRIMCOORD
 96 1
Ni 5.710475694850887 0.13943810302897627 9.831010967928043 0.4574966972025734 1.7425109172848119 0.9869084353778939
Ni 5.244054506910693 0.35319653489416397 2.409153432703252 1.150590519052309 0.3334695089156192 0.4145312493846409
Ni 2.9362127167336007 0.5658466502126223 10.115399981331914 -0.015226072921135068 -0.24888664266721655 -1.802736694845089
Ni 0.14697818285232883 3.9847507160514692 12.160714626872783 0.07265834689667487 -0.2690399776866399 0.353313797335056
Ni 0.06877503314930906 6.267706437034412 11.246682072184125 1.014159300674047 1.4069593290291833 -0.5509264723186448
Ni 0.7615007220046021 8.919107791931344 10.89937706586793 -0.391903484682796 -0.383343768038243 -0.5424531447403109
Ni 4.223475045605797 2.3087236165752443 5.600028330839877 0.19493024305541914 0.3065161202552269 -0.32713482494684304
Ni 2.617938363682865 4.311035765750676 8.864496747212975 0.561598093099878 0.2513513021576252 1.0029611179653823
Ni 4.694546707498348 7.306432957374952 3.5956879809486977 0.6823761783219151 1.00060958701407 -0.6595141861220771
Ni 6.288201939004081 2.805015513454929 10.124951553581365 -0.39124811048698427 1.4256509919014155 -1.05395020741874
Ni 5.326779105440446 2.4263221285561056 0.7673625469565252 0.7359700523879712 0.8503324638916516 0.23024511630662928
Ni 1.4695961808605194 8.666552711500744 4.602823766754194 -1.9297448201372376 0.11413101221916475 -0.14482509886891187
Ni 7.01629350761682 3.7420535265138897 12.15540324724097 -0.8290231608909142 -2.609513385632977 0.18582005322403483
Ni 7.230948617693181 -0.33810059519612357 4.395614056193175 -3.0500536574868695 0.2595423226088498 -0.08151836839046606
Ni 1.0338903987254147 0.8960117360636958 2.281080679588978 -0.6925590323921879 0.3332193405780261 0.6692838639143313
Ni 5.182660824833069 7.252817912367338 1.0224804933716476 -0.7490076022982197 0.11786476822998411 -0.04914766536924439
Ni 4.727638403386877 7.480236299259051 6.50275772758086 2.7103129708505582 0.9177182495354775 -1.3869798005834628
Ni 6.302385420439613 4.9052568047408736 0.9706903648890509 -0.07265757556572648 -0.4029186048463771 -1.9116146861954302
Ni 6.441287001723188 0.2719803236244075 0.10327115360668332 -1.1791863284121307 -0.7572821836021861 2.0814450488594285
Ni 1.6791645449770165 4.419778884217468 1.6085200398636263 0.4025229120698552 1.8739413400143725 -0.23954171111720685
Ni 5.794574086085128 7.521552186608235 11.868499636244897 0.2915312168106205 -0.43696386735654424 0.7636700894064009
Ni 6.323883419788234 7.791381782059466 8.372775495790657 -0.011049058725310004 -1.7810558674375456 -0.9348073438072803
Ni 2.897393790448656 6.190606962686552 13.493377091675077 0.13833589160014242 0.207436603052546 0.45387298440705703
Ni 7.085549368212701 1.7289274009821787 6.062988118107748 0.42484600104708775 -2.1272891037767363 -0.09507065315360401
P 2.6918075686985485 3.8955098845585336 13.263018045805108 -0.6852465578911747 -1.1727547138541736 2.8597902237795005
P 6.844290948061579 7.2996846648333085 2.5727118083174574 -0.9564655455070042 0.2993440279868199 2.605957549960918
P 0.8603358247094262 6.762067598221301 5.5566081272332095 -0.34870252381528977 -0.2338660008886682 0.3902497511294569
P 7.234670853331695 2.096138477938755 8.22614540230602 0.0742233773909496 1.7181769685251376 0.5838165381784461
P 5.419974232150355 5.290197233491865 12.252975017600653 -0.45226501648998885 1.2548279263068454 0.8000059477229576
P 8.065304908474749 4.112253530841043 4.3473168884855715 -1.0074579773944714 0.5262202278212162 -1.0873665780956563
P 4.1618957158654055 0.6343970496899811 0.39215284044955734 1.3366715392472142 0.08059302836271927 0.2930761927002372
P 0.5610458016534225 1.8132949813274344 10.366558991338493 2.8757616595070927 0.581392759228302 -1.1385580133678068
Ni 7.504194130139357 5.799911456389729 12.301830056534875 -0.023714312897804322 2.4531206365311236 1.2608178253416933
Ni 7.876222763944782 8.576931302299132 12.305443688290667 0.8708604086416742 -1.0815085766529826 -2.3198727009768496
Ni 2.6622153312532104 2.031041124988895 11.858650099496701 -2.4603449221937046 0.2935873280087008 0.2875354653876661
Ni 5.466135523497804 1.079327664188065 7.265200611474014 -2.0482567350329175 -2.1644531144215433 1.6626964189593303
Ni 3.6797873004212525 5.000763244852254 6.871568159152189 0.040052902156827795 -2.3025524645308475 -0.6564735995235405
Ni 4.07983944892162 9.368523653961919 11.94380575417041 2.2408794130010827 -0.8461536499236136 0.7379819406116775
Ni 1.345834166475736 1.3999875897053788 6.000888046673289 -0.48589093207455025 -0.07635405058070721 -0.30601681202130526
Ni 3.2680579139327315 0.6650075645656056 3.9248152963648937 0.5963498947587665 1.0438815103288281 1.1380353080951175
Ni 4.3392449281083865 7.509299440865498 10.136077418011096 -2.024512340228126 0.7931979236621889 -0.5540110247812394
Ni 1.8691377982882726 7.073899977373961 9.637306196595135 -0.5338723450498354 -0.9398814158960781 1.3384756823354884
Ni 1.573382506731386 9.145997082984165 8.383589472146937 -0.8093105129533352 0.0999611484766859 -1.0260552807806844
Ni 4.1960177562823 3.587715342071094 11.71639479318521 4.032407897835178 0.1817273712118999 0.8776054406749918
Ni 8.843577040333878 7.102387611225825 8.357803940026672 0.31834833700346465 -0.34388196249819486 0.4344943227701291
Ni 0.7845423816691448 2.819839479327013 8.247814197504388 0.41410933135587386 -1.7163728254368635 1.042533995161998
Ni 0.6590092885815474 5.251248353842982 3.9457377879589313 0.8427405104770067 0.024709329821221964 0.7232654603371093
Ni 2.105049565751655 0.29635957469919905 13.314670795017257 -1.2867522858192677 -0.519899170699195 0.2799741081006404
Ni 7.338290096306069 5.3198730123854485 9.852353951478252 0.3599333595341027 0.6162628316326096 1.3328084567473821
Ni 7.328367228731079 6.546177931187528 6.2532695465392 -0.8621708512874764 -0.521482970246547 1.3912406327423459
Ni 9.272785154272079 3.2669997222549494 2.63087150810965 -1.2811454811554517 -1.9979546443442562 0.13980784815997857
Ni 3.9170357310565698 4.925575941430912 2.288593840501229 1.3504104860998614 1.2502714172844145 -2.894814819483802
Ni 6.366341040263445 4.034374336309554 5.991214875204724 0.08117178368432472 1.3366465995465495 -0.8249402490707922
Ni 3.0585173969656494 6.88372251163366 7.776811225247061 -1.590293382606571 1.4343161237755813 0.9539178393844862
Ni 7.585182923022222 7.3256753376209325 0.7331541803764424 1.6145422278516064 -0.06014890157575448 -1.6233701105558815
Ni 7.794250038449244 0.9668158981670673 2.090813174732234 -0.8691891915868386 0.7686917109907084 0.5880693999175292
P 4.615126637365879 3.0252214886480746 3.1082737553026147 1.567012043481127 -1.3325456900042985 -0.08657624252934766
P -0.37764169088923843 9.376970622617897 0.5872601798746832 1.295764259509891 -0.9126300363792926 -0.4229819512551555
P 9.314128888770677 5.707718827058771 0.1127568209358523 -0.9386305742081125 -2.6641498420309344 0.7465118324595594
P 1.688047785640501 2.6345352647343905 3.799908764139141 0.06225617772674439 -1.189860520296525 -0.0842131416138098
P 7.500156293474137 7.6980288548362035 10.192730587019922 0.6367177570528518 0.2580094309040912 0.8324676677960888
P 4.128460571800755 2.4563970499246417 9.934330389927046 -0.490795054244387 0.001185535667668926 -0.6206144237330861
P 0.7321832431001619 5.015011702969755 9.707258235926398 -0.2685671518152794 -0.42233377614819523 -1.3664755099825239
P 2.775404711243314 6.74372560913975 2.242538368321559 -0.36450400962392066 0.7069194148789181 -0.2577723751926206
Ni 3.070361717850295 -0.05383132453473898 6.366342896740074 1.2890616506787347 -0.5843623833795871 0.24247328294170498
Ni 7.907272335542855 1.2849324507044493 10.581810958650655 -1.834756185174479 -1.5185752881359782 -4.021241339695397
Ni 3.3323662643158243 1.9851954346681533 7.94830325372969 -0.9760411536460868 -0.35055731763584147 -0.053334706867398475
Ni 3.070825837007217 2.1210059823666283 1.751713795110414 0.18293964635244625 0.9939463160612818 0.24060074850934052
Ni 6.179932222077349 1.5113576226003484 11.887954583064746 -1.6852802177971167 -0.3552938038795623 1.792618118353848
Ni 3.2551368366040268 4.252519622445967 4.237666881186154 -1.4843063396507794 -0.15081988299976606 3.0960203540249713
Ni 2.9481127319170772 6.853508354518046 4.9603588875272635 -1.0562217770617357 -0.9107305053637347 0.5057118234552193
Ni 3.0067495462025846 8.993821693812624 1.908533160566114 -0.40669864071409956 -3.023137292712 -0.03425943540350229
Ni 2.368994130293117 4.702316062185219 11.476783067802847 -2.0600683829558655 2.645088711634425 -3.030081585240317
Ni 1.0235498239091956 5.184340936181126 7.031295695245162 0.14178091272594937 0.5775415038030117 -0.09901935338870689
Ni 8.31362722219422 4.170574744099843 8.030891401227308 -1.7971828549063953 0.8014915311295487 0.04869926497791613
Ni 9.066233564675573 1.2993294269521654 12.297835847070406 1.5496007899832152 1.67875630063567 4.061970441983643
Ni 8.665763708933977 1.3017057170356054 4.377585811661701 3.1405883704433335 0.34154662949679887 -0.967749860171572
Ni 0.6298199065644178 7.764481435724275 2.316661910635236 0.5621429098597545 -0.5460015242132016 -0.44356311784061675
Ni 8.229333900914073 0.2631165759655138 8.256862664587736 0.2642482127249513 -0.8493999247750533 0.3854708416835748
Ni 4.811254110697919 5.353614475093668 10.09182922582848 0.3152103055951152 -1.4771357900442688 -1.033822069210297
Ni 6.0667706892366615 5.346225698115472 3.2311428044294805 0.8899511067245383 -0.9473720678461685 1.959658576977535
Ni 5.3349104730697166 3.405641396810648 8.094703144112493 -0.7287403674087514 0.5102770742283985 -0.662705182255549
Ni 6.656638290534931 2.3155554505651343 3.941973781596295 -1.632954411810207 0.9150005934939983 -1.5766585654319556
Ni 0.7293112737571295 7.517430808494769 13.310296936082425 0.8168477018706448 2.2551747465778322 -0.4814449804880546
Ni 8.381815608729182 5.338112895252478 2.1463923720119404 -0.1797648481688904 1.2377725134864555 -0.43790129156914903
Ni 8.39072669654208 7.145142267961467 4.28664351933949 1.4106241794752803 -1.4135662928227397 -1.1782028814529386
Ni 1.083894596692176 2.4962741678873686 0.4526359207413004 -0.8899001988819448 -0.07097838809109067 -0.9124829692784672
Ni 8.801722774762666 3.004985893406282 5.972466317741708 2.0813972263406284 2.014765802364324 1.132321802650108
P 4.1068604662376105 8.882275295638024 8.384989255524212 -0.7808088059692165 -0.1934454309797765 -0.5074447469859261
P 8.744246258369463 -0.15608420071113574 6.2247122948137985 0.2262871601001458 0.14110548392547959 -1.3019783587404028
P 2.486861831384993 7.877847180994009 11.727358215910018 -0.059122517193769146 -0.9906650742068487 0.0054687364240550975
P 6.1930760766013755 5.439346565760274 8.06974652880649 0.16521806070296707 0.5885113725509541 -1.017836235305002
P 5.154080367149821 9.282104666943068 5.106051460314919 -0.846941950152864 0.8239251775427164 -0.0698977534324022
P 7.720882082123036 2.851501688212222 0.3930550880906134 0.11184812972225898 -0.25395840076316906 0.8685710983868653
P 2.059305981645436 3.305020363589988 6.5776554206482825 1.543016709007794 0.8602636069624344 -0.0929662052160915
P 4.8562922336856165 5.6702458463289 5.300748518405326 1.3802311690057198 -0.09838917600387571 -1.8098470806376252
