# total energy = -340856.1972925673 ev
CRYSTAL
PRIMVEC
9.46058657730142 0.00000000000000 0.00000000000000

0.00000000000000 9.46058657730142 0.00000000000000

0.00000000000000 0.00000000000000 13.84652474662869

PRIMCOORD
 96 1
Ni 3.8227014410438 6.015116732977228 3.236597279308258 0.3526154857164508 -0.026005422924826178 -0.23344536841148184
Ni 6.106922266686793 6.335915768690092 11.166128070793285 -1.1843323913894441 0.2898810828017072 0.3806047718405251
Ni 1.836148516538251 1.5347815259860882 5.905708831582171 -2.432137606521553 2.044358428419776 -0.08083574050114466
Ni 0.4046292948019466 0.4645365682056025 9.127075512300257 0.586039513971694 -0.5614703092727621 0.9350611116892993
Ni 0.9216560364082889 2.91527034285539 0.8209102482309232 -0.6760988299536356 1.15686709608964 -0.0018303683405194284
Ni 3.897033271047515 3.5437181987147235 11.62557011304025 0.5401944306131212 -0.8956723254790318 -0.5219038598340496
Ni 3.3791512924000204 3.666516614579331 6.437249059303913 -0.33860785858344905 -0.611678811806353 -0.8628442232054172
Ni 7.33722426908378 9.133042304356174 3.406064769553459 0.4268239507090649 -2.158462701166063 0.40582909362495273
Ni 1.2676902411871973 0.23959219732634407 4.122913293955203 -1.4592452829170934 -2.034806780175599 -1.3698444264547571
Ni 1.2903105040787441 3.062902798908333 7.884224987653437 -0.7508739660829972 -0.9531735050192941 -0.31351183484676975
Ni 7.696953619225216 5.464397057760699 4.401007241130868 0.4174666778638811 1.489460630158209 -0.9836912139921768
Ni 4.816933422557154 4.447015020498447 4.642476418866114 -0.39212074289992466 -2.577733779228535 -0.31776366814458823
Ni 9.700885641569231 6.844810189936094 8.806237688181763 0.10290506159635826 -0.5486245636583454 -0.9627737471132192
Ni 5.014470473655229 2.8897929827688422 13.609125923667072 -1.3315115923128296 -0.30559977908854463 1.0036877117187617
Ni 3.485573432620434 9.346340692960446 1.4808580736944787 -2.7438555826926936 -0.31217846074732686 -2.3540395766665463
Ni 0.08924549893815016 4.838588705601383 -0.049903648986457515 0.5118505893631056 3.333033899403685 0.9207272115651305
Ni 8.006295884397861 1.1263585359020376 1.8057809791666173 -0.4386641378771026 1.2398833891818712 0.04909238665127674
Ni 5.804334860445374 0.35184868138833747 7.832799130260769 -0.7603657076235163 -1.4279588140989858 1.2322965779735486
Ni 7.189667497724743 7.078316391813617 13.237388250778565 -1.716577742358818 1.3355847339409386 2.2907960953258675
Ni 0.9116467356390474 4.487875294621656 5.965110909653995 0.6976102216628501 -1.554859210168677 -1.1277220990945676
Ni 1.3442926120081318 7.588506913442782 2.7870973676646895 0.063141151434859 1.7769547007849784 -1.6299487922146638
Ni 9.041009716564886 7.144417511354912 1.4797369941659768 -2.8634635588660298 -1.0002540034468643 -0.3038601706896186
Ni 0.19767233748843377 7.995236458500656 6.060208727548528 0.09418953610023133 0.06616554008347958 -0.6491223013647918
Ni 2.0122573386738187 9.37493058608393 11.866388402407892 0.047023162827073854 -0.4390171503411472 -0.41634233445145075
P 2.455722342036953 3.7694004953595783 3.619647921818557 0.6399835722883173 -0.5992205314383421 1.550222225617298
P 9.163079667250637 1.107900931175393 7.006148197996977 1.4706527534230864 0.4427303375266763 -1.5601363994072164
P 6.873210871324812 1.6949587200541676 13.87712542479285 -0.26583252649293576 0.677409321234943 -0.17126863777242118
P 8.380528314009284 3.5525827684886173 5.1878082899351154 0.25717845036236353 -0.5181503063288883 -0.39073337563409477
P 3.9616301572974026 5.552900846698558 10.991523481949125 -0.598162522487473 0.7449941102634525 -3.0100506347313707
P 5.874153990574866 1.6201727818870084 3.968151339736191 0.7565036535649488 1.6197520541873203 0.14656419304720567
P 8.95619555645501 7.529633682169634 4.080598927650301 -0.3907066361612174 -0.012513044865346191 -0.7107015076291695
P 2.9984951243932136 1.5373264238187214 13.090837139789823 -0.654523417775705 0.9679671183887006 0.5720732815995889
Ni 6.356028976095959 2.7101837435400613 11.827216843017492 0.7052412558455466 -1.2418459122248808 -0.9391427379578406
Ni 1.8124402861717865 4.990866309742887 2.037737536936388 -0.07290620124142283 0.815248732814641 0.8725226268354456
Ni 2.9906901403340225 9.018502980714201 5.612633099247554 0.8219937648479586 -1.458776827921107 0.29684311594183715
Ni 5.87836395167346 8.50477419964487 10.108226340530406 1.026210061190994 0.7353766417783464 -0.5890394771402824
Ni 4.532614409307613 4.7894882604290165 1.3298131840049898 -0.10593742066477885 -1.6098913593431565 0.2605689641011512
Ni 3.820743099588949 7.715420684538598 10.513430839006048 -1.7826859468418008 0.0004864527181152912 0.5054606266763617
Ni 8.256064834878718 8.801221685093058 7.805936740275718 -0.7677368032766069 -0.19848762138937429 0.5179775281964498
Ni 7.345010331969494 4.538158313136323 10.494350727672018 -0.133678338223473 -0.4328832695292674 0.008733523218255925
Ni 8.266679613199216 4.214341350253905 8.430041240763446 1.0967801581000725 0.6469240081618923 -0.8356324386773156
Ni 6.780336291313806 8.754647216579848 1.0741521801034504 -0.09929908941265479 0.12681066456936224 0.46867482530657995
Ni 5.006012709111086 2.4032255462254963 9.532682085712281 1.6128198458438607 -0.9609927439533965 1.1185340048373962
Ni 1.970782126412614 8.000562768834383 7.6213900208281595 0.647055391533434 -0.5570007035371827 0.5965902929043467
Ni 7.991934713728949 1.8717108620879472 8.577354875043305 -0.9570813247141323 0.20123433089657602 1.4152066566396402
Ni 1.3822957889363388 6.042315919850167 4.194749421177325 -0.10141279332154793 -2.058337002087055 2.354609590237403
Ni -0.05214296986744 7.8045772539614084 12.704159308324018 0.9360407019937491 0.36520540656631945 -0.047471820328718245
Ni 2.8939840226939593 6.807052988263085 0.5920236508577679 -0.8322660933082441 -0.3768309066203897 -0.3362627553900402
Ni 0.6656289077999729 0.9424740575261679 13.633150137630597 0.6631024176939676 -1.6975873172992442 -0.12415471500375393
Ni 8.567554653240983 5.732415480059954 6.3645548568646175 -0.023264369844579285 1.2014261136469373 2.499506165774198
Ni 4.52839498762228 5.6097022094759925 12.917257132489434 -0.7100587318388482 0.2629742311085342 1.6497136335464169
Ni 1.9583319942648616 6.362320266277004 11.930637139065807 0.5598029488726681 -0.32278194729478604 -0.20531312895163994
Ni 5.0667118336247485 9.379869012361382 2.7931625498226866 1.2305772812895968 -1.7772742889079263 1.9114889592508433
Ni 3.7247465259542665 6.123213397050341 5.854407853934449 -0.9927065301169097 0.7783387471621692 0.3977522301540892
Ni 5.178204848336952 6.253249161769834 8.873116467952958 0.6178864832789617 -0.8219351436958813 0.27922565997039006
Ni 6.800004851142967 7.612413816130753 6.112216411025608 0.4091275618705664 -0.5214994253067793 0.43911845180570175
P 7.068070576375915 5.651659911660857 1.404065545080102 -0.13124890284637394 0.41153977085648474 0.24676625389010406
P 4.7981163155344495 8.510299182300104 13.278291097542098 -1.02059580032801 -0.36788526739132776 0.6130021586034669
P 2.3567362229929323 4.629500278095706 13.978620491439896 1.1828879456334338 -0.2526733634031584 -2.7255153896226094
P 6.118123601385075 3.8446689234503966 8.336687955063477 -0.10190310269440513 -1.07917170098969 0.8375414827745706
P 1.3446521143041914 7.90409316586278 10.369039579969686 -0.16615728468778482 -0.2006352638599964 -0.0312818408324171
P 7.6576638025005845 0.2612947833042647 10.248505082511581 0.37913692904574703 0.33867573570690707 -0.013576967353486295
P 0.35580509876234206 3.065400393807274 10.199225832249857 -2.29007335822723 -2.5384720055144347 0.029158109621194944
P 4.203263003183223 0.39602110692866405 9.374000610407546 -0.8290131335885851 -0.6322368384633628 0.2144634279923403
Ni 6.66700792277435 4.717635104150766 13.262589361732353 -0.2945108682642347 0.005323983316074702 -0.5895521551106427
Ni 3.7580667124469587 4.022073845969127 8.680192398948533 -0.8739058803362174 2.085621805944937 0.5008002450862149
Ni 9.083014721683442 4.64551705144384 2.702869763932594 -0.19212311262392717 0.15756105837834156 -0.0017648052099066378
Ni 1.6036356762682615 3.3020569710686885 11.877991812042557 -0.003265815235465343 0.083815649065075 1.8665687016993853
Ni 0.4801295072678557 2.376679139837508 3.7150503706060665 0.6766392758381379 2.008157810129503 -0.1062688358622686
Ni 8.10499818583973 7.4714699949018675 10.464040899879487 0.3377689076219215 0.5341173711811059 0.8439980370331917
Ni 1.2539723904164977 4.688903302226204 9.502441320202943 1.5708717835468495 2.7358329694985337 0.47664498799625
Ni 5.086522302254986 7.024665404420074 0.9928885781964997 2.016787717890359 0.6604762929250302 0.8654626346648707
Ni 2.5153618808359117 2.1727467321042657 9.88423086650101 -0.0899508154285354 -0.06310695576281389 1.1620663809023921
Ni 6.676411745992334 3.853495650877336 3.197106898144772 -0.5754601957939509 -0.8048301085844786 0.5317419289703939
Ni 3.216958993356659 1.3761558681431085 3.8771934745983883 1.5638390450697843 0.6596892782473606 0.6769907456402857
Ni 9.306312950470218 1.056747538680791 11.461129032529168 -0.6476626861001298 0.8360618129052504 -0.7735719219011452
Ni 4.447166389886262 0.8005501195111835 11.660435213347325 0.0788899296286835 -0.2534855748918086 -0.6603886183072304
Ni 5.720031572019371 9.471371807295318 5.1773127150075196 -1.206374201680832 -0.4379825384290457 1.9475173136293105
Ni 5.607223535750529 1.99668521290239 1.9642543215631085 -0.43410094398645244 0.9218932068487736 -1.564880598960421
Ni 7.658534176480519 3.52799470355548 1.182500495783805 0.5508843062267996 -1.1552712123574296 -1.272896353772782
Ni 8.305704533495172 1.13725713182469 4.81611224362826 -0.3014597887782421 0.6348089700659131 1.7364580262225127
Ni 4.570541901541913 7.862646335361791 7.348724558322996 -0.3392539768078803 0.4984073193740062 -0.204965258693918
Ni 6.08403710736657 5.136578266687932 6.700997918808122 0.18908124047380984 0.6162543469921774 -0.21866409633724923
Ni 2.397587036529402 0.9295158918705628 8.01942244849741 1.4899329418089373 -1.5070703728201722 -0.10459916146932953
Ni 6.511948906131753 1.938966173211329 6.6506240786607655 0.6948437146613066 2.808493116167421 -1.82978315743992
Ni 2.896860041062437 2.42037758998224 1.8564310684467358 1.035839870971274 0.26451457901246056 -0.9518115916747609
Ni 6.592874765092142 9.380569095780025 12.68298746126212 1.5005924784053124 0.6432810120926663 -2.1798913033534846
Ni 8.611953186804357 3.554597873463899 12.359422149986944 -0.3155329790418566 -1.954088539088925 -1.646086321206475
P 1.2829312464227816 8.171629098238377 0.7355568346769564 -0.39603164791855666 1.4378467626366593 -2.2488547178970753
P 8.213151613433274 5.853879953194446 12.063660557077293 1.940022290803846 -1.6232397556256046 -1.1078495285403565
P 2.101849095086595 5.320227176454016 7.532025318497104 0.4470531332717462 0.8046467889290788 0.22690422485885436
P 0.5681564826340982 1.1225269982729802 1.9093800803042884 1.8188742238368998 -0.6019441010170923 1.7805485887838242
P 5.783247212605451 6.2801172281069295 4.687754786996161 -1.254961366560916 1.1508118910344955 0.0224002220720711
P 3.894810033163988 1.4140928209641466 6.500874343295766 1.6342787870485853 0.2353654682523301 -0.48371037948346374
P 3.1403944648826783 7.899230424279235 3.708306864378925 1.444208700298945 2.2682282373276803 1.248224819168031
P 7.310933298537728 6.977892263585357 8.524931871808407 -0.8035499563204743 -1.074895185101523 -1.1414402200116083
