# total energy = -340869.5313778816 ev
CRYSTAL
PRIMVEC
9.25952773589566 0.00000000000000 0.00000000000000

0.00000000000000 9.25952773589566 0.00000000000000

0.00000000000000 0.00000000000000 13.55225480888739

PRIMCOORD
 96 1
Ni 6.231763825711715 2.6803646692143155 11.447304699745594 -1.2729858281627948 -0.5604701501430218 0.5261618637794552
Ni 2.6863463239441936 6.117232730736702 4.573113007950495 -1.4471055622307658 0.7921856803475905 -0.7442135233436861
Ni 2.9360294815156394 3.7179410171345224 4.4648719099692995 -0.6277327799454221 -0.5586577795246314 -0.5335969799012616
Ni 1.219433466952404 7.061954537432119 2.66841154523475 -0.5379110338955834 0.007163350517658631 0.03442732843993426
Ni 1.9976874892302625 2.3763743831742428 1.4924015581913788 1.0675634273268002 1.3142918860004331 0.5396125899677223
Ni 6.512651590774938 8.598434224122936 7.485357541316541 0.516992024354729 -1.2801877452278727 1.9116216281739662
Ni 8.297925520402421 4.64704200102916 9.95922641491858 0.09503028683397181 0.8057868160707928 -0.12544463745977108
Ni 1.2239706354007631 6.066277551203394 8.326735614096757 0.9597053926005408 -0.819519335165537 0.37813137059936813
Ni 1.409151924785942 2.135274807544897 12.690412000518243 -0.1993278579024825 -0.07287689066538416 -0.6791003357841208
Ni 8.332889496037124 6.329877778525623 3.8907441702303815 0.08663820611553466 -0.057385479898004396 0.014524675978736275
Ni 4.4010163567987375 2.589612040719684 8.281443561549196 -0.8093308246683094 0.23530376177645926 0.21483572373009452
Ni 8.954787137868054 8.726873129321286 3.819919896704237 0.67771502540082 0.6221174906411737 0.4149079159977693
Ni 0.7565293189849187 3.0374583451550836 6.145825225536067 0.353877640258326 -0.9081354909430489 -1.3653791915945517
Ni 8.34368610503873 2.422560906073051 1.285550196725189 -1.6799963436903584 1.1214339520930103 0.0032480746236524705
Ni 3.794230263759078 4.930411319447812 8.769162317118228 0.5782135901693719 0.2558283640923723 0.8051874919238972
Ni 1.941880317315443 3.4715079536964932 8.163186432730063 -0.0023939541534732964 -0.642012686903204 1.2556357669201212
Ni 7.707982507786364 6.088518936127801 12.767050331327498 -0.6583016538712146 -0.9680702196254682 -0.8473155314421987
Ni 3.009374198412484 8.196968892662703 9.780960140629798 -0.7694471010994942 0.4641638248101038 -1.6959263846570534
Ni 3.1913794698838114 2.1882578235887986 6.233183311269131 -0.4023203091407458 1.5789645878573129 1.4228798569141818
Ni 9.198127519139241 2.437478004787963 9.05756789251456 -0.6247189328197628 -0.6883257110371307 0.13216524401305624
Ni 1.1442646231487696 8.525089507226092 8.438772192377916 -0.3059507346700602 -0.555487866437082 0.44119153228464664
Ni 7.798096228887247 6.717222330631269 1.5007629114747836 1.2055722746048272 -1.0963114459937702 1.2414569043165782
Ni 0.5722637968641128 9.210535285916388 11.457875376277526 -2.093829024346078 -0.25998429524227484 0.06176869656736459
Ni 5.339756508764276 0.734140707574127 6.253809834607019 0.058928398905092064 1.3579062802562742 -1.9305151226443589
P 1.4100408394207227 2.9528170047745688 10.603486741483454 -1.2474012948254711 2.9330923749077615 0.7406790278278663
P 6.659970672434931 4.444137976113042 0.2421162717428761 0.7885455124918419 -1.1910668818998003 0.17943266164045227
P 6.130918312301346 1.2870372768329574 0.40234776442580156 0.06891070692878455 0.34154534394521824 0.3264113165172572
P 4.796638926440777 7.457651183293724 12.761548320119303 1.9773135710551366 0.22859395385645148 -0.49026514988284603
P 4.340699795017896 1.1398478285572036 10.280862582411793 -1.3661716055888602 0.18486874505435902 0.6518615546728257
P 1.9388709708956129 1.1630151662261727 7.804092698861037 0.4431789950283206 0.7206406211197525 -0.7988942027160176
P 7.299415118775332 1.3968089747009158 7.208268034411517 0.39902081245386767 0.21282306417543992 -0.2869376839026671
P 8.841450521933528 7.715686434621128 -0.11130229775472099 0.4425375047895798 2.5412415978397718 -0.5902790059743382
Ni 6.933423036959312 0.48352141177792773 2.5449774146207638 0.09309630303605257 0.4234347225218579 0.6072932811441476
Ni 1.769588290134583 7.438595075810614 6.217936573377154 0.3032194517818262 1.0641693140435866 1.2449407491001203
Ni 6.778464845156673 8.4349943051801 0.5564735247110779 -1.141003903805138 -0.22809001763683945 -1.7390615252836306
Ni 8.211969327124626 0.7714334543614066 13.153384668988824 0.004774538570507906 -0.6068857612930838 -0.30366348129778026
Ni 4.253484306007496 3.93097496507616 0.8463421054438188 0.29946872649014233 0.8880973413452512 -1.1495060277388784
Ni 6.874004649340697 3.688727208043556 8.123831589180641 -0.6574477905113516 -0.5669842971124558 -0.3358611490762474
Ni 2.7428757389997718 0.15282572263190966 5.442951164287603 0.6309906247610875 -1.1922693868483338 -0.9353467612505181
Ni 5.202650685876815 3.54158405740503 3.8142280651834075 0.3817283439220071 -0.33867650703785546 -0.13586840389625632
Ni 5.594291658717233 6.155289388538247 7.648566898025981 1.2575502103340146 -1.1787608108389378 2.6786475214264773
Ni 6.70087926468973 4.743628131814539 2.389154382954703 0.5030741287220561 -0.7284027815636746 0.5667963494713658
Ni 6.069157264238985 1.3157603309693056 9.059830921022273 2.0716044086199226 0.16565463401975344 0.3323063418454535
Ni 0.49564676296798177 0.5637237347010071 1.422566202196428 -0.4419209542515034 -1.4872877908766062 0.18654227610204002
Ni 3.2020279264462874 5.570207627831147 12.759054729378198 -0.29791423751882884 -0.45732417618045107 0.35791298666996424
Ni 5.4090455526399355 0.32929009287977123 12.053930602960444 -0.3384625912548364 -0.29035468000401604 0.6497313957037004
Ni 5.327015398999087 8.45517081548413 9.881057484222561 1.0412209327775293 -0.9078691246555397 -0.5732505897371417
Ni 4.635245363063426 7.232265025739615 6.009584242512028 -1.0912934239538883 0.751057542848713 -0.8451599185517769
Ni 9.178756587722981 4.907484729492429 1.8030596299450508 0.4021377608162945 -2.2500225129529317 1.4039485672273175
Ni 4.689283965236129 8.475013982800117 4.0481802115774705 -0.2846347468011034 1.5794199302271765 -0.5844415733569548
Ni 6.7812427033903635 8.13517080649056 5.1952162112907185 -1.1435402970737467 1.1791001964562275 -2.290654941762313
Ni 3.926280384661225 9.199451631563967 7.820233907104262 -0.862648048034211 -0.19699072512887364 0.27841601958490114
Ni 5.237790592532986 6.023637427316261 0.8639722457003005 -0.11022447807590693 2.042564312633831 0.24200251395287353
Ni 5.5922082650419656 5.00050594221124 12.039091284276074 -0.6151276895869019 -0.09425021413483768 -0.8196658880457304
Ni 7.086927482952986 5.747129418734822 5.958248496400704 -1.0389372789496751 -1.2117017845413325 0.09779987915930899
Ni 0.5107759048613987 5.296181172605136 12.057237180211278 0.21862912933425574 -1.4050117183845094 -1.5001926718637324
P 6.981776289280398 6.995471130372486 9.529335260153003 -1.0124502884027402 0.267688605865068 1.669916590856853
P 1.0359188925074387 4.871289236707456 3.7429019252697104 -0.7396963521996229 0.04513031667973518 0.2552501229913991
P 2.0833288585749057 3.9684760512309665 0.1619658021734922 -0.07528061501087034 1.7669549092597892 -0.35168911724743945
P 1.823219473099679 7.2482284510558825 11.305913567556294 -0.030120473534464256 -1.40962402034554 0.6523495500528378
P 7.278571922495216 2.6485952305483553 3.2882109781465 -0.2769090960220715 0.5889759708921986 -1.137774341124247
P 5.4503986022121245 3.8431668663092386 9.88856510907548 0.1670206611293446 1.4041763669674074 -1.1590828727940359
P 6.383907121170882 7.426344721000045 2.8769805490421048 -0.13690790090436422 0.6558706758322188 0.6864405781992758
P 3.5331949255392883 6.900949874207483 7.838637217902455 -1.3759564528897659 0.6815855640998196 0.802110138550154
Ni 9.258268149898617 7.080269882719578 10.308847652210725 -1.3128623526427583 -0.43911536648190824 -0.31489920211259964
Ni 4.07085864619731 6.69377720713893 10.909524309041757 1.8422234400858015 -1.3404433475848205 0.26128733032441454
Ni 7.229931624823315 8.238534911366141 11.569274899070425 1.2762372452205568 -0.5859600668840101 -0.9690870909257567
Ni 0.4609874257862396 2.669743991234177 3.147470790736629 -0.041449011173406033 0.05919450808228515 1.8433251577904124
Ni 0.3197101857845212 0.3536463538727596 6.512562699311459 -1.4452751938902464 -0.04283252178449397 0.35622042945888976
Ni 8.31948170029585 7.060973027522882 8.008623622749353 1.5435535553478708 -0.4817164889818865 -0.47604746362156725
Ni 3.0943396222535964 7.724223718926002 0.3664791329596599 -1.1895136784800677 -0.5340322676664673 2.366292940112602
Ni 1.0431505834424766 6.186401400755568 0.42032143315051634 1.071654052456406 1.2630490286650569 0.30783509617696664
Ni 2.5264342849581425 0.3514620313483352 2.689811239114349 0.6031574045989031 -0.7554523294822989 1.0511045104398284
Ni 2.283316132345649 5.203465524292031 10.541065489114219 -1.6759196025178233 -0.0445531040200265 -1.047692399434486
Ni 8.392946791049487 2.9361405958449867 12.375363060849853 0.5506194826011872 2.5416786853771907 0.08312607919721812
Ni 2.7444591181929754 9.00371448089077 12.031718848523864 2.096040944395732 1.2378432188233908 -0.4651241318408441
Ni 7.713917864879013 1.3893365360522913 4.914928463605972 0.4056316329021659 -0.49616840274115837 1.2869191504144353
Ni 8.154689890345951 3.997680600794487 4.7927415913389115 0.20893658463684014 -0.5311737151717497 -0.6525243850678053
Ni 8.302666398454583 0.1733281683020263 9.285394861503338 -0.4569477666776388 -0.7279844630793333 -0.032888523197904654
Ni 3.5395654804218823 3.3740514273312248 11.01432364067141 0.907249745903986 -1.2416739054233905 -0.10571039225563729
Ni 4.79169433878481 8.862099268137285 1.6167838644157984 -1.017642631236957 -0.3741345907351492 0.2844786808392133
Ni 2.9414000074341056 5.033238371731547 2.314779080653159 -1.0922190210919513 0.7143097938057182 0.021985503132155686
Ni 4.674940957222846 2.0721803875303655 1.8357337244424496 0.2585951282042321 -1.8075048056576934 1.629810723974903
Ni 3.960262850386692 2.043272142845105 12.983751052137606 0.05190491639940738 -0.45207424063542145 0.170754417140164
Ni 2.0407072537426654 1.0952261657967066 9.986941106516097 0.9740647466460064 0.14016677416129408 -0.4875770615277216
Ni 0.5479732785159884 5.545299499002399 6.0714777018168595 -1.740141645721687 -1.1822107170607512 -1.2786697659214497
Ni 2.8070905618352247 4.981931330155303 6.551037887753547 1.0767720904092615 -0.1869737072125038 0.7228805661938648
Ni 4.789009075825578 5.94776485942676 3.8539495860196764 2.26345652697065 0.09614923092976344 -1.1146246424806612
P 8.913110004835268 4.160055674081076 7.621760566070879 0.3104054280073041 1.3464790122559391 0.7834606417697668
P 4.859288889137918 4.638597311998744 5.749611898042996 0.09053497006677956 0.8558629067915777 0.13885602576967054
P 3.311169976447943 7.388075094067251 2.7335300979488966 0.018766224863909615 -0.08701333006676627 -0.31370518180449847
P 8.439707404649926 7.3448979175882725 5.933962607816302 3.276014801706164 0.6642892389132172 -0.41139887440324635
P 2.5073689179475873 0.6311358723634362 0.41114524145189585 0.16565746223323083 -0.7481627377994212 0.7040325802494262
P 1.0445395125593213 1.2103869086380221 4.757735947830702 -0.47132871798965925 0.4031057811565186 -2.0826609235444002
P 4.395664349935163 1.6467421395133937 4.530789559902004 -0.40596124832744274 -0.9128002434085699 -1.1074348096004412
P 7.895358305176158 1.403151751001173 11.028418493349148 0.4789273562725236 -1.3629818950069688 -1.211784574063126
