# total energy = -381173.32270965434 ev
CRYSTAL
PRIMVEC
9.25905617373328 0.00000000000000 0.00000000000000

0.00000000000000 9.25905617373328 0.00000000000000

0.00000000000000 0.00000000000000 13.55156462999861

PRIMCOORD
 96 1
Ni 8.06862838446521 5.424251264561421 10.89438670678241 1.162130144260792 0.06580687119248022 -0.7915084517749079
Ni 1.1545857586958037 7.776551464562252 1.2250203232034529 -1.0218543553254593 -1.6123503624066102 -0.665406640347112
Ni 0.36459106837669447 0.9967095957138621 9.003063421679046 -0.2282525113566327 -1.972399678693287 0.15876870553319755
Ni 4.913262484862436 7.809550739963557 12.28484506396114 1.7387331954099345 1.3422711448221787 -0.7849961045776869
Ni 3.3502412501558756 3.097811607825416 3.1422143365331867 0.21752921140185763 -1.8168641353854065 -0.2603974715202935
Ni 0.2914241564585725 5.745512728814803 8.750908773310265 -0.878085465635204 -0.6537014360950419 -0.09047403492185707
Ni 6.23189093780204 2.882751515304065 7.263814575100145 0.03127592729514614 -0.18885909716067473 0.3259739718695225
Ni 7.957704894199322 5.446815583908497 13.386397727899352 -0.048592049976090505 0.43387802934236885 -1.4981033934348715
Ni 8.97396961607692 4.150834781819506 4.351082236634065 0.8023258541053859 0.05142283455666627 0.9140492853243225
Ni 3.8332954580575165 0.18949120951890944 2.6449946989355713 -0.5134806687673609 0.2287183952494577 0.7490795931867357
Ni 2.24587661092603 7.053900665875103 8.186107286342805 0.3753324676979923 -0.8502077653883293 -0.09085147286593385
Ni 6.876691594072195 0.736962521467114 0.9631316293157616 1.1305407994902854 0.22981085698268808 0.12674510143874945
Ni 2.7563191063240393 5.035037588700245 4.494755933696236 0.7717559517383289 0.0525705750078643 0.4073946383398596
Ni 8.702947789401392 8.6460138543726 2.864678763997722 0.10073145098380716 0.5466425002313102 -0.8648368281554137
Ni 2.5800729763398005 2.060639937615566 9.93252449403722 0.8787341549627963 -0.27322650496416173 -0.3646377069883075
Ni 7.3494219545909925 8.009111172826719 12.984688956035356 0.16246800876165568 -0.730653011050432 0.174685376763454
Ni 7.202730731195127 5.344734492073654 3.185417091590001 0.02889097200273734 0.8287303122408437 -1.6224285725782188
Ni 5.7937987055874745 8.295577104824742 2.155146195778746 0.7292309338919248 -0.7230075786900322 -0.004446722917443954
Ni 1.7313323537427296 5.467546610177722 0.3090395104010476 -1.227030187368287 -0.9148452988630567 0.3728112439380354
Ni 1.0776707809296322 2.922269166093281 0.43388306538026944 1.2693410323213559 -1.0709981640399622 -0.9225606652294435
Ni 0.07548445362209129 7.841040789245216 7.36841875968102 0.19528402685041207 -1.7353532231941082 0.4101482898255969
Ni 8.216625134749847 6.1939473265241105 5.684569622560206 -1.2300705168565071 -0.937492089728295 1.2617971585358267
Ni 3.2178923044246064 1.8156360581559945 12.41111914308444 -0.9088844532939315 0.37081169700950334 -0.4561766928395692
Ni 2.4563534707527555 -0.026257756765027743 7.930551786724052 0.20452431450175743 0.191922823687663 0.29471372830366016
P 6.303741211964252 6.230066903780139 11.779033022443095 0.2460154917670086 2.635358628830855 0.11621591977265147
Ni 3.915738092225084 7.079724172916134 3.625856494487572 1.311072350621871 0.41137856268827216 -0.2837235478407436
P 2.4582330591103494 6.202400844605308 2.333646905886503 -1.5895505909032754 -1.1317859847512959 0.9020574030697691
Ni 7.5589266135431 9.227408495505792 7.815010805256527 -0.4466193881684373 0.7302606607080198 0.24394112573648308
P 8.76874264097313 8.336094733656422 5.2403488212131695 0.11309434342453427 -1.3067721805846202 -1.439797715715443
P 3.2550859321706893 5.534202553952691 6.849530153446571 1.205975937801149 0.39179138458496393 -0.8960294517081342
P 6.918449936401006 4.4289397862958175 5.12360231066112 -0.09563912406256432 -0.9515228567897485 1.8414618793294288
Ni 6.0260713831175305 7.6766092146515685 6.048821809489176 -0.49132495860592806 0.6021970975681629 1.7205177008431722
Ni 3.2852241592838336 7.487122634660633 10.778223516755132 -1.9224529144615148 0.9796815786121515 -1.7748517955093626
Ni 1.1085775096865216 6.5184587194154995 5.215183633050093 0.6976968678393856 1.5674887260072294 -0.06991703670611185
Ni 1.7399525348310054 5.7414387441973584 10.895172800632459 -1.0620620378925967 -1.2815568576612575 -0.2795681309114733
Ni 3.3964624574519786 6.310454027527088 12.641291866725323 -0.5587901913374376 -1.7567553430189682 -0.7959752292970098
Ni 3.5586996357857763 7.39612463279643 0.9916643361273945 0.7489057866130328 1.252674113188636 0.9481428845739219
Ni 7.108056884119275 7.55585260696812 4.163866903067356 -0.7175738092689706 -1.0540700208260558 -2.4158051879101166
Ni 6.658011210674887 3.882248086858497 9.652061208010764 -0.4393562788481208 0.1707834706058865 -0.8798842094068394
Ni 5.869815554926618 4.2857947813283195 11.906146897940948 0.3364483890382851 -1.5789203648829389 0.1894532791012479
Ni -0.2280949914859852 0.4219546236015095 0.04750914197857254 0.6304990298366497 0.5057686448350838 0.16286730108260336
Ni 5.710726455615392 2.1317680054137758 4.725199947676417 -3.026078120507879 1.4680893635712844 0.9807365022392271
Ni 1.8796809481534194 2.136545678283325 7.589269465792711 0.5691496801948908 1.7212543218988807 -1.798832474694676
Ni 8.69570720764948 9.148076904137 11.269616430444206 -0.18981940419141505 0.5346295349308341 0.19186728785937923
Ni 1.393182371438848 4.075697542795492 2.7728668911156253 0.6459212779289908 0.34586968235218496 -0.9121214721739904
Ni 5.7946597977907075 5.4498525542596825 7.444809674880492 -0.14581240248284566 0.0659415969981316 0.6910762771990743
Ni 2.786225857038465 1.1319288487892403 4.951755158158127 0.4209320107046622 0.0023080793078863477 0.12408529521839921
Ni 5.3409382791346705 4.177306422776949 3.6603724032532794 -0.4746557254803631 -1.4076560979858916 -0.1395111428551662
Ni 0.1594853869058323 6.143244736148818 3.027189084482007 0.46656497805242875 1.058599533265293 -0.9069512408269605
Ni 0.46759251037284194 3.2883074249147635 9.062703778761657 0.013946434877763078 1.9814666739915616 0.5456037745541508
Ni 7.079326033510339 0.5295605941209647 4.878875276974415 1.5847382571162965 -2.0966868055098473 0.5614006323770911
Ni 2.50454685696594 4.830819850694867 8.788473689199892 -0.6172437074886402 -0.6893063297828452 0.35223059157320624
Ni 6.402859405895499 3.9463114949678193 1.1928395483480172 0.6743257972136129 0.09789938085165076 0.05719804647754665
Ni 6.140541091811786 0.6933884782667553 11.893516619721272 1.0346275958307278 -1.5960174295745415 0.3635714705073222
Ni 3.2777150649094065 7.71645093239899 5.982405675263279 0.08552646110859465 0.054024533845571474 -0.5216832591828112
Ni 5.066518378925957 5.752642201895332 5.232651768002984 -0.6213243053159171 0.027300487587165887 0.5819612301372622
P 8.705753283353861 1.9538182091349692 1.7987808727069108 1.5119824654098089 -1.3286813219528857 -2.085955535135272
Ni 7.579213205126787 1.846218719954678 10.408983476386574 0.0031264614441236477 -0.7873129256363215 0.1641749641504334
P 7.965473242140314 2.320402752257427 8.399178533646367 -0.75150337213688 -0.17577783849668438 -1.0792362356790381
Ni 4.559418402725441 7.6300176451175155 8.018921142604407 0.7101402358090608 0.039623270818576924 0.650952412594995
P 4.806922227291174 -0.09099800186420277 4.703585607469681 -0.12308179365454931 -0.09162331803495188 -0.18189346447611898
P 1.6788983199050231 0.13421001597696572 10.636148858655307 0.40114042990003174 -0.09973746250165404 0.48056412054499825
P 3.2989368211439154 1.9664753386168947 0.9665880349014256 0.5494205771970796 0.6837627742567965 1.128279257149618
Ni 5.336873553573175 2.0320387137899125 2.256850444036475 -0.5715384921420416 0.1355606428478504 -0.12023583956532195
Ni 4.436180368047731 4.950419076384724 1.7647927301302813 -2.238751568024802 1.0235335428000953 1.2598886286592046
Ni 5.431121484075385 0.6141624401357788 6.814593883540791 -1.0092623775930618 0.2237718498774598 -0.0638057816020514
Ni 1.6695374143408486 0.648044103568998 1.5948297955128563 -0.20374732712641683 1.4229829581509492 0.6441058219868069
Ni 8.02275902129516 4.429402739093255 7.518083065942025 0.39237991009858225 0.3742610890106845 -0.25321920860429936
Ni 0.563925580274708 0.46743973594968774 6.219477321491567 1.1826290355450924 2.4576432069918255 0.45117229764644234
Ni 1.8586258549259878 8.23188405895337 3.6010440763561427 -0.6781680537778385 0.5406181484141012 0.08232955143785177
Ni 0.5267217675670814 7.754598242907793 9.72530682190445 0.08385550116407493 0.8516645524395138 0.8005517929240987
Ni 7.85129056418047 2.893149435134498 12.446569290595377 -0.0540085930059715 0.21139867302408755 1.1124260921674454
Ni 8.79552908983283 4.156584655563672 1.467119636811905 -1.3107558478227168 0.18490319783672027 1.3255687444658333
Ni 4.570390384024697 9.19402033975464 9.890595785078952 0.19952583284590156 1.045961018565676 -0.3399610301772339
Ni 2.1027779012382757 8.890628853482324 12.712545857684436 0.3104565929602137 -0.1775195037781394 0.13891079026700592
Ni 3.6313647068714765 4.341765774538444 10.888465540503192 -0.3017498092148352 -0.16238779034302356 0.41162436015049103
Ni 4.327173502363232 3.581625058314853 8.746003325468623 1.609332401515893 0.13591159842936593 1.4192797982677492
Ni 4.903197891046157 2.2313584111984084 10.893370988344834 0.33301905164176193 0.992748953319071 -1.393786281982335
Ni 5.572192460510365 2.3272637127154425 13.401358510501323 -0.43524225667974714 0.6507778346903438 -0.6397061502572144
Ni 1.2399820317110197 4.713294653537528 6.607986383195043 -0.5156882179416409 -1.4659347791221269 0.0685055010705659
Ni 7.506974050614728 2.363327735635779 3.3575623856945436 -0.5196045222769116 1.0645531797455665 -0.015184935270554496
Ni 0.7489307771864534 2.2940051837475735 11.322806003247328 -0.4647191830929416 -0.7393016878643656 0.7537541158442697
Ni 0.5362919277956976 1.490087650998346 3.792622277085897 -0.08530971711209824 -0.4993930803260432 -0.9344180787886617
Ni 0.5268995414412972 7.09525160974217 12.222318659139306 -0.6596237151167479 0.5073997526806036 0.8719299875567694
Ni 8.117127319524704 2.5109078284027233 5.889943816653581 0.25223344765226235 -0.40096585199538043 0.057306032810320665
Ni 4.112752284702344 3.0121375631317377 6.6115372311513845 -1.7881780803046234 0.11749967158108152 -2.4700999446979393
Ni 5.717930001143511 6.345508813349012 0.5667264446992013 1.0188775320853227 0.07311574614906761 -0.7131378849848041
Ni 6.673020140367792 7.8718364093307205 10.04589700460155 0.6067158113741228 -0.132264745705398 0.2925388321395284
P 1.0944852265325415 2.6427012307770683 5.437646340802461 0.8056906568125608 0.7998133720961774 1.2621776818036974
Ni 4.028939310254362 4.171704693927963 13.284111085022449 -0.9894111471950895 -1.099388799367513 -0.13391076594925325
P 7.424781410957776 6.66643695158824 8.333832746288145 0.4294310493146088 0.13883031473805768 -0.13125044550827072
Ni 4.607815488169499 0.26612100836185965 0.22856349971699136 -0.651032373903311 -0.2731557996272263 0.93687013987358
P 0.3650021704608185 4.232110774937533 12.148761015060149 0.2884844595644967 1.0221870560745299 0.5701056163502568
P 7.799967617056612 6.865552949765863 1.4454914080212466 0.0868192117780892 0.9632033784514702 1.3254651290084334
P 4.045263025891988 1.4920320527475812 8.257767749858068 0.16211679606982404 -0.3080608390345275 0.22850370813549037
Ni 5.0141861947036865 6.056913298482779 9.91406656600341 0.2842848196608523 -0.536563004508121 -0.12026257903819934
