# total energy = -340869.6520923424 ev
CRYSTAL
PRIMVEC
9.22943915201460 0.00000000000000 0.00000000000000

0.00000000000000 9.22943915201460 0.00000000000000

0.00000000000000 0.00000000000000 13.50821712498020

PRIMCOORD
 96 1
Ni 0.25287093742328587 8.855702057546175 10.503611000078292 -0.13357857942081514 0.16891067906320587 -0.4562031752021304
Ni 7.347943991490336 4.911150599847583 7.052140472862672 -0.9969869026598184 1.5867753421509834 1.0647493549167728
Ni 5.890735562611525 4.700700932710361 9.212914571229721 0.697704066928237 -2.4774995795961203 -1.2564852594046103
Ni 7.534812442087975 0.9399168341192706 3.9512077290756356 1.2784234542385982 1.8548910082511412 0.22326097167931228
Ni 2.821780978928735 6.163271665624201 6.592320594499214 0.1457848916790199 0.05387592408284915 0.5369509839751592
Ni 4.861468529932678 7.47816214575922 4.436719596668542 0.4912282851270637 3.6303652678358507 -1.3722064989290303
Ni 1.5319022783719058 1.5708966579725885 2.1653805113513553 1.529554155744985 0.8229067635805313 -0.7804524510710623
Ni 5.852424161493789 8.953589487142587 6.072835162099181 -0.6348794182925324 -2.7240804569482955 -0.5752902458749899
Ni 6.431082295890001 1.853243654598407 1.7439375631222405 -0.7165996182811594 -1.1574679628984323 -0.5377791363034092
Ni 3.4693461045909113 2.7717020431386037 9.854325506994208 0.7944474797985738 0.6207614908339115 -1.5424958035073177
Ni 3.333054979487176 7.473925833277156 9.776436425733596 1.2531420539639901 2.336176837453512 0.6585366527001562
Ni 7.855110891712138 8.070369096546864 4.485092932139097 0.1690711159004701 -1.5190807670174868 0.37679491117613173
Ni 8.119801971609883 2.913696961518841 0.5343272931895858 2.1517750047332425 2.0096166540632163 0.8522921587211838
Ni 0.2720007955530693 1.3563029727428912 8.449281867110203 -1.045559155141567 1.394017938377167 -1.1884021905834434
Ni 8.711685892033973 3.516591602620709 11.567140479003676 -0.11442926018587389 -0.33461210716049467 0.4210178855502491
Ni 1.0575275747705128 4.8186993097978705 9.935698701461744 1.062898160640647 0.29923064233740726 -0.3384762181015913
Ni 0.39229453410961773 3.6347376507315583 2.912033816618476 0.5200035574875432 3.132709224805573 1.3923696041404663
Ni 3.8007106515266056 5.594959732300737 8.746381198967674 0.2115742793700034 -0.5069930041604881 0.5508940764188125
Ni 9.047526716864656 6.892960339141259 12.304418520176506 -2.0346304024987343 0.92637695365174 -0.8758969426243174
Ni 2.8875130431928917 0.6851981630164447 11.312645160323651 -0.06688467763769126 -1.0202872679486559 -0.5889052655552632
Ni 5.391164490652767 6.040492439156063 6.037200298279481 -0.5913825234511622 -0.9130776654396726 1.3865270293167604
Ni 0.4055037071473685 7.005042645856215 6.147183830575219 -0.8153070968564023 -0.25638732191963587 1.2641661729886358
Ni 3.301296480030147 4.351329750366162 5.160625103734053 -0.04164698611682505 -1.0851150630573183 1.2184419314786434
Ni 1.2108931619479197 2.3719196652017587 10.400691680361575 -0.833355726827997 0.48545564430934457 1.8129087502820842
P 8.627319590512117 2.0585894419914457 2.4255759315322987 -1.8099344981451089 -3.02392893537536 -0.08685649277392783
P 2.3265015960857927 8.99477124377649 1.096554257407551 -1.0282530597629518 -0.5006398082489507 -0.19678118022122884
P 7.58654344745172 5.029158206374052 12.724510278542061 0.6473721514429044 0.5621776197524319 1.5145594821083657
P 6.087396447944387 8.720961478187508 2.792662099013906 0.058755106552021395 -0.24615921643372446 -0.40132220689353465
P 7.911696581968181 6.959901459909011 9.058137802835523 0.1847291341527012 0.5395485694990063 0.730901122505496
P 3.910633269525216 5.4565642951144095 1.2921823685209308 0.9708930337862441 -2.8257534459097657 0.4108178050887957
P 1.0576106397211416 5.2857366094270635 5.049560804136245 0.2590335012932313 -1.3835792595423462 -1.037313370193007
P 3.9958671383091935 7.935554681676528 7.167716122223513 0.8099754002308438 -1.045283018662045 0.047598575714569644
Ni 6.548674577663326 6.963307122884786 12.823093607835963 0.5686478008578076 0.963138843762122 0.3688293764721519
Ni 7.771067620553838 7.3783365339814715 2.0042142023660205 -0.15846017315384323 -0.24727044722003222 -0.02010114162524925
Ni 2.236920661552248 4.086454081689241 0.6875387487363814 0.0972712603493486 -0.2552922890832442 0.8406692297702749
Ni 9.16857080880855 8.431203242077821 8.105389279731913 -1.7734040073192425 -1.1946785105104587 -0.4105136435848155
Ni 3.5903625082179293 1.2549545035369514 0.24447399385862292 -0.8092472638155677 0.6458510868126878 -0.8088196893598457
Ni 4.889599859878922 5.45171883966107 3.711490588056348 0.48523555787873845 -1.9715769256816755 -1.707888699225252
Ni 5.9737359071674865 1.884199192866026 6.141524338605718 2.1466011738417867 1.8807732753345414 0.12323426007201357
Ni 7.853966441281253 5.2952613904324854 10.496060396066145 0.08503795150795031 1.5669045713689853 -1.1749630343594022
Ni 0.6954068454487086 7.57180403343461 0.8381576548796668 0.31566307686181766 0.47837636886506 0.7271933346366057
Ni 7.322627640426508 1.7844935637947419 12.479214864616111 -1.1092106705539413 -3.110824766027655 -1.649686122742591
Ni 1.8001097745129324 2.168022899725243 6.578649949513527 -0.2150118442966426 0.5087878912773818 1.1936647245339638
Ni 9.199590953148881 5.094899500077167 1.079724375466286 -1.1292264515542358 0.8314266281260843 -0.7656012449908427
Ni 7.338594569825131 2.819916632259069 7.7035062814880595 0.6682543942085524 -0.36775696934357954 1.5537564640228014
Ni 0.6117392124560297 6.476629577151391 2.9596503380944146 -0.03701822909556206 -0.5441426166275919 1.403438974580751
Ni 3.8536968605887405 1.7102704156885433 5.833469662704221 -1.3665462153194594 0.5886352997233282 -0.9802932440542215
Ni 4.211346849678931 6.012841040035674 12.73295336930152 -0.29729537298790737 0.28465711539860655 0.8549316532265597
Ni 6.438558141446582 8.620868212679957 10.318210953218992 0.828544935702915 -0.6394688374354277 0.2510736230162063
Ni 3.907652160741543 0.46125782495322976 2.4332889736701184 -0.2785355758819009 -0.6306000741908881 -0.9255138343204965
Ni 4.3472780266632745 3.0194847908639355 1.9128307584038335 -1.1251545954777074 0.45016956741354086 0.1426538022492059
Ni 5.506034087933264 6.978960251358812 1.5412332411591936 -0.6222303620699542 -1.383331148087282 0.7055503024455332
Ni 7.925688411429633 5.662583831551436 5.0226256094790545 0.1450151033925309 0.8222691299965322 -2.094103103943071
Ni 5.3444358412046595 8.990174983175038 0.5183575949592755 1.1776431522947266 0.3752735894355989 -0.9511204791450073
Ni 2.713556577698533 6.667494374818164 4.35096980224677 -0.7532800044213286 0.4080857508696133 -0.14652896893389603
Ni 1.3541894312213394 5.438511512511111 12.425249412080454 2.0492083003129093 -1.860701701395647 -0.57018377788636
P 5.626339824760459 3.885621489947027 5.547945893188804 0.4482422684838409 1.1879617606119155 -0.8968313787841393
P 2.441500405511711 4.1634645203609795 8.043602800622619 -1.5319715069372262 -0.6474683107011365 -0.6120261678434428
P 4.56474206740914 8.125016604621573 11.627751127589626 0.31721190940617633 0.682511932568831 0.6403209010230778
P 2.8421595801496364 2.496830892069366 3.9214621702555075 -0.12342529303689713 -0.9792018107622555 -0.1646634737510777
P 1.4934985828645828 7.047461147310591 10.66807406465969 -1.3237494318689074 -0.9812108707724844 0.3644266194187659
P 5.496832337291398 2.2786746434015943 9.121017970461427 1.3274253380585979 -0.05500103882622786 -0.20012207166900375
P 1.1549719912969052 8.348885876004806 4.789324774423884 -0.06340211840572953 0.8370779128745907 -1.0006478964511734
P 7.520082257509823 5.37897240178827 2.8501799626047823 0.16543634736136026 -0.39774657372713434 -0.5322281245781931
Ni 5.335778627461361 1.120989197050819 3.9965408873531816 -1.3432401936036673 -0.28231175509488154 0.7012534748423923
Ni 4.409142956003718 0.7076819992638347 7.923555488086269 -1.5357309739796583 0.17418632563984843 0.8188801589196414
Ni 3.0869243013354595 7.117835619370994 2.0942196910916673 -1.0707742209546138 1.5413303224443067 0.4489755471054397
Ni 6.111143794385229 3.217880810721042 3.5339383331436633 1.2523586388307464 1.947752312458252 0.964750668333932
Ni 2.024514353355772 8.872148917770652 7.077346993602891 0.4338494900972786 0.6768657900266473 -0.039489059233557805
Ni 1.5026818746285304 6.68086783186938 8.416240475637908 -0.5070665377109009 0.09456800248557262 0.7143005378343376
Ni 5.547031255787993 6.261537502217921 10.765224985027194 -0.8861623291060673 1.1658579867343406 -0.36641973858939475
Ni 8.22256254497651 3.456591019949931 5.251292343233041 -0.9024857488564393 -1.955214425163252 -0.5192911048015508
Ni 0.403762112015854 4.1558502332200185 6.900091926624679 1.3130562138211193 0.5827865542520351 1.0146907476974847
Ni 5.906231790623251 6.9936442887421695 8.3739188832926 -0.6957896235143437 0.8565645608442926 -0.9869130633635841
Ni 6.786221877583414 0.46909084979751364 8.058016415444484 0.5436062845081476 -0.6984453159696359 1.3888744465030145
Ni 7.583405438205748 1.636065726460262 10.064013745417334 -0.16943029901210174 0.4886049885716037 0.3089548116037066
Ni 6.080603580870754 3.998119121415127 11.541433722671892 -1.0766198811021135 -1.3486317969328838 0.9552614978965742
Ni 0.9490632081273834 0.3955617555010122 12.675948662516749 -1.1508252607709342 1.2792042982686809 1.2826647460134555
Ni 3.0253824023585714 0.048592996117773735 4.473677962034926 -0.5916789716456584 -0.2711248852401266 0.6419728348042041
Ni 0.7169778901830791 1.8339541271746373 4.542584030356994 0.05268241799538024 -0.9947109621414482 -0.15266104997356286
Ni 2.367388010673017 7.735635804391229 12.575082892968352 1.2760001895090864 -0.11763259761451998 -0.36524834398911293
Ni 3.19552710956297 2.987873962430246 12.226111345331065 0.5366334527347403 0.06574490760629322 -0.3274850091974102
Ni 4.479120562188896 3.704955222329663 7.364855092494438 0.39517032835952587 -0.7023302528463389 0.5667068750813531
Ni 2.531958136746336 4.523560310775236 3.0185461569218317 0.43825764646730325 0.8372257513063646 -0.7309186060069928
Ni 8.151385111726697 0.3072581753193575 1.1224142224260487 -0.26243584210656096 0.16572045426068233 -2.3557992396701297
Ni 0.22706081137516543 8.996672508201991 2.8853284349913575 1.0399436087270026 -0.6031334933395032 1.0996572225375512
Ni 6.242469481329161 4.478400665950114 1.1977725915241726 -0.013058118735538802 0.5689067109461493 -0.3368062865983361
Ni 5.191411743268726 1.2442945015396047 11.195447898537761 0.15583507682617034 0.6613417262491191 0.11333294179790158
P 7.224195673931531 7.258003108837401 6.417672844026846 0.44006538910000337 -0.44607945650456726 0.5037528999566356
P 7.948697402753776 8.775489003555752 12.16217717577607 -0.4801134061608247 0.9875039028700476 0.3450189043161155
P 2.187506245367146 0.9551361789622352 9.199514348805524 1.3940436494087798 -1.3983157944215725 -0.8602942030900539
P 1.113273386081311 2.9491564659983256 12.762833677930445 -0.2339228222685326 -0.9747134359735987 0.1224690997712149
P 8.70480996000971 3.5358534417276024 9.249670811882908 -0.22853944646943225 -0.5797775922223821 -0.10822955913306521
P 8.124056742969863 1.0779246348693317 6.4619390791607625 0.7903637966475032 0.6248341182413885 -0.7646710198670895
P 3.8523032153059704 4.681679059016394 11.103335328897833 0.7036214608539366 0.633617006640341 -1.3436191742096408
P 5.387860351505537 2.3802353897035853 13.252951958507659 -0.09881880734212659 0.3703270440636009 0.4804993287453337
