# total energy = -340859.0288875392 ev
CRYSTAL
PRIMVEC
9.36643138797842 0.00000000000000 0.00000000000000
0.00000000000000 9.36643138797842 0.00000000000000
0.00000000000000 0.00000000000000 13.70871910970380
PRIMCOORD
 96 1
Ni 5.615109996984243 8.109231421799803 12.700332901261248 1.2396049387095038 -0.9221857983885279 0.7531802456186706
Ni 1.6514610668319243 7.3444810393370075 5.409638593642013 0.1418657591302718 0.7707015423318856 -1.1408421814162932
Ni 5.266041835441725 1.2921834951766729 8.06748523751315 0.4568827177676583 0.13493097968365148 -0.5018011755469035
Ni -0.05191531874481364 7.76848065124821 1.7420766064059043 1.5290872434108957 -1.4786671390871309 0.6983926083548294
Ni 4.176847639313819 5.248423578173788 9.133625836292001 0.5969782723713848 2.694419182438437 0.9345391777475581
Ni 8.264245859750021 4.015332898044119 9.338681370084684 1.8775455124258633 -0.6780001607414065 -0.4057293348222948
Ni 8.198596542795757 2.936488608498388 7.118307012901039 -0.5033654347102299 0.346203668652836 0.19881440860117372
Ni 5.295742789081612 5.745265926274648 4.259175760477023 -0.7958227628795456 -0.8598524875669449 1.0419822364235862
Ni 6.684700252409441 8.929562207573573 8.970012077768848 -2.965051958533494 -0.3549816719557822 1.5985566510566276
Ni 7.020243287160413 6.9629394604909605 0.938107102820138 0.11183424576518805 -0.20960224324529708 0.08174591102023986
Ni 4.746560822898225 9.20811987431916 10.868779713326967 -0.7473772657836483 -1.1266718034531822 -1.1840174312521867
Ni 6.312356509096151 2.349513092035296 4.0055505971984875 -0.4944424211889872 0.13761675404593074 -0.2175829474579285
Ni 7.759591907948225 1.6879807824553619 9.403112114327326 0.5862056072359131 0.6341939621897336 -0.19053262820835573
Ni 3.8053656076797684 6.930953097614829 11.669382921504921 -1.1780036209579388 1.111507179897602 0.4816113308625899
Ni 5.073290045799579 7.340256778822472 7.780794698473174 1.3611034470373333 -0.11599789022457443 -0.8331289555291715
Ni 5.808620467561371 9.428718064204567 5.994836361445109 0.34902931102708923 0.13412673861480126 0.47033601505908673
Ni 5.759399871100441 1.817640290887075 10.384300117893812 -1.3803229573885778 -0.08441523032228687 0.9952403522823569
Ni 2.4699934977968447 0.9672245277902791 13.053181354474868 -1.4110255286787567 -2.2756890644811003 0.12405444198046377
Ni 9.315833834224144 8.106262263078944 11.339866248649853 -1.5270434735079894 0.8494225504828726 0.2786846998652555
Ni 0.40970081789459856 2.9474660659774004 0.5008699135581773 1.02925733265775 0.47727233716760387 -0.05053040464938394
Ni 3.9472108432276882 2.118246536903646 3.954293738573788 -0.23674692198088904 0.5248421165267672 1.1990139046610189
Ni 7.87153949479904 7.399143532380963 5.343150981086749 -0.19985390560928162 -0.7378659838591034 0.7517599682323762
Ni 7.922474148187153 -0.45787518397975563 0.4400377522194902 -1.0113544842354 3.4083960183847686 -1.4403623299696613
Ni 0.4649365365338745 7.536708308826572 7.580770811572747 -0.9545762989040915 -0.5478285501196114 -0.015999460752049863
P 2.9860089307607924 7.038414163874818 3.436899566923057 0.24309703256863294 0.009774048667628328 2.0921248971707773
P 9.05421067526188 9.242138752786541 5.3627961340871595 1.1744696396627514 -0.2660508131513289 -0.22751460474934365
P 3.535687317802872 1.6637591911236846 11.115604847484546 -0.1536362694026386 0.5845798987070319 0.7094537512649975
P 1.2007296600016932 8.220757519242294 9.7096941435108 0.010640253322665548 1.22400554160935 -2.9246360166102923
P 1.9983187505885662 4.462842252508497 9.048617979134987 1.025588368446595 -0.716096967613128 -0.11589838853223265
P 4.2355283313837955 7.19291344810375 0.4514544953262889 -0.3995807987223957 -0.4095301966256237 -0.3694443843483315
P 7.293087430815386 1.565964281961255 5.759553480573697 0.8970643207305518 0.3125903514737649 0.27317071202556176
P 7.9666275053169 4.543880616082229 12.702444094875387 2.9203489591991643 -2.8287588083949924 0.9802019698919956
Ni 4.847989907403537 9.141196722708626 1.192273645827587 1.278881367711623 0.053755853565217095 -0.3551364523660916
Ni 3.988807164613605 3.077678193855582 9.038172534953594 -1.0248617746932156 -1.5513247146528573 0.34641604177395824
Ni 3.6015239633830576 9.165465146196784 3.3064879340582682 -0.4627695155657385 0.4798935768405348 -1.3713477504731608
Ni 1.031440780756242 8.989750895082219 3.4764624360745926 -0.5810189208286509 -0.697551857621089 -0.9020124087644465
Ni 8.671151734545868 5.3668621019127905 7.708728439437961 0.5870674410155761 1.239803170763239 -2.8881785451142066
Ni 5.687240884395398 2.850045814066814 1.2492627604054904 -1.1375593968999635 1.0981842375364506 -0.7119274096164706
Ni 7.487937301067855 6.217896049475128 9.541624773620102 -1.31123844388609 0.411648271409891 -1.8358360485022192
Ni 1.6829791081432524 0.11749438746435695 7.157596382258729 -0.5973279424013197 0.3950998801329067 0.306108343293847
Ni 6.4266082380458025 4.867846741751237 6.462276545064426 0.5412904918907775 0.35667808582159866 1.5348917659078145
Ni 5.524264979843509 1.1435944290955709 12.964363233066605 -0.09458214355295969 -0.615305867035979 0.11081660313395109
Ni 8.047525372421191 3.9120679930047753 4.669724240403917 -0.6093735607119442 0.3008041574721142 1.3173455852250926
Ni 2.4376324776688687 8.656418338117124 1.186387780401127 0.8614308877976583 -1.8324915575100182 -0.08246864811887733
Ni 1.0838272309952488 3.409577686832375 4.721296747763294 1.2853384361908766 -4.7967516162698365 -0.4589462851649063
Ni 4.022535683710808 4.647463979785639 11.804441240935697 0.8949169353702459 -1.1470840485609473 -0.8005890739199374
Ni 2.4844084355615204 1.187017204584224 9.323888965138776 2.0544649207261587 -0.19508065259035434 -2.4021294901952372
Ni 3.321832958450645 1.7197798167055727 6.622544614328618 0.8368763383867458 1.1440352344322942 0.7389265639131338
Ni 8.824948536427593 1.6699410357791011 3.937362977362984 0.4049307501803994 -0.22358904444269231 0.042173548044256395
Ni 3.321196041122511 7.760875109035789 9.315581877222279 -0.3078155557929408 -0.18882927236400382 -0.11720785137227556
Ni 4.26688714336309 8.096539907393607 5.055474156831296 -0.4488354219831496 -1.9880029324481825 2.1813833145179786
Ni 0.6482319771394921 1.0489091751234416 10.399023211248128 -2.38095234189699 0.010272071349969407 1.2413244925037719
Ni 8.753407734188091 2.91217335285375 11.34011258579294 0.6402496814655102 0.398665743107294 0.7566152394421486
Ni 4.029850866553052 4.903382982088587 0.4933983113132899 1.227132774384422 1.2279035911121756 0.8771313292520507
Ni 0.4331862077264036 5.112582225086658 3.5220582236239375 -0.6357633635593826 2.5010143748886087 -2.5249896547572837
Ni 7.79384494719801 2.132417947454624 13.396077974436395 -1.7219914571752215 0.09490635966159784 -0.15232963477607311
P 5.785447916534856 0.29851846848067365 3.2059346108791416 -1.1883772508827792 1.1363594630545915 -0.2194878777901252
P 7.95523792486086 6.584760430480208 3.1432038739167374 -0.001697185196764819 0.47311974845181104 -0.2864378614481132
P 0.10604767177741074 1.0162109634688068 12.683786163733584 1.1406812303583966 0.1330198787038677 -0.2209796318443033
P 6.06848273743997 3.716571838992877 8.752619080672961 -0.299901957372819 -0.8751657208852476 -3.0869677569043996
P 0.5412382958011767 2.0189155330086583 8.223120669858297 -0.8184093899308099 -2.0918683010752814 1.4277194443946704
P 4.997075394343331 3.8742276105685898 5.283395022703983 -0.1753240387887174 -1.4559987509553376 -2.744567264047738
P 7.878161561725372 3.443109510872362 2.5978846239998563 0.7614856801605725 -0.2791264153883644 -1.1914011253107675
P 3.0891895379184717 7.777978212582441 7.133098481203818 -0.046299654397488 -0.03604763765217663 -1.0480811502324723
Ni 7.722912962992754 8.830437265167099 3.3684927725952254 0.9998207725641877 -0.39098945750895886 -0.08717685222782405
Ni 7.723193955931636 6.250978284812902 11.62071681777672 0.13762678134825976 1.7492988867409227 1.9297206517675218
Ni 0.7392146808202786 5.246128802506247 11.94914979453083 -3.6844589643564607 0.7065864570195315 -1.0759999881299276
Ni 3.905483391803627 4.206623524404075 2.6390931751301148 -0.12680886479714934 -0.27592204951845384 1.1603211160765112
Ni 1.9095437147642669 5.814483853552721 7.165766720278305 0.9324807525566328 -0.20230211003945806 1.1473468153040305
Ni 2.6399942258207982 5.054323022425006 4.8929300447621555 1.41085197921537 1.1196200388127233 -0.6264837380296695
Ni 5.702208441606543 7.47737196656587 2.972968985110382 -0.06758401769756103 0.6722241774895777 -0.7295561784418274
Ni 6.1616693624047265 5.327963312740147 13.246693698338255 -1.8421689326987822 0.035655030199448275 0.08718070888256597
Ni 7.3662392592378145 1.4700332926267463 1.8777652866629075 0.5983450708119243 -1.3513761924472405 0.713955495790093
Ni 0.8746270513540474 6.171897505380052 9.700234984544885 -0.6888455880963427 -1.0875694381350818 0.2609615715538796
Ni 1.3394933396532012 3.5068199765483357 7.042731152059184 0.9690971182280856 0.3394848618717637 0.37892841257936677
Ni 3.900687778980031 4.412375920685188 6.888905314240441 -0.7107053642839115 -0.27984041073625354 1.3001040245358255
Ni 6.598023297195465 5.109472569896358 2.2979518243934742 -1.1186065099465445 -0.6025328836410268 0.03936127540644189
Ni 2.072369756415419 0.8809831116315711 4.935124881107892 -0.38627199742863155 1.0236456428979273 -0.0060382357742799235
Ni 3.21514930598823 2.86520069990388 13.402109956191074 1.3342986681396631 2.4258934253840545 -0.37981775716285554
Ni 6.588507002998642 3.8814959612543523 10.688839328411609 -0.9342458148768555 2.25631451660923 3.8022684538684772
Ni 8.683777683932991 9.272944945319367 8.439361595904767 3.073517802047081 0.6722434607632873 -0.8997313260397537
Ni 2.173021427123155 6.191023758086658 1.7831886832938129 0.057811511691829465 -0.36533370461406756 -1.1546286936774244
Ni 0.19736382041233805 5.195259714137206 1.0231505524160767 -1.0245979795088676 0.6191380962978756 -1.1978396818472596
Ni 1.7179346297402436 7.142774941375803 12.827330469918614 1.2620884645240007 0.662019469042434 1.303848322069606
Ni 1.8625429625205092 3.4846683665330933 11.22590581571351 1.419456947275562 -1.75596292902466 -1.3600922321639997
Ni 3.409774381889593 1.5892679630259159 1.6848289783242292 -0.7644607036284963 0.5423736976526272 -0.45018653669440534
Ni 0.7633632139878466 0.7219729540904443 1.1397466991191392 -1.182828810260724 0.732034721889307 0.6656935754599115
Ni 2.428668802918515 8.928026112841014 11.219448597977987 0.2553642799717602 -0.07205825141883074 1.025086746219828
P 7.410729807894221 7.337915170998451 7.733060554658932 0.5855630885559077 -0.12440796866514058 -1.810065110185702
P 9.02781607186951 7.342401691589276 13.282555890484709 -0.8142871402323202 -1.5098386795939287 0.9747550878448115
P 1.7800340692332912 2.355273447282388 2.920601267733967 0.09629089871395029 -0.6974829520563665 -0.16956168238364347
P 6.92345995257796 9.405208321651392 11.220462982487355 -0.011330337411154679 0.3008164987672884 -0.16590763057082394
P 5.578983671475242 6.357268547160881 10.840868684707763 0.8066123972958817 -0.6166937485224412 -0.5756298886025958
P 2.1721035168561382 4.876875981520665 13.26371999714828 0.6135014668373886 -0.9125282206941059 1.4105884411413385
P 0.37582337253978654 5.080165006370906 5.625619132898451 -0.5708826037255974 2.2110106504661085 2.4614587240831733
P 5.773346487300313 3.170415230118125 12.65812401526857 -0.8876911070457679 0.953145479994836 0.5024622061696702
