# total energy = -381176.43244497024 ev
CRYSTAL
PRIMVEC
9.20769689704304 0.00000000000000 0.00000000000000
0.00000000000000 9.20769689704304 0.00000000000000
0.00000000000000 0.00000000000000 13.47639513709238
PRIMCOORD
 96 1
Ni 2.7013448368832376 4.034987620361838 10.904276454992965 -0.8146499228883776 -0.8059883905586377 0.45140446826190644
Ni 1.2208208763675583 1.657081543871121 7.7067730423274785 -0.11024221868771981 0.11524044323325959 -0.29807236036324797
Ni 8.436855913933456 5.680172820154981 8.455993190660756 -0.2056085487048717 0.15733917217552257 1.1651799868307093
Ni 6.86529545659195 1.5809246848394205 1.47778098768222 0.9473157606869361 0.5204213617512521 -0.10947397306312757
Ni 1.0153511255161016 7.797436627438788 2.358180427947177 0.5206399055199614 -1.4996046605707465 -0.33468358382837843
Ni 5.9920375058524415 4.036276697893507 11.673684478241851 0.11292619327778616 -0.12172579384728714 -0.4078178419202073
Ni 1.7283399082824777 2.1969380064376343 12.350131596064061 -1.5487659527867454 0.7822144280674916 -1.8278365752365102
Ni 5.072354348579522 7.957199372095907 10.318943178648485 0.7176923371247059 -0.5067042692754757 -1.0675752544013422
Ni 4.960490041920578 -0.08178276168777218 12.183914256051938 -0.33965172646693115 0.29862720442545343 1.7106384940562476
Ni 1.8849075822003878 6.219992451934875 0.16044963882756622 -1.1215385959916748 -1.2166606712085046 2.70462723331969
Ni 3.8573711518910963 4.702692950979997 12.907084909779174 0.48959743439186004 -1.1082272235947495 0.36031722523608267
Ni 8.959945160891612 8.68947827935405 4.223043775299771 -0.4769712609874172 -0.4809235607669459 -0.1272122708831551
Ni 6.022487358689804 1.5651058619865053 10.675689860920015 2.3134457144045832 -0.8521075535142034 -0.3992149307425447
Ni 3.467066098391549 1.8031248205126158 6.7459867271876135 1.5550139905789864 0.7977863143638195 0.01900482323727695
Ni 2.9094111581913427 6.045580261899998 6.590011108164606 1.1973861392496088 -0.5882941143338255 -0.6891875448167938
Ni 6.662652468613511 7.373947035195407 8.204119410978196 -0.7289403992346994 1.173407002726192 0.025715402488233133
Ni 4.325186595830596 6.3390479696812045 1.2583634179381 -0.385071292252311 -0.24220357422008612 0.34296047912519
Ni 3.243171746533874 1.5967803384789547 0.24058974743212533 0.8417033274617439 -0.7522111968371819 0.6221606851742832
Ni 8.580588058714602 6.803806458331317 6.183104577596487 -0.681082399211156 -0.30434225253235975 0.12667645298434313
Ni 4.026553370226058 2.1164627376748415 11.326747675986327 -1.4154732800374654 0.07106529137794212 0.9996940171783364
Ni 2.6055111301002682 0.12673841983507897 11.395477606896282 0.06534741505755844 -0.8795563937537755 1.0974522444664325
Ni 4.440153896262202 5.554763991716852 10.668008800370595 -0.38467225704167946 0.2908115650357766 -0.8338606914888735
Ni 7.1599141264550035 2.043758764888684 5.768301526377229 0.051184236183298946 -0.504723234289705 -0.06223612312208637
Ni 4.298824960307956 7.572078251813003 5.1997455941074255 -0.6025066583887817 -0.12842917400939172 0.20716715144124323
P 2.9238580342426954 6.6998607707954845 3.278726346396649 0.699345459186402 0.4544453119707593 -0.2716067099725516
Ni 8.431846926953256 8.999418556450662 1.0068818861330333 0.628632408941556 -0.25587310128737867 0.2850147558483414
P 7.142502372080811 8.983710225957605 9.933019147217284 -0.37426237456226513 -0.31497427832490915 0.31156576686399245
Ni 0.6667689078683677 4.239094632108387 4.41594502021745 0.452249332760705 -0.24359685502318695 0.14957701173160046
P 7.613466848276247 3.1902459061621884 13.052144804417937 0.0367084111646271 0.6509259302324338 0.4183953603257375
P 2.4899084985994824 2.0720263936188643 9.812459091837564 -1.6288113361761112 -0.11065205253162878 0.0804531603507453
P 2.0885542091141978 7.282358076570293 10.477924189859614 -0.05909346372804662 0.637817932095566 -0.9370789134502764
Ni 1.5242144811426193 5.8929258590603694e-05 9.31283565980412 0.14706350128112736 -0.36701623452281307 0.0883896415890026
Ni 7.193936565594423 7.870066938651707 11.961822771199271 0.872679207017968 2.3526270125897355 -0.23252388503847696
Ni 8.653559054703749 1.5510457091946535 9.716696284318836 -0.34314559855280263 0.05537616277745947 0.2225122664387458
Ni 6.28075404215978 5.045615197494036 2.935374100448831 -1.1548094422296629 0.46698021121297645 1.2550521265025094
Ni 4.953722384879313 3.17097419706373 1.837816659198837 0.3904783222004953 -1.0769479538654936 -0.43553407688855317
Ni 6.747510600983981 0.4612199708256801 3.863210673109559 0.20930193839605887 -0.3291497984943428 -1.0751528096382839
Ni 0.5881314953578689 4.416342792712936 12.911855417416016 0.3526540522638701 -0.9192300581943136 0.7333866079315111
Ni 0.6546257975200415 3.821718950443781 9.231761890758767 2.815995080971421 -1.4991835138729277 1.5518330217478435
Ni 7.864247674365886 5.650735813949644 12.506094324311752 -0.13813817376703952 0.22373765420541467 0.49839729207167716
Ni 8.89339192947085 7.652286497372807 10.18374748943599 0.14524316024293696 -0.08784071106406809 -0.3582379741095507
Ni 3.712359137274937 7.212388789690605 8.324948331100236 0.9057657051592917 1.2786180867479076 1.1914623175660062
Ni 8.776141120268857 1.8092939772713195 4.060423882370673 0.2506915570864392 1.486473008284795 -0.24061848912115336
Ni 5.9331174549584915 3.670749556091978 6.85046922343842 -0.8264201760504283 -0.11117167248052467 1.0507126743180486
Ni 4.705317144526609 3.001322386199375 9.182976751572735 0.2783625406391464 0.9002242065157722 -0.4455780913881165
Ni 2.8046275702599255 3.672848910929268 5.315009382371316 -0.572059140532202 0.6097358291473692 1.062160254033358
Ni 6.392471025672248 1.1249595464946245 8.100728026780981 -0.08604582394717439 0.07082463612204577 -0.05323083429968252
Ni 6.8988022647187 6.1191221350817395 10.381406351215194 -0.2370292291079982 -0.37127166736505735 -0.1465680497019476
Ni 4.682371564462893 0.6354526107757892 1.7253556937966628 0.34157491163157305 0.7434486201532036 0.887283330084388
Ni 7.257672241838822 8.860188975333706 6.056938876493336 -0.8621484826899732 0.033146404844981624 0.5402054863567147
Ni 8.427160209355971 4.033910319853228 10.90450572663967 -2.3039269762808705 -1.7653937354202565 0.6333686380749608
Ni 0.9502435024701393 5.052014546669109 6.9359497961027525 -0.5785012966131198 -1.7114620183988074 -1.1419840083302204
Ni 4.852640291003119 5.165223177039652 5.250093279415773 -0.1941529985697624 0.22067521323000702 0.19474898028254847
Ni 8.695058143526849 5.988971342866399 1.3018412407723143 -0.8592665331564879 1.088287804358345 -1.1753844381675371
Ni 0.2241475635156814 2.1457247976437377 0.682518672996372 -0.42035531226558576 0.6447264862899412 0.8162656041149297
Ni 3.2692203203702523 6.878803147584515 12.256349364095778 1.555412768679302 2.0588877323842025 -1.8650460944072718
P 1.0137858170847889 2.9739479040447088 2.626966904845241 0.7200456678482309 0.2558414767184949 -0.2512073203805932
Ni 4.872252684877804 2.8477103829076498 4.705526159240673 2.073754879304022 1.761463804238231 0.4754586809976327
P 7.520865043019106 7.684789666564187 2.47599106510578 0.10112714376032907 -0.1844457985843275 0.7499072312943537
Ni 3.0963458156767234 8.43526298241218 0.7094005433800075 -1.0461497375377147 -0.10401037884539505 -0.24140730357103585
P 0.35156459059421785 2.7518858838213354 5.9885864611462285 0.36008685439283145 -0.2937271960206748 -1.0404652855584275
P 0.9446360152073773 0.16863620192333273 13.305190723884651 1.6712998443576248 0.47155728906069755 -0.5536132751221885
P 0.6650838993805426 8.528536949525119 6.294406293989825 -1.7721943032818577 1.6648492036362748 0.8028722135271592
Ni 5.439096906339483 2.170668447881542 13.103449169408716 1.226554790393765 0.12794297840159258 0.5863364763868224
Ni 1.8983324039230596 1.0002965414855334 5.08185392921826 -1.3295207871350458 0.9231314501312489 -0.30947031778754447
Ni 3.1556986283134467 9.02448190674498 3.3435743123969464 -0.4902669496550589 -2.645301856086496 -0.9914353767139701
Ni 6.5212406633893725 6.755456843197057 4.662563046649461 0.6616312324650799 0.08493022228549243 1.4007817394635618
Ni 2.641669754863597 8.844720044953673 6.751309696623744 0.8811075402909794 -1.5288828407095734 1.547647008690954
Ni 8.073943757981887 1.1415794389565057 12.408498264389058 -0.5065052658907921 -0.3675790490048186 -0.5323911325186187
Ni 5.471066029124886 5.348889102212585 8.57988182838118 -0.3895213576038647 -0.3156723328331983 -0.5573516591186982
Ni 6.209753493254758 8.433228081451473 0.7043261817535572 -0.5381234070167055 -0.8982737676576208 -0.23619850567658676
Ni 2.3825651709980358 5.1746426507174945 8.901954166590132 2.1506115805527606 0.2996602736756581 -0.4747505991870146
Ni 4.603691796547783 0.7059872502300799 4.675554185859693 0.7144239507860792 -0.9230100940620362 1.790900107221477
Ni 1.2478270506560332 0.816533935497725 2.7239976121933323 -0.5072015206268684 1.1297874662640286 -1.3266894883338376
Ni 3.9398352831313224 0.6769176311212682 8.983755343671213 0.5292299611818176 -0.8608850425965173 -0.23927431638843308
Ni 8.537081692020758 6.056942559571998 3.6987446370011767 0.3290736938407688 0.9729118639884857 -0.519781414174408
Ni 5.377221184819349 7.754013130014837 3.00147615473351 -0.785594400283318 0.29187317353107156 -0.8587296868164115
Ni 5.600710398024214 6.53061409858394 12.527198365044512 -1.1596636849981705 -0.7475225331122609 0.6896009782051284
Ni 6.203059497786731 4.770811490832072 0.6666215847218911 0.7986823438155277 -0.4357019699249851 -1.3639020928283931
Ni 8.572061731612273 8.83655281802088 8.184727081053559 0.7267421060318 0.25522724017326365 -1.331828609332616
Ni 8.56310264276717 3.405926992603798 7.706099038932349 -3.612051814238644 -1.147652262359591 -1.814270149405985
Ni 7.655739383618351 4.33432063091214 5.16633730833488 -0.7630249996232342 0.19588566499015295 0.19060359065560722
Ni 2.597417564740715 3.6379057021243715 1.1608981073079034 -0.8310895565016396 0.02555856519539469 -0.1605196267860332
Ni 8.198809332317383 3.9382331439133904 2.400078210035431 0.7853753422939764 -1.1888256512741073 -0.4577923740661213
Ni 3.2654451647417915 2.2306565915874454 3.3389253463559467 -1.9049817542599452 -0.6152220490729211 -1.4203738026628765
Ni 0.3305406568223545 7.4475901930403525 12.442203037993886 0.3167102871794094 0.47711961363982347 0.4110330064233953
Ni 3.7381867263916 4.555415842986761 3.07379064195117 -0.5144466322250558 2.05236947164971 1.2126194112595954
Ni 1.3198772769797011 7.047073803950652 4.979083143775579 2.1285772264605405 -1.3284386098144605 -1.5562074966664554
P 4.852759991059631 9.102682874434041 6.884052455447405 0.8545045929914702 -0.2881587007939618 0.2103236947923539
Ni 0.8350681080941355 5.5402987002721895 10.765442804832166 0.4550168682035131 1.7369017986281503 0.3700555355697691
P 3.5398529404475996 3.8571133363847623 7.505072001716824 0.5072750541772811 1.3179330822974464 -0.8433586036769798
Ni 1.20322496806027 7.013511749643972 8.25375257902613 -0.0624675224066021 1.4540390561258054 -0.3941012636650632
P 7.043510425345251 3.098684570627038 9.39506867785831 -0.5878387719639618 0.43368056861958215 -0.3283062195471249
P 6.961340940397979 5.634972237276656 6.865616805205201 -1.5719110234446412 -0.7896325749084336 -0.4000988760093948
P 6.572711687689602 2.6911335012930846 3.367764773048389 0.33097682440075255 -0.04837916263433604 0.2784723267441333
Ni 1.3938795349941824 5.335335372736747 2.433796795185242 0.6086765346449194 -0.24974744800561502 0.218845616220436
