# total energy = -381162.2146937748 ev
CRYSTAL
PRIMVEC
9.33838918130392 0.00000000000000 0.00000000000000
0.00000000000000 9.33838918130392 0.00000000000000
0.00000000000000 0.00000000000000 13.66767650568817
PRIMCOORD
 96 1
Ni 2.257219391972134 7.583061469681209 3.0104968163897325 0.11982060640477428 -1.5179384258829276 0.7690264686223078
Ni 6.712350066504389 5.851574709369829 8.212128046342531 -1.8156708864082538 -0.2958843515729937 -0.742725883054566
Ni 1.519113114547254 3.132235792541323 11.29310915626399 0.46844316891174803 -0.0953349625585842 0.5716145967956155
Ni 7.679583059806001 0.9323550437121103 8.961827000042655 -0.30116514035595876 -0.20089905904434432 -1.2909575821498671
Ni 8.696636359155965 4.6870402303719505 0.9104705287684716 1.4311963471996771 0.5694098758348128 -1.066484849550641
Ni 3.924019130728326 4.840871514633338 12.509354965110553 0.7383943455587476 0.7092161813328947 1.1802175978901221
Ni 8.877455588024613 7.4151292178222565 5.537595654434475 -3.6036175674283615 -1.634030161372889 0.4616924804514759
Ni 5.664424052665981 1.6562847125874116 1.1993302507629693 0.3137486334479242 0.66642222609582 -0.405913682918959
Ni 4.086833945339951 8.66143063210774 4.28206977935901 -1.9625976050012006 -0.9693483150069434 0.4087202991298187
Ni 5.669205307904362 5.457195859316595 10.594349247630886 0.06718961047261977 -1.3762354175827651 -0.6802958987541188
Ni 4.17159850354068 2.3555339528113186 7.475426262643926 0.3449721102385801 -0.13175438172788276 -0.62242190925547
Ni 8.347996939098014 3.256828580413321 2.679479870473083 -0.9088829106320347 -0.29684851525847583 0.7530897427873933
Ni 3.1174811377041354 8.856556273134977 8.682186135804658 -0.06814220419387619 1.1221579747432289 -1.818159200047746
Ni 2.1520691302843282 0.5872352625200677 3.1356517752878057 -1.1932983423334804 -2.2635912527763016 0.814100735253127
Ni 4.204469633304541 8.06265312061377 1.6508908590216145 -0.632809166027065 -0.7121130432647155 1.3453035038905994
Ni 6.174103993399441 8.927966934869136 5.1604087787833075 -0.46340714914973735 -1.5965483623773473 0.5494650572817699
Ni 6.60298819131559 2.583493370045867 10.000939442213129 2.4703611687791263 -1.0574985868916302 3.3729320211502043
Ni 7.872532856164211 2.9559083288477934 4.955010909704864 0.808388258249382 0.2990696912795108 1.7526392639680657
Ni 1.0171933751870255 4.314410488619863 9.298325580382995 1.143690706608682 0.7117050091930195 0.4678808686503748
Ni 4.852843329507563 4.602639869347582 5.645857467382883 -0.5436577065713734 -2.076505445465966 -0.2322750022524645
Ni 1.4801160015092187 5.6748270181651135 11.99905775685511 -0.4522603885042985 -0.9512258943746199 0.39349062666425777
Ni 7.569856987440841 7.449064923947788 0.1736996409902483 1.0639350865455934 0.7821285532219046 -0.9801790870738604
Ni 6.274659767631615 7.380203642448155 11.701868191749996 -0.6950656008641254 0.6380303052166882 0.6391178818539123
Ni 4.6376494902239225 1.2909856063082308 9.494033003053497 1.0282204067528034 1.1821461823714028 -1.1003341939999178
P 8.181857657953453 5.473715469700763 6.183270556176772 -1.696573017102117 -1.2829959041006291 0.8572412751963429
Ni 0.7027268563386971 2.368038055866378 1.5849310150269893 1.436242908484649 0.17363996621807512 -0.5907826850836342
P 2.0165504271215013 4.359262771647086 0.09459414660682017 -0.811989602447395 -0.20542831437326553 0.3611582330801393
Ni 7.570697442463212 8.078042785912306 7.519778008013381 1.029121064190202 0.17062894730589323 -0.2371269310281271
P 6.274837197025227 8.556681921152844 9.237818421805732 -0.4683614078312192 -0.8073037669359516 1.966702371198194
P -0.15883292548341113 2.453465639695867 9.79761936471777 0.663463143467496 -0.2901731601208293 0.09086947058806286
P 5.943174968419179 3.371149140234113 12.334462811827452 0.03126667132376551 0.20117365286196967 0.6511658141573817
Ni 1.6676682089459758 6.811028824519935 5.577984187453993 1.8664136641787596 0.09168451029019048 -0.20431348404253202
Ni 3.2226313993919407 5.637193309941147 10.583305668636923 0.31968119688227525 -1.0892961910182015 -1.765614850292127
Ni 5.231458978696762 0.9340443583070769 3.281595856083694 -0.4462591766155411 0.4567564766024392 -0.5531831295633054
Ni 8.061149639962638 2.430044959739116 13.508789525674871 -0.04841747207143919 -0.6551463960716846 -0.3183439661280904
Ni -0.44585298481782915 6.113030928440448 8.228446881360243 1.6470486851197441 -0.21496299333657817 -0.19662948513471296
Ni 6.838362289525282 3.33696129760187 7.543887861088476 -0.7498275270963538 -0.8933393064704808 -1.04536503685289
Ni 7.541477622852098 0.7801094179262638 4.066762011727893 1.346511151045455 1.265895754085233 -0.8474705689628245
Ni 0.6386150795543757 -0.38111273444455657 4.740729431039952 1.8697105897624768 2.4668140748578162 -1.2609078139523382
Ni 6.518494446399847 3.852991342948801 1.028995231378948 -1.4260364002652925 -1.172201412453865 -0.8063766271359919
Ni 2.422032621859175 1.3039566288201634 10.087455882216046 1.0559497543472718 -0.3913123880660164 0.9890954157268838
Ni 0.8156924158956435 2.343646183439331 4.611679430032644 0.03379663683447083 -0.35718073648963006 -0.3741297056391427
Ni 1.9345500321054605 6.569239252972808 0.611740129455678 0.5170475601830128 -0.36326088124543887 0.3312488471152166
Ni 1.2281662625805336 4.741623114880408 2.6172647205225794 0.18384544599616726 -0.5947966913390337 -0.9090765147000796
Ni 6.827828586578226 5.828004615186877 1.8225024362007267 0.27006687628925746 2.175232978645867 0.7619325378900039
Ni 2.206605322847098 6.500826214151772 8.816143460303703 -0.5800904954771107 0.09589006373110583 -1.1933399942046934
Ni -0.07589215468122795 6.701797686779059 2.876758944035419 -1.1000966240678152 0.020204757082649072 0.3640304124216118
Ni 2.196846706198452 3.351865366665257 6.413474922159966 -1.1842665711485152 2.337217877123517 -0.037573330268083675
Ni 0.6008104788091941 0.7951199446258178 11.307678910996254 -1.2433132407990264 0.055548683799581756 1.1777670794671007
Ni 3.1748468621755555 0.9043127949712301 1.180400402142423 0.8736096892520375 -0.5019377011247679 -0.8657220589738446
Ni 1.69096748984394 1.7453729449587851 13.240861802931992 -1.870044576063128 1.1785769769629058 0.15664651698387216
Ni 4.957853515358306 6.224353865348115 3.540283242775057 -0.061062671639275486 0.3826482846331152 -1.0734710510604866
Ni 9.258517895167827 0.8386732577240201 6.772634037581267 -0.7239555444255983 0.4809970943173586 -0.646327512228474
Ni -0.0643022799227257 3.552547349229284 7.3269682874922335 -0.5520364175533718 0.3982975611345979 -1.199259959233554
Ni 3.850245856542388 7.648570269480496 6.596171167245244 -0.5684256575446727 -2.15893244171363 -0.5065736572348823
Ni 3.8842469313918815 3.0206887342943567 11.171753987905948 1.4171514390708366 0.35429518741171884 -1.4026010520604877
P 4.791929017163907 3.1687115405122435 3.6767143065566144 -0.341862875185637 1.85454905153069 -1.8844018732260643
Ni 7.967691041474933 8.567402391882649 10.784137999266065 0.684355413535473 1.340064366978847 -0.7663718046082801
P 3.0885041162105953 5.371712245152282 6.5908819036377855 -0.7306445264099997 1.7023070913724168 -1.3876120348508232
Ni 8.042930442755454 4.321404942083821 9.382819325298737 -0.6819339485781739 0.020996399746009003 0.8481974198265199
P 8.167037634392303 0.26015444762485784 12.759049483062542 0.07492863098809031 -0.21475627664241076 0.48195765845841515
P 9.206045486604438 0.904092408987586 2.8470731388063455 1.069086805949862 -0.539923950560554 -0.1536056732750193
P 5.2980697084142685 3.6431577390300633 9.151575596604543 -3.2712826863378175 2.514310834887199 -2.500108832355204
Ni 2.8700698558962556 2.5303299206863046 2.9740182669020703 0.33492038242953287 3.8421025551462797 -2.9587216454400918
Ni 3.642410667899066 5.055710495129755 1.593254321265208 0.1811211050864687 0.5901620207804997 0.9815083474082452
Ni 5.2022951894204725 9.190842589088652 13.682574146006269 0.3521801979512451 -1.2162307827599377 -1.6461896795535582
Ni 3.366844142841744 4.482660245709489 8.4155303016623 0.6365699186210778 -0.8793051969749179 1.2898743763880174
Ni 6.791240777937657 8.780224280325374 1.9508287120498817 -0.003785435184361223 -0.5008529527010214 0.9573543758698608
Ni 3.375220677898046 2.246508259631467 5.048375190462281 0.11226670531691633 -2.6367580802815427 1.0929875238268596
Ni 0.46664864358804004 4.863741229630979 4.993595265943022 -0.06952262948117058 -0.9882970881953045 -0.6316781377464152
Ni 7.009077381347198 5.361029127979027 12.635070227356875 -0.9505890321215694 -1.9121085951127137 1.622650715891354
Ni 3.833959705886657 3.163930285273864 0.2644445035946072 0.2631410957037017 -2.6083394199295338 0.6315575530081511
Ni 0.5304634595977903 9.579973264446632 8.98828732566365 0.45558225378867984 -0.46927183546063056 1.18633965162746
Ni 8.48579420921038 6.387103311235777 11.396559831128776 0.7233315376883542 -0.12241124995008597 -1.1795339415595363
Ni 5.248632276320552 6.508754506529476 0.21586153410696884 0.3130567495872221 -0.05858284264021524 0.9356496372029177
Ni 2.4362923420720772 8.114948099783549 10.706423924864119 -1.2850504726368128 -0.15327425807752956 0.39996492153469176
Ni 0.8829017363568605 7.899446093658372 7.521882880924965 0.29254294590458646 1.0767173259119263 -1.0245519567622807
Ni 4.694202774840383 7.037111225537855 8.92681084229392 -0.08825183045955769 -0.19876761452363834 0.45220845222044054
Ni 5.4564301114073235 9.030801276050852 7.337341370146125 -1.9799579506565192 0.8639366849386476 1.3753134199891281
Ni 2.839010373625062 5.2390324122872425 4.241285298640065 0.495119906871986 -0.634454672050288 -0.06847927581832078
Ni 1.7025284155961162 2.204821690521843 8.223745002429533 -0.34555677909745647 -0.47805780918337665 -0.15988559274646014
Ni 3.5524819805053216 1.129562211678088 12.33644441800242 1.107558736772815 -1.6560573163762577 0.005887312018712442
Ni 6.234840876349483 1.1652722117397372 11.912651509844014 0.36166191218943516 0.17649080540330894 0.4220460697044473
Ni 5.699116168311647 2.240653089642279 5.195807810486679 1.6059310891438277 -0.9747633153749279 2.7819603599842155
Ni 7.309978956134452 4.99196665087745 3.9425642377164087 -0.07166024464946369 0.5970268662211331 1.0235029466724759
Ni 5.94519206047287 6.4749868914084185 5.621843799715903 1.885481222333172 1.458269035046753 1.3997337578150217
Ni 8.886532502266226 4.144909387385818 11.641129441122127 -0.9144596333888638 -0.6848071563609109 0.5163726456031752
Ni 3.9454227186313857 7.046104094277229 12.157617067536794 0.05509257009876963 1.3533842240162046 0.02115349414916357
P 2.8943216524862407 9.515911914963652 6.4470567033371875 -0.2882407189848068 1.039234755585436 -0.19434043199022014
Ni 0.710839114982409 7.8234969748034064 12.41891546783099 -0.7824345144980978 1.3958879017063701 0.8165707940601742
P 2.7131662416086444 8.418286994135679 13.22139966613061 -0.03852798087186913 1.2171797769367685 0.8893733798441974
Ni 0.7806585152075465 8.416764836706273 1.4068955599602182 -0.7910916759524633 1.6099900897045498 -0.2148794324838364
P 7.107774816141019 7.286352831616677 3.911033166793773 0.19010659641453065 0.23489418504286644 -1.3028281083352078
P 6.960088191932081 0.9849385791062367 6.756930602407713 1.8523589858579068 1.8919722293741545 -1.0080408464811348
P 0.3672797786152363 7.318504905416953 9.838513104589623 0.9245573839444982 1.082889001940277 0.11513785621712429
Ni 4.660846048841374 8.974285344990943 10.849005251731606 0.2759449323365893 -1.7671099467804146 0.6207139254254278
