# total energy = -340868.0296552128 ev
CRYSTAL
PRIMVEC
9.29697750320156 0.00000000000000 0.00000000000000
0.00000000000000 9.29697750320156 0.00000000000000
0.00000000000000 0.00000000000000 13.60706632882148
PRIMCOORD
 96 1
Ni 6.296982191237905 5.075257105077456 9.162998576555925 0.15428573006117943 -0.10326244493577698 -0.49177593010041765
Ni 0.18903822887297297 1.201318220950366 1.8442609139594794 -0.9161948709124157 -0.9223079257886889 0.7398524181615129
Ni 1.6108593687268378 4.878560955988744 6.431829269029761 -0.37290637475500293 -0.1571589378439164 0.29100259800066014
Ni 0.11441139195209175 6.807432730809474 7.152785687796218 -0.7700379406059578 0.35423219538426737 -1.973623009577427
Ni 6.732926754593709 2.5483014824982613 7.386813849300002 0.5361125472342638 -1.7977834646048718 1.6991536333450996
Ni 6.4722488076117 7.519451035583687 3.0758909997531045 -0.4042064704198651 -0.6131152871425635 -0.6991392567128669
Ni 4.0782306636835175 8.537553724554508 11.192424598638254 0.23205722981470356 2.2562564096777855 1.7456548622304324
Ni 1.3916645345317937 8.363170321025796 2.3749091367515063 -0.28939951517959833 -0.9496197262297646 0.487533866994612
Ni 2.204099491303321 3.3382191602088223 8.33280360401637 -0.6949223904180418 1.1218653832034744 0.34199760099128845
Ni 8.023923618740639 6.7541238628757085 9.590613977933726 -0.42913203001695127 0.8692277581342578 -0.23415756398715803
Ni 7.458816149524389 0.5149893238975654 3.9831690706206038 -0.39666311085496847 0.8857568661375327 -1.3638378152493607
Ni 8.148038265918137 2.862864710007669 3.4675159425426285 0.47151306608632343 -0.6764605841684286 0.9084005716789775
Ni 8.135691880041604 8.59762149499749 5.633733970071461 0.6362338754378978 -0.7707169689508533 1.7647543020640446
Ni 8.765404044631367 6.6277314562556295 12.19692488009706 -0.12193611008588033 0.8627992289000948 -0.7119672617154705
Ni 1.4487851631653923 8.661584698936155 6.478201662187562 -2.538527798453035 2.1266666397013894 0.9474463727275296
Ni 2.867559683552585 4.938303332225644 1.071359493831613 -2.605519948202868 -0.8713270638654478 0.3466304717776095
Ni 5.455438398487896 0.6463993091754501 2.0670220686531966 0.6697764872800336 0.05600042662501968 -0.07875366116113533
Ni 6.277123847689506 4.318325102886427 5.816285697870596 0.017596630035840662 2.1791456834367118 -0.09148473557455858
Ni 0.21964201880397544 1.8698824537464804 10.260898151533425 0.05140432261390501 -0.21185272984237064 -1.1016727103056834
Ni 0.41006177850620507 8.557635195558507 13.243689220437432 0.3115806792623279 -0.3179217909890073 0.5323983316074702
Ni 7.841014887012545 7.4213772218701735 1.0167499787712462 0.2526229697811972 -2.654203272341184 -2.140276774285656
Ni 2.3178480087727342 0.351913833879115 12.363788888372053 -0.04480558635046477 -0.09912913949369379 -0.5767151512469746
Ni 6.114547605352961 1.023987675612271 11.133614709226217 -0.3600565153755283 0.7718582816441482 -0.1208503332208693
Ni 4.573006499499187 4.637639085804652 3.4765237838647463 -1.6126082440536873 -0.5195297031749182 0.03774276596641241
P 2.847190006251769 3.8924584629418897 4.749573762999583 -0.7114646110474392 -0.7404288594902733 0.26088212446619585
P 0.4020673077116036 4.1426587164880155 9.490425101880671 0.09521720603379731 -1.4377094657278466 -1.8805696439641677
P 7.131813566365281 6.43361986686095 7.390174706599977 -0.9287935335130326 1.427050957572736 0.5560799914951261
P 5.358006076209231 0.4024717262248786 5.9151413873764405 0.6259278655261994 -1.3729248651522936 -0.4371389594818278
P 5.2354905091302015 9.262439045934988 13.190308765778328 -1.3897483644675357 0.4913167310758119 0.15888826183019733
P 1.4965716265730578 6.845150567783189 0.8309238555611815 1.572426272518163 1.7962112350217454 0.20703139719432734
P 7.998617246484674 3.0317907878514974 5.779288376638921 1.941066415797644 -0.23950777255547784 -1.3193839558113598
P 4.534693655977205 6.494282643852199 4.52292089360111 0.44138487924237535 1.3268789786368247 -4.136659189046785
Ni 5.360990405927882 7.424891479295873 6.096917747267366 0.27578089595489924 1.6044509050538756 1.5580931437249423
Ni 1.8840324532224466 6.345540303762854 11.718473606751726 -0.030494054823799095 -0.280283154700627 0.3960861553055759
Ni 7.404159219879707 0.47448053433338655 13.40112330462013 2.299178920072924 -0.780194055203353 0.74674888817103
Ni 3.855363523448391 2.611483740342326 2.3029691262751415 -1.0910077743926694 -0.37417418572383304 -0.05849928178747344
Ni 2.1008286672697905 1.922679987927829 0.7629341307466684 -0.7065412056038929 0.4711083744487371 0.08398765586656504
Ni 5.015273007430325 4.281574151553645 0.8651320835978555 1.8475942174794115 0.03059869872246343 0.6204213338856734
Ni 3.882901170260357 2.280316111345352 13.05787146450695 -0.8899212819278673 0.10362882713626023 -2.0028078586714995
Ni 7.218507879843195 6.579842726097481 5.096608543182913 0.9875167583858542 -1.529549784869611 -0.11113824813942795
Ni 0.3258767192060591 1.6396056225899702 12.594904306882524 -0.6722365187847519 0.4129075977382889 0.7342826373832193
Ni 3.480918465042335 0.8963122861224913 4.8596546229175726 -0.46964181720553955 0.25113764348492235 0.27595881629366026
Ni 4.000954188227387 4.60721937602452 9.677589989824337 -0.12503737471902335 -0.4272235001403287 0.6539840003324672
Ni 8.911868625278132 6.22844487445944 2.8944130728340447 0.06019980941834794 0.8047200653691754 -0.3064916947751947
Ni 9.110108072601408 1.206729061748666 6.649636994209158 -0.23173532769891056 1.2133519185502457 0.553586535649311
Ni 5.9379701151775155 2.227788189506187 4.861559573569757 -0.2670422305303207 -0.4121663486968901 -0.6905805685095784
Ni 0.6951563770149753 0.3875788982613107 4.5106879308478405 0.4618539457300046 0.18775583679416696 -1.1892629959218421
Ni 0.4737906986164899 5.234030883691485 0.2488689263943796 -0.9135494628697686 -2.040149789655067 0.08346700747640463
Ni 6.815409537347174 4.702587769338884 3.494226158373411 0.9246489152170398 0.9931317905797863 -0.7802845580346304
Ni 3.4466962915396855 8.741092448948287 7.353625499674966 2.1582989218946893 -0.30122144751519087 -0.965404242757531
Ni 4.527014352713638 6.566046011759547 8.24009879470323 0.5346516464180211 -0.14704576066931452 0.062474207274821426
Ni 3.670056171572596 4.640567633659402 12.526787213478773 -1.05852137172919 0.1674317805248342 -1.3491686432729604
Ni 2.439889430008614 2.0692840232343412 10.191542700751093 0.14774947160455842 -0.7501653700517468 1.086507829639787
Ni 1.41359610402181 2.658340506018325 3.5853253797039617 0.3724649163422102 0.4364133941697129 -0.02200967150187177
Ni 6.307162381399654 8.879143265123465 7.815585794655999 0.0488833559642642 -0.08253266858759335 -0.09803127844382471
Ni 7.608757799687584 3.0703639467383463 9.750632621810459 -0.4668943363673894 0.4272432976346706 0.2024787448266384
P 1.7830393886314997 3.2897261265250903 12.479067688307788 1.7325602338300032 -0.14333925835200476 0.47116236761512403
P 7.554816737296287 9.135135535537875 1.9298897938369037 0.510191713603444 2.393136542668007 1.2513173420504258
P 3.972477546706437 6.526412997458598 11.14375213329231 -1.754202237579811 -2.0377141836303805 -1.7179553394326348
P 5.931257697554882 2.759296382700005 2.58573669136155 1.8009034982910919 0.727175851135109 -0.6271067163256491
P 7.321499794557226 5.344181470939348 11.228985891633776 1.9375753719252502 -0.8620232699660186 -2.2217385784065735
P 4.389363306563076 2.361794820548617 10.707223719761018 1.4140452893416873 1.1789364171848535 0.763492426177956
P 7.698417848929515 2.7350870537674057 12.439403064283962 -0.9891697206082448 -0.5787506936197646 0.460426983475491
P 5.7301361872634375 6.410953836162919 0.9928827786039002 1.2892704242554311 -0.5753632652047703 0.1858290520850993
Ni 5.6987774827743225 6.107537684456194 12.084462134590542 -1.119221003602092 -0.8464745235981421 1.8789125679767187
Ni 4.249564658652363 1.6538114039298364 7.186939063666723 0.0509176127854736 1.3243713817236225 -0.8700145157016114
Ni -0.012872594792656301 4.0643316825951015 11.559638468087407 -0.603329154290077 0.7188305644942072 0.906258071414678
Ni 9.228560860593054 8.803047505786552 8.538583829641194 0.7686140636752375 0.21579731631241544 0.8642824983138405
Ni 2.1720249195608217 2.35210737018465 6.309337874091755 -1.1199020888295164 -0.4679965682926327 -1.5757658784143573
Ni 8.990679101991512 4.889373340608028 4.799388826857746 0.0772181983532154 -0.5696315049273157 0.8593770905924233
Ni 3.377303652848088 9.089998710665459 0.9142191941321224 0.04473333835163264 0.456422233191472 0.22155478762148295
Ni 4.24413522389943 8.468244758658761 3.3525225598105135 -0.7758782014368186 0.29734525238923626 1.3558666241184263
Ni 6.6074826396599295 8.049657651953172 12.023965773493261 0.6893047871209483 0.8150309603768802 0.7492924805284902
Ni 5.790575836799086 3.7561554785022437 11.838868533304822 0.2013454025531436 -1.5863433968198875 -0.6450468457438374
Ni 8.31769880496998 0.06488081559981983 11.140010099922351 1.3344166817747662 -1.1193562436283755 -0.9722073817222934
Ni 8.356225478970247 4.726620455702466 7.359095841128093 0.5133819384059675 -1.7991266088963274 0.8032187982333006
Ni 1.9248368866652954 5.481051570995311 3.5233322052586984 -0.045623968486702075 -0.37781769601369125 -0.060057627413528825
Ni 3.870833693703324 6.649188879902495 2.129968183273418 0.3046613264346753 -0.3139190975875174 1.0301921857671936
Ni 0.9423695117492566 6.158912781108093 9.141145101675367 1.2887109522075355 0.09699923763488456 1.6231104291365919
Ni 4.385003024201559 0.7722273892724082 9.180809725699193 0.6512375479355816 -0.7799284602467923 2.014313288207937
Ni 3.9496813583259716 5.2947866304559 6.031890039425942 0.41315750896556586 -1.8590865343897274 2.30177727692772
Ni 5.708130241954889 7.65035247620235 9.955229342222871 0.585477985041269 -0.30852312338292676 -1.34085780941442
Ni 2.5727618298184107 8.462759542041928 9.414606392467793 -1.1265764155258984 -0.5379439440160478 0.19451218168139406
Ni 5.924628952728099 2.0485982487047587 0.14712094724531918 0.10429499996534941 1.5406052713528242 0.8807252172508961
Ni 7.319073283477576 5.058327309383807 13.502210268681974 0.21719856753531627 -0.31721885138471173 0.4666670508479318
Ni 2.5132890659236957 7.0612588055091 5.513760196590807 0.9666666544097223 -0.8485941410443063 -1.5186213108825652
Ni 8.017108934367522 2.9210451940553672 1.0768577262166894 -0.08250207245997404 0.43840059980307083 -0.4770085419832559
Ni 4.003362105352403 7.076636005990866 13.477418019271619 -0.6878796246386475 0.4589601691219773 -1.4125861882976576
P 7.635142621312284 0.8424446698519945 8.987263392525369 -0.53041061175348 1.459336814189635 0.7804781621026753
P 2.507655097669796 6.572209907720497 7.747972597422811 -0.12411023491906367 0.3215293058346075 -1.059297330663266
P 0.5012205004915825 7.359663886442141 4.644703858867587 -0.6771470687124919 0.027995713881977594 -0.47612536804735417
P 2.639793036271575 0.8060693164028054 2.83795810777632 -0.4137907716741906 -0.3044864914197079 -0.09358738373985818
P 1.828901377734615 1.0488849808663037 8.244330778777776 -0.08301449332001831 -0.028043022180145254 -0.7030529899449762
P 0.8098262249364704 3.5461088699867993 1.6604429378498144 -0.40092111480037407 -0.1568869151294524 0.4268167516202133
P 0.9091049269102243 8.017601674165308 10.69607943305153 -1.8069718159723591 0.32886106360933043 0.73396844857691
P 4.9444951191185424 3.6629067960160793 7.370757039776388 -1.1737160493261787 1.5693517473578973 1.3956351622656158
