# total energy = -381166.7402198418 ev
CRYSTAL
PRIMVEC
9.27454799132254 0.00000000000000 0.00000000000000

0.00000000000000 9.27454799132254 0.00000000000000

0.00000000000000 0.00000000000000 13.57423847097494

PRIMCOORD
 96 1
Ni 1.826149254353787 9.29485940111845 13.150423544151463 1.7093004919711143 -0.11168357911993669 -0.5987631321859495
Ni 1.2633511240804158 0.36351776928398594 9.367663676568055 -0.44960983825532885 1.148705386214454 0.0916001781065003
Ni 7.527900312998549 0.34710923871347665 6.312753652879372 -0.7044879226192899 1.1754140058538918 -0.18544595771406772
Ni 3.1569819907058654 4.946348387133676 3.605100333219601 0.2088046870446662 -1.7167224954667983 -0.3975681391677411
Ni 4.218871380074206 9.548982020173366 1.0081248337967585 -1.2054645453823691 -2.7848628783429907 0.25046067202255573
Ni 5.698514241343662 4.0135607078837445 0.04086644147232384 1.200233893111049 -1.2284036706770458 -0.0068774438461236395
Ni 0.907117584906128 6.852870875674685 3.984650086419584 0.08570900943304594 -0.44005021959135177 0.5415977387185512
Ni 5.80933581707677 7.72929712587364 10.852753479960539 -0.036092631957499136 -0.22106319269704508 -0.1750458454266663
Ni 1.0436927259163058 -0.08017383140219762 3.5537629268964377 -1.8922529938393673 0.030739338065385768 0.3595834323938517
Ni 0.6625727917161037 7.079568655877579 0.2625939913266218 0.5339363655185514 0.17684330364672124 -1.3152822749381605
Ni 8.215728626756567 0.8108394281124357 1.8183910948340996 1.314569565141852 0.29600082254619986 -0.6569140294950686
Ni 5.291630539863435 0.4854725126051795 6.8660806145914695 -1.1610250841220715 -0.7334598843716078 -0.5803730597145359
Ni 8.236559261880558 2.0560838518577818 9.926094422121976 -0.47291431730922423 -0.01949976059582448 1.6692090232668673
Ni 6.339793597983554 8.150111198661182 2.1790458111070543 -0.13284967167459058 1.011989803826554 -0.9676164199175014
Ni 2.3145191357981183 7.981611208041121 10.60803710762991 -0.13514206725319305 -1.551929438116392 2.4099685266236817
Ni 2.246147166904949 6.880694520096756 8.422014053956616 1.187905196342367 0.03772296847207052 -1.1981623552940008
Ni 8.472531590224142 7.728647907503792 5.699538151458393 0.7772881944104677 -1.3257176113388716 -1.9397852350923752
Ni 8.62660965848543 3.925888404309798 7.566022415676043 1.0594827072011945 0.7107305610948922 0.3752113687390957
Ni 7.056178245466757 3.8070257953387108 4.008622010998827 -0.3647395226734944 0.5308212169283374 0.013366908225209237
Ni 4.7180924828431445 6.446413803408931 8.707182295457677 1.610920057717987 -0.6897778701026249 0.5889415181098373
Ni 5.279249018095614 1.3143425897579315 10.213501539544202 -0.39464145243924936 0.4922950358286813 0.26882631901393705
Ni 3.654357458394807 8.54464120201801 9.018642953482782 3.613093368129281 1.577604988505625 1.2840096900771243
Ni 0.6060360737052695 1.93568166789534 11.88933633727219 -0.8154209967264472 -0.05483880221675072 0.6296701061774511
Ni 6.362126709906336 0.8115470761355704 0.721005227366895 0.09310684455901386 0.2798560944655374 -2.8404128476941537
P 0.8681635552604146 6.420398695874294 11.766734230490778 -0.38884027237644 0.2695282301769681 0.020262092683145747
Ni 0.6031980619742182 0.7297205202547018 5.954122643010716 0.5410940596092553 -0.6907973125060748 -1.3534942672315076
P 7.287494750643715 5.9417114426888435 8.522667015108272 0.30293303088965895 0.25483000473484496 -0.10766031689315651
Ni 1.4869697543006006 2.8943175128133745 4.69300761248702 1.2885533435837486 -0.6706807442618579 -0.3855742000306585
P 3.572602316534622 3.4094166419991754 5.305151903597748 0.8063082357919016 1.5234781247542344 0.3789484671840248
P 5.627619595356225 3.3966826874020075 10.896991219682004 0.2335919212916751 0.15855556108112692 0.47293668590672744
P 4.181068321852752 7.221376496948733 1.138192024376614 1.2306168762782805 -0.48370986526283155 -0.35627365129432836
Ni 5.611723019843081 1.9754787539670422 4.884445415568638 -0.33045874711375345 -0.8647211285131557 -0.2424845957956146
Ni 0.8073846589300286 3.7606808782796812 0.22622663315734687 2.1035745337686156 -0.6288535238134267 -1.4461108024176643
Ni 1.7061458759613948 5.239999130364213 1.7894647066381004 -1.0118252532242316 3.3255980119509307 -0.02478774846764118
Ni 3.999157334621252 5.099907080699085 1.0165516882373897 -0.5764966074782651 0.1846409453142691 0.713195734805933
Ni 8.587804949064783 2.8495121707456996 5.4896801683145515 -0.5929051307432757 -0.7540513353697142 0.03471657754557892
Ni 6.188924523378944 3.490197956304588 6.380706412196582 1.0987840759039786 1.5427593415813494 0.08664206277027658
Ni 2.8378355146365704 8.873423933605482 4.685379296641303 2.0667298541364407 -1.5963599005156248 -0.8029627163584364
Ni 2.8801460032544 1.6436354214931417 11.219094421698552 -0.5649754942125431 0.08654204685730257 -0.23489907013887285
Ni 4.8855259004270275 1.719074596069517 12.62564364161641 0.5566664601262155 0.42137475466903557 -0.6056228354202602
Ni 6.76843538940184 3.8871578912742755 8.801753935393483 -3.2245667703385172 0.3927897439424913 0.275200597971397
Ni 5.608189417001477 5.764493376816532 5.53450220456888 -1.0266196379245867 0.05178793120556888 -0.4595147560738667
Ni 3.660052030953191 4.946793565444428 7.2061968440068656 -0.5655035988018712 -0.42589629668847295 -1.3304345571985667
Ni 6.526638644825901 7.422736211631261 7.076752903062064 0.2095230532679295 -0.6134400174718339 0.020060261084984807
Ni 7.902174703216108 9.1044807514345 3.7615981310907958 -0.39591106318029234 0.03162379755286812 2.1945697313012658
Ni 6.113624467024679 8.921855623996167 8.81544966063284 1.3714876184851348 -0.594755296578137 0.5255522552199142
Ni 1.1672853544391453 4.899419173541782 5.830678407258127 -0.3665632061457945 0.4013705436329668 0.32517204479351736
Ni 7.956662673542663 4.697549358711516 10.412282929843617 1.3620411283602543 0.7404445432195571 1.3039892185228446
Ni 8.120135859070471 3.221069118358036 1.065379401833682 -1.901056193953294 -1.3291137815046141 2.0910432340708245
Ni 6.673009563582277 1.826844845464339 8.138326030338806 0.00624109581370538 -1.10383397962306 -0.5278369374890329
Ni 3.630234358680872 3.7539290072332587 12.379203130786431 0.7511863551170933 1.8670345855922104 -0.9007240289703262
Ni 1.6158581498117741 2.477009219223013 7.368938267686373 1.8790089843452673 0.757287840029141 -0.6748554444648377
Ni 4.948611376880003 6.831799102299036 3.3652030161028765 -2.3534929601344565 -2.4438587516132233 -1.281220043147129
Ni 5.6523640897955865 8.370928915342878 4.727866929128619 1.9256935328859996 -0.26655963446694736 3.401062717948149
Ni 4.177173011633662 2.417661385670735 1.139109277187728 0.43032039389809756 2.1630868302016357 1.1951096845106064
Ni 2.145082415815846 3.2019635491882137 2.2029361196626587 -0.6923029505173238 -0.8846530915503925 -0.3783815389369612
P 8.776755318335066 5.357943559069372 1.2774521470735216 0.15472384603986258 0.37831417603413553 0.6826852249219018
Ni 1.153874357827707 3.1315326306078117 9.575906033425792 -0.16512987186453496 -0.16181906232374713 -0.5258425327668235
P 2.5952689825649555 2.2677661386208983 13.366389744700765 -2.295577832985227 -1.1971087172185062 0.6806849066624213
Ni 6.116685067911107 5.434180344785846 11.814881192253543 -1.5247413077373742 0.10588651282218538 -0.518137707923398
P 8.408082755194485 -0.24231797418144463 9.29417308455604 -1.4730878452271405 1.094258163009167 0.9421712403715192
P 3.092078702817315 1.5768030275913272 9.139371601539777 0.5973497967781906 1.1066038290587135 -1.7419270197568837
P 1.0446294552785156 5.277412657563757 7.960924328413311 -0.015190591697509321 -2.146243790502368 -0.0183389075185039
Ni 4.572157467849382 2.729063614042554 7.752342523093627 -1.8271848005851243 -0.8359394283947732 0.5095255407743549
Ni 4.061148414393626 9.00815529444529 11.950976839124849 0.06596370848531864 -1.2692759834113754 0.04560545654394081
Ni 7.800321615535046 7.01375646227124 12.149364061128283 1.0033028175755172 -0.1491023860880271 0.08198888026898138
Ni 3.3916558823097533 1.3653989772724315 5.756373509919358 -0.12298974816137528 1.5973482325708233 1.2718044062601839
Ni 2.476638237297385 0.039507720169712705 7.3953132276888685 -0.6240093083472479 1.103539588311093 -0.9040294391944754
Ni 7.127109989646757 2.356746153482681 12.476014574098212 0.7969795021918081 0.36566511981155736 -0.8500118473274393
Ni 0.1975395283033776 8.591783730217138 11.216624609528685 1.3130780681979903 -0.8206544772112447 0.5941726846017896
Ni 3.5000197027855795 1.9901510891256142 3.453801847036077 0.9294406801787283 -0.6489191842150502 0.2689037092190917
Ni 5.7508690655978585 7.756239688222345 13.308265224048244 0.08863183950679575 0.04998018857286877 0.2438845614669348
Ni 8.900644732398408 1.601250736490187 7.823267775089929 -0.0484426688824198 -1.1669319365248094 -0.06729528281254862
Ni 1.6009725000459663 4.443278346886349 11.34982845228972 -0.47758446909138397 0.3025676771304402 0.6417033831929013
Ni 7.848818227762717 5.32353498546741 5.742513625177911 0.9833757396342871 0.004340536356882847 -0.03129212524506224
Ni 0.33865363317360925 6.537879397172418 9.632375047235199 -1.5059748257631482 -0.8541124997593743 1.4971798531793377
Ni 5.19925604038216 3.9443911278504755 2.71778019877459 -0.9383742352229323 1.0954483266625263 0.23412362542542905
Ni 7.329805239261544 6.6174457456714 3.684835478494744 0.4886893207552939 -0.8342676971193052 1.0984259212336114
Ni 8.078363294244802 4.585624111749665 12.863980052281056 0.007223257221316591 1.2742775503910249 -1.036771124536292
Ni 2.5240311782963127 7.9594079397923085 2.093839609883718 -1.369768578911499 -0.13524336871774773 0.25151173899488943
Ni 7.55089191783932 0.1396329595321634 11.59663530777126 -2.3053464823362164 0.9422676567400676 0.6827849837245596
Ni 3.661739998714797 4.124595598224089 9.517238024252226 0.2320070933030585 0.08462863188467361 1.293732830902159
Ni 3.1013996236987085 6.371874260002202 5.188969639039319 -0.8174447120246955 0.6425114809164935 0.19884166229468336
Ni 9.334647212642013 7.853047421714871 7.7761252468908 0.03449983354908252 0.683757374940158 -0.3193083869238888
Ni 2.876445458546264 6.30010780648954 12.864794357607812 0.18107816766367524 0.3896884793093482 -0.961987246656182
Ni -0.04278070820856233 4.460835066516677 3.552812285712017 0.3357999568210088 0.3062896060667177 -0.7674146440504978
Ni 8.784082211366211 7.580904355622595 2.0661077834882398 -0.4889479737333192 0.2503963944435236 0.7711784819683041
Ni 6.232496350543908 1.9809229137256275 2.62053377915501 0.34766096992465284 -0.8363045250436758 0.20109780531871177
P 4.802472321827146 0.24949276462308265 3.3864602804413386 -0.6724743458271708 1.4403260774150872 -1.9622877870702655
Ni 6.573558583869654 5.619467267540558 1.540499663804223 0.32330542389842387 0.5635441610826554 0.07113265428076782
P 9.050873863181309 0.2163659335741649 13.466880401259958 -1.2834368482927896 -0.2632750501784047 -0.5516337827983144
Ni 4.015545461185852 7.513997765335654 6.7910421004947725 1.048518494880207 1.099254587782494 0.060149415796386725
P 1.614541163975796 7.887511642605676 6.130004246495952 -1.037669210870529 -1.5642936161086995 -1.1404763134364424
P 4.02210256672132 6.467105320310811 10.732580377337172 -0.16505273876969637 -0.33934653652168656 0.802679895010695
P 9.22070011418549 1.8447632724721525 3.5408675951616218 -0.5970803451668879 0.005903509968628542 -0.17738914884786225
Ni 1.2834397953531511 1.0078002246118343 1.6652608853927895 1.0213347353765636 0.9238788698202347 -1.0976479054170065
