# total energy = -340862.5382590346 ev
CRYSTAL
PRIMVEC
9.34796252628953 0.00000000000000 0.00000000000000
0.00000000000000 9.34796252628953 0.00000000000000
0.00000000000000 0.00000000000000 13.68168806375964
PRIMCOORD
 96 1
Ni 6.364887434785926 3.801741557866538 4.41527264028476 0.8519879972172038 0.7525294994085492 1.9285186610396203
Ni 4.986997764889474 7.911292824351464 0.025239498702309498 2.054882210769235 -0.9930060636351996 1.3566952906673087
Ni 8.003847000889081 7.305142893109296 1.335963123366923 -0.26322568499770793 -0.5203766245562458 0.9714471065175011
Ni 6.5559691358873735 0.13374223403104155 5.209028700177443 -1.984274318643686 -0.46516192705731507 -0.10474597145983895
Ni 4.969302071910411 1.4389692567560406 6.806954450168132 -0.5012568730076593 0.65686877807943 -0.2626227613063864
Ni 1.0763711400286766 8.805434783749467 7.387372245085172 -2.1856924834162936 1.7370460375154986 0.6408698315480124
Ni 8.611492606128424 4.490387258015329 12.001097454888702 0.05248624282417412 -0.5221013205568363 -1.1229439609796337
Ni 7.127625085569719 8.051530957511481 7.114806224617691 0.12179804184611927 0.17944397449436195 -0.3677507986959924
Ni 6.43802589324773 3.516236087731006 1.9729127213958946 -1.0302065839448966 1.7290216245491254 -1.9165393771905572
Ni 8.567603922273852 3.6140531671461793 2.9259655403575833 -2.420495394296935 1.0507486697623065 1.0804829636019457
Ni 3.1279778139896277 5.51337218430738 7.482009147663854 1.3985075987174043 -1.2194672874193644 0.844848557958945
Ni 5.2159013221944575 3.3192464743407215 8.606917713289567 0.5218264696288948 -1.3000240632275095 0.6512205786547172
Ni 6.263368562227748 5.280439655172511 8.289447820241934 1.6917642828595638 0.04420806197578193 -0.6071364438513092
Ni 2.77676551556575 8.482098109447918 0.4831550496770695 -0.2589453124547992 -1.2929069925667538 -0.9112992333830112
Ni 8.549562354682942 0.06294263578231872 2.6137903332599444 -0.8061403427554696 0.47718311988790724 -0.5855630885559077
Ni 6.6013534937391185 4.080694106301952 13.317112026318318 -0.7838915586595984 -0.7725367957684115 2.474402171617719
Ni 3.8502948749997956 5.681710292689302 0.9152019840744587 0.6862613723089342 0.12168439908639044 -0.2537892221751565
Ni 4.890395920597006 5.653974888004209 10.15263322322391 -1.2330378270149474 0.20212316125943255 0.07538474468890244
Ni 7.166148038959429 2.1835905562490647 9.853442336014238 -0.1365734003830809 0.013563597617047608 0.46258850990318395
Ni 1.6176275157184627 6.239447126235448 1.5799617704883826 -1.8304452165039506 0.3088758787366552 -0.5580445714206648
Ni 3.9539824748538765 4.583932318576074 12.323671335451694 0.09131967075160402 0.5330202814621853 0.05110170377182167
Ni 2.7412245622079046 3.467626682822855 6.26554289830114 0.026916107664553646 -1.1205276382286573 -0.21669411709507194
Ni 5.108932587509077 5.417714484225627 3.168432991224437 0.5241854567793747 1.2425429382919053 -1.0633738147254848
Ni 3.5987785964500407 1.496281614735248 8.887091105625176 -0.2318109181318524 1.5465923421741945 -1.7714311998635879
P 3.220176767952916 7.2254702088723395 9.008543573380688 -0.3951700712492097 -0.06502911248619123 0.6895891511305866
P 2.0716580534855633 0.6925877359275925 12.417787556520109 -0.4692975464922434 -0.7927976028999766 0.42874070811580356
P 9.490144991693194 8.254260219865921 9.599277779693235 1.144090513150262 -0.510479677157508 -0.4679263771763297
P 8.485014673742405 0.24232162265212878 6.419256119379445 -0.22772594942920132 0.2955884175991296 -0.2903829621387902
P 7.222058202566286 5.2412716923715195 10.47238775830223 0.23725625751713977 0.4127013952647538 -1.4841232771056956
P 9.185803377155754 1.9507795506264658 10.71943851517417 -0.5917049397875874 0.10974985243233357 -0.46039355913439417
P 5.116607264707075 3.7249386981116586 6.5428567489134 -0.05601431058209063 0.11461309406190584 -1.7495783656545545
P 0.048359814309873225 7.537748243557283 3.059280572503182 0.548225528447714 -1.2097803991489036 -0.4176885640667
Ni 3.062242941813835 2.0284517708922025 11.13263902241092 1.510215603317373 0.9422933677716804 0.8540873029483935
Ni 1.165793749134711 6.451337391822578 8.391307893430717 0.8260687062482804 4.213532602466072 1.9677773494299269
Ni 9.368714959047638 4.995382887236131 9.766919464870224 -1.1671538227276288 0.0988720291775652 0.14774895738392618
Ni 1.5362348063847557 8.045052819511222 11.84393670524691 0.30680048426486517 0.39853718794922977 -0.4663837152795581
Ni 6.9042461740917975 7.299449983957553 9.41159219336162 0.49643502613898377 -0.2624988341340124 1.0833163192856827
Ni 1.772569993863196 4.430195727591562 11.13292600485913 0.7232083818469287 0.32390423382468736 0.6131602814478859
Ni 5.862182056373298 3.8177733135237464 11.37644697109774 -0.14955387180314889 -1.5786779098548296 -2.759088340482048
Ni 0.7405371746844912 2.665263019076436 12.60447384566236 -0.9714589335920433 -2.077653957248112 -0.8458237773880206
Ni 8.424524008519205 5.080514781562773 0.4212696684515031 1.0960008567318869 0.5760705756844402 2.3479553181456785
Ni 0.9696361044053545 4.455453922218837 7.700149460966673 0.06472366543063046 -2.3343364418106636 -1.5989492585093559
Ni 3.871841928521582 7.227208929894054 11.968946072726952 -0.5098610697369026 -0.9951457356860215 -1.5242520268057813
Ni 2.097570605486601 9.46425113561712 9.992325014614314 -1.0758477788227794 -0.6821393797207607 -0.13192227476431473
Ni 8.159256877157931 7.634163128600107 4.8292527675925365 0.21290122571154302 -0.32573717326836804 0.4524897309062853
Ni 4.761590345552887 0.9273169434515672 13.26029230596193 -0.9546238643125754 0.8768832177969866 -1.4891672672875063
Ni 1.0397925628352924 1.0503557604403333 5.14441090951829 1.8529349129660346 -0.20640507646423806 1.048859937380026
Ni 8.476900642307738 6.165598222624987 7.263143432472404 -0.3031896269851552 -0.900310081361359 -0.9035594415365922
Ni 8.312694333343009 1.3794320837060374 4.477414155682342 -0.8236616394686848 1.1817492040433002 -1.0202124488466622
Ni 7.8415009364583375 1.8565894806544396 12.51205427978449 -1.178293384284216 0.17741743098263638 -0.9762247304118026
Ni 7.193229086270759 2.297981573145421 6.327945221851979 -0.8122359141302463 0.07106657692952277 1.4822294025170926
Ni 8.975913575539844 1.1686261817668588 8.436046307074934 -0.21288168532751728 0.06347565195614228 0.42866228946938434
Ni 6.316044330815717 0.22385565756452055 1.1201981273308648 -1.194666940546233 -0.7735019878951582 2.132157487612631
Ni 6.532814232818626 6.2221066558307125 12.33473932303078 -0.7803701757699012 0.5181001698172432 -0.30443738334932735
Ni 2.351657573718999 1.4342952755148721 0.7461870832088157 0.11076929483578342 0.5895809514660492 0.68277367087065
Ni -0.010809983814574334 3.074124202128885 5.887709472320063 0.42899499021845466 1.1425995304270322 0.4966386575093576
P 8.08416469453732 4.955392303736694 5.348062815769736 0.9733209265014464 -0.3123489248869201 -0.1717851723975235
P 5.944631085467509 8.36606185115467 11.63772626166405 -1.2891213002720765 -0.3401016695201562 -0.7521062958282015
P 4.852461888843683 7.723417474381458 5.762467340574211 1.3846128430131832 -0.0800564391329589 -1.0217916204083242
P 3.354824819548496 3.8731039034566983 9.453416847100094 -0.7669420752894534 0.6773157330798723 0.8575827176961618
P 4.281535080234959 9.20883675671223 1.7826966416203114 -0.3870620974300947 -0.2852204441012443 0.10278447685809394
P 6.150912573565236 5.9137080255759376 1.0778995318945386 0.17145118609687246 -0.21601714563270538 0.12646330853227253
P 6.532122483594933 2.0461942036836778 3.3115979714376738 1.0111876196402327 -3.0775618902094672 1.5084209733107958
P 1.539936599527761 1.79038721035453 7.398797324831085 0.3823842323384511 0.25488168390838684 -0.24047733555759873
Ni 0.5435269957767456 9.21391270034014 14.029613726722031 -1.5977344122656483 -0.2240099340301948 -0.5685912365882595
Ni 6.204149219902145 0.3857371282598925 8.467582593305345 1.6932712064223934 0.9670492345601218 -0.3927226381499817
Ni 2.8746667266432637 3.4561941247069563 2.192736602741783 -1.5583294281054647 1.5499789992582402 0.37700394186314423
Ni 4.098296319656193 3.658951430948843 4.227477682792102 -1.2059491983282715 -0.472645894139186 1.53379827573332
Ni 6.066360252912499 7.6702088719319965 3.525455983127335 0.09198841468385448 0.3092857125805641 0.17966097560117447
Ni 2.1887786754267617 3.8354596585403278 13.610954009395599 1.019846066646179 2.280787819160246 0.5035788362726165
Ni 7.843071394155371 9.070935614172798 10.630219691650252 0.021014140357821873 1.5561805000832618 0.4445146831206087
Ni 3.6217839321190715 -0.008797367492127211 5.334900884594606 -0.28342298588118925 2.1189808410213575 -1.5382609394903637
Ni 2.8755921749290145 7.807923055221784 6.790468383534284 1.3773263366540989 -1.4698767944890105 0.5687514163152076
Ni 3.6618306033934025 7.914845050094753 3.295986874092171 -0.2654748860432009 -1.3306772693369922 0.6628604768864906
Ni 7.569363052672546 5.678008499546297 3.273043234975524 0.2799579101507243 0.918548972966889 -0.02686031472595374
Ni 7.500150738453325 8.311918452456975 13.085029226973093 -1.055028528084583 3.195173661888381 0.23508881755217578
Ni 1.213973147768675 4.251537468629141 4.015739788993434 1.1867163182405884 0.24480964438436548 0.33921875269457064
Ni 5.1010709510614305 7.223058434551897 7.905197018016733 -0.8621597955438829 0.12298923394074301 -0.8501936243209423
Ni 8.11749018078685 3.8035083227757 8.168857234627291 -0.49406832567902 -1.0393435132491584 -0.17597735610200016
Ni 1.4516357459196072 2.756377609391773 9.41960994078272 -0.735165811319121 -0.3178017204713752 -0.3430211571597963
Ni 3.29615700700935 5.971871048141038 4.968764564067677 0.387092693557714 0.723035089493858 3.74317704702296
Ni 1.640894594336999 9.022307513339682 2.6233271245844247 0.05691471090917294 0.5497733325508081 -0.35761551003420344
Ni 4.500744800445759 8.90161596973023 9.442170313437593 -0.5569384828406795 -1.15849486150105 2.575104054915172
Ni 4.47199046785009 1.8451008347636475 2.7084954759647473 0.3875986866598551 -1.2341498291322037 -0.30695886421960034
Ni 8.963349913963583 6.957286513216577 12.44506865022856 1.2749545218533913 -2.3498101119662307 -0.43457994050539994
Ni 0.6798445934716709 2.091073771561377 2.680557220493787 1.6727823424404222 -3.019648819942767 -0.26496940716169204
Ni 1.3469853059298462 8.167885046529129 4.814626945492672 0.22605036149899135 -1.6565589386030246 0.6846510903990208
Ni 6.16741172734656 5.9242712231809795 5.9685132600173825 -0.4341096857372007 -0.20947703052134245 -0.8294137114611134
P 1.2684343771907696 6.321568976642777 6.178554498625505 -0.12942804758755128 -0.1947350963254775 -0.18221562370222813
P 1.7080410088476246 6.059321237163299 12.699931499346992 0.8159295609317497 -0.3629698323675813 0.5095936750081289
P 5.436494540852642 1.5564357533090856 11.072630712051808 -0.4489333810135946 0.08327237496709529 -0.2986452021475824
P 4.0516219429818845 2.8024163246172824 0.5717167114384806 1.9268602995005912 1.081715036236834 -1.3851088088129953
P 2.4571025905197588 2.0969442920002845 3.9321577868463646 1.1159927264727814 0.31880959291059935 0.5370543423222428
P 2.9716050975850967 5.642869508575193 3.0979306581826522 -0.4384880173105545 -0.9466426458793115 -3.276821613878176
P 8.032694813109574 1.1022556481422674 0.7492719108279867 3.1247578311689796 0.683447814119539 -0.23394390531445516
P 0.6395118745453804 3.8023585233903727 1.3972287346799104 -0.11450767883229311 0.8805272423074771 -0.5989449091794523
