# total energy = -340853.6813952272 ev
CRYSTAL
PRIMVEC
9.38673273257621 0.00000000000000 0.00000000000000
0.00000000000000 9.38673273257621 0.00000000000000
0.00000000000000 0.00000000000000 13.73843217961122
PRIMCOORD
 96 1
Ni 3.652387061044875 2.7958289332208217 8.804177942117441 0.712461941963702 -0.7852457586946476 -0.8887077212357405
Ni 0.7969289086617083 9.248109382724188 6.9313407983813695 0.22988413342278474 2.1323986570891598 0.3250211210379499
Ni 0.041225591127761134 0.6312305492219008 4.098861367526644 1.250412056627337 -0.0674804022401612 -0.501198251855582
Ni 8.448068772188837 8.398544370724762 5.408285228094197 0.3576782449513388 0.6176550839944459 -0.8459500185532399
Ni 7.440759717997643 1.612865950940693 4.7060449850444765 0.5701565241928503 -0.660289630835521 0.1595112401261769
Ni 1.9584103532711519 5.355919462656813 3.690170537309695 -1.1378460749024468 -0.8080555575003117 1.5025462596975734
Ni 5.8312917642764335 4.1874589823217185 7.53096903478881 -2.939671570787176 -0.833831380912835 1.0796625245831792
Ni 1.2674341894020402 7.636566961087216 3.6986739784177893 -1.1120291138393428 1.1353341071138705 -1.1707101726203193
Ni 2.2264672775716767 8.623093789190188 0.32976342739842684 -0.5761536223165497 -0.45571440849116995 -0.9865273978893911
Ni 5.142962659014764 0.2685497277646764 10.068210379606938 1.4479018328798159 -0.7097946795441841 1.4545887579816885
Ni 6.104520778267387 3.3944490345415965 5.207374418462543 -0.8394330433703284 0.43425443884518117 1.266252366093703
Ni 5.266895690199407 6.529974435651611 5.712619058069135 0.8912016913021877 -1.0408830898221364 0.6376171289386696
Ni 4.1037856474751 4.504861960165957 3.946076336194139 1.8483442082715587 2.413560100629682 1.1200722958587936
Ni 1.7978221310862805 6.028497630530933 1.5034926807702522 0.8583432500112702 2.7819603599842155 -1.1524026325603831
Ni 6.18104142283432 6.295193478597134 1.6458368493755986 0.3480661757828715 -1.5698736812996383 1.2960895040597935
Ni 1.873835892090085 2.1321024542361315 6.060544874473028 -2.5893513088628053 1.9306812159085782 1.2187571487262172
Ni 2.056004212638472 4.480371974680785 7.665756883610498 0.433418316097131 -0.47264100904317957 1.5295096756602948
Ni 9.203381601644523 8.378400442456774 9.95140563319709 -0.28247322037341027 2.340079514942028 -1.3848205881486149
Ni 7.718043800493616 5.095709846852113 11.84002844523152 -0.5490786204766286 -0.20450374567646715 1.9303886243688237
Ni 1.194414796113747 7.059658372387064 6.720579551506274 0.1488095374379566 -2.557685345218092 -0.15689848509367818
Ni 7.518932427511064 6.909545743840158 6.737945006909712 -1.1928813094007198 0.9371398485951989 0.6318570865264408
Ni 0.913518698893859 2.9066956325559583 12.293203940152486 2.076207711719889 -2.7449277327109503 0.9993294347500661
Ni 0.9609479816303402 4.450700512772533 10.126557371089223 0.19715296173835078 0.3769777166108992 0.18281880450386578
Ni 1.3173716071027366 2.210951008500389 9.799980739425644 -0.4378066749728137 0.4873945132032702 1.1345180389704783
P 2.329974778508816 6.147324279153699 9.690293013711411 -1.0476589750933891 -0.07282521149184232 -0.16061424338236854
P 5.343172279717425 8.690978639718654 5.922061469006835 -0.9936393263438243 -1.0109672760993105 0.12797100342605056
P 0.3242956556295066 7.798450552377857 1.181707037451491 0.3785800281010125 0.5502955236028652 0.899178024639445
P 8.103866672627401 8.794317179468084 7.665605757214824 1.0018257188093584 0.4486364185984661 -0.32274338074736675
P 4.081229328915932 3.6236167254710714 6.237811443231321 -0.6288093008390525 -0.16377438627790505 0.030955824951566045
P 4.409136060596089 4.66470863047144 11.78718958846855 -0.09234168425821516 0.8533627660775434 0.40185236836539173
P 5.888372485524165 1.808757674624121 8.850243332599803 -0.08278232270455421 -0.11513348534175011 -0.040109466426376084
P 7.274332948104155 8.991072482555358 3.3016471021923604 1.6963411035969689 1.183536120740394 1.1741500515398036
Ni 0.9383944790909673 3.0557287868480563 3.4294699953873726 -0.5882794590458063 -1.1881214261182313 1.1475093090238235
Ni 9.155884734432957 5.85066598046708 5.041619738626832 0.01833196553996843 -0.76081307957358 1.8990047107409038
Ni 6.398212869436446 7.971814117700069 8.695686086142883 0.61156079817125 2.1498636466431424 1.1202551012935609
Ni 9.157686987101854 0.8394658263407453 0.4062014687180344 -1.853023873135415 -2.5494930392152866 -1.5178037000772764
Ni 8.626013063044496 6.049993248300593 0.5907896889437221 -0.11244899653105152 -1.3988732095869394 -0.11251198855850301
Ni 0.15890799704043085 6.538291080779961 10.858870828204637 1.2339361704595007 -2.3157671634489088 1.118355570278003
Ni 4.179987143131915 5.1751497652733525 9.504577446894396 0.37540034482145024 -0.7077521951928585 0.6083052673484298
Ni 3.3015860884301325 2.556514184296149 4.330861974370042 0.3424202903510038 -1.9085522452200225 -0.9322388117491557
Ni 3.2744959780007696 8.51869454865125 2.3720780291394 0.3626574433334851 0.12722769750212282 0.9207513799348466
Ni 6.0130470685881985 1.1183634881793405 6.794300133723559 0.7414400743636069 0.755660331728047 0.3187715405838123
Ni 8.090800340777895 1.8544335157014875 2.275675346145429 -0.5155272668837444 -0.4452024532162526 0.9364996439080386
Ni 4.8783318921316745 7.291294774003622 11.375517531961801 -0.8581121078370706 -0.006653500760775638 -0.8851950800967916
Ni 2.931495380218598 0.32839953514430825 10.249076760336699 -0.33288715404958796 0.9610264254048094 1.088811280961983
Ni 3.333228764194991 7.130584524294294 4.480267781948364 1.9106353530012967 -1.4120529415020069 -0.3855104366722587
Ni 8.457080035533323 2.759032941230835 11.170279438578262 -1.645219345220489 0.8793008260995437 -1.30418410814247
Ni 5.594304925049086 7.599179604940248 3.596364224566855 -0.17814479606696418 -0.799460616742449 1.3629155605454075
Ni 9.374952301030488 7.97126968720634 12.741983628173218 1.8638659580562416 0.6835280325381712 1.0012744742915787
Ni 5.280084049573369 0.827980220269585 4.358077867016921 -0.5152395604399965 0.17247628492727715 -1.128448949958263
Ni 0.5499405057952462 4.989592834238133 12.606137894581817 -0.6138483086538461 1.1185473745738348 0.7585183700021324
Ni 1.6180474273637728 1.604455438485839 0.9809360901363294 1.6940217114351726 1.7259141892683953 1.8585872261558054
Ni 5.733660357978511 8.98162942950895 1.8621212497422526 -2.1253738890318945 1.3853078121976787 -0.6702842801543877
Ni 5.171010216174478 2.220947878773179 11.369500636332827 0.28618203668356523 -0.30903040203664844 1.7148954695603886
Ni 2.999633672528627 3.1665954861831924 11.046853290956749 0.31789479440581375 0.42724021231087705 1.4644024016380006
Ni 1.9380317566869016 8.094001216611717 8.95811754156596 -0.12525283316393912 -0.4175949759116292 -1.3967283953297944
P 0.06571745395946367 0.6507784199665814 11.601913320739582 0.7425140241540761 0.4907456890636903 0.15385429895071567
P 6.799598944304772 5.627308677048269 4.2630353215840096 -0.6861533859761603 1.6178049577632783 0.4472958454101716
P 2.8811449462812786 8.334930483552277 11.87615985654985 -1.27828718577105 -1.8071240252795073 -0.4122308833862384
P 6.664185939088559 9.03666384303887 12.773870358986992 -1.3570328765123856 -2.6632736100735683 -1.945435234289301
P 6.663904337109043 3.447718742333223 12.949241746423146 0.33070377324502404 -0.3081104613255403 -0.28375285841678227
P 2.1974153400183583 1.0293303289892828 8.378369466239027 0.33982347615810504 -0.7125534732362437 -2.9256050653917804
P 6.00048762030182 6.048500757809163 8.702019314662179 -2.307453501376891 -1.7328926774687574 -1.327106264156282
P 5.230447007317488 2.4631912882848095 2.4105176380164903 -2.575226439425649 -4.169242779409761 -0.10666761396258403
Ni 7.478541316915933 8.084642644159162 0.9228406630890774 2.154383131780051 0.7871044091699412 -0.9463215150944669
Ni 7.6260444337859985 7.779611379948291 11.461396748981288 -2.498961863234954 -2.0689029505283596 -0.9430837248834596
Ni 8.66681718987625 2.573231955146702 6.9749337234835895 0.05617834696378066 -0.20462304486315083 -0.3686560841190812
Ni 6.225872457973141 3.997321325753051 2.9972588291680484 2.2445249801734697 2.3261868161203356 -1.02429098979141
Ni 4.0890109302832025 1.0388860228274988 0.9023212655150694 -0.007245882929135908 2.330560519707999 2.506332701777729
Ni 3.5369865698395437 0.7999392338227258 6.134127471720352 0.8550699785766369 -1.5786262306812877 -0.05822623063174489
Ni 2.4766706363709377 6.188269206975209 12.086069726773545 0.7219428848709437 1.0321140853802548 -1.2819384093703923
Ni 4.795109120452281 3.7165078317804876 0.7690165204521611 1.5171557820806323 0.29403624262066136 -1.6279428175282284
Ni 8.417083167709514 6.920256005794386 3.3599124291005866 -2.084022322668301 4.655494694368156 -2.612800541024681
Ni 7.642264707806074 5.429877529210157 9.702108094098604 -0.5732865851813997 0.1807449526939726 1.1235846798874263
Ni 6.2001715839760525 6.48458019655376 13.07431620429809 0.03940061328480956 0.08715654051284989 0.24302941255549113
Ni 9.120600006399702 6.331416879895439 8.47887978344086 2.2461072370589252 0.8997722065800181 -1.4251609396388745
Ni 4.357020920920474 9.314689477414234 12.826681055552008 2.282774253462656 0.3103797169756913 -1.1829347397109693
Ni 2.955412775012089 3.889758756310893 2.0581960147123652 -0.56737253368981 -1.2756618323330613 0.9894697683471668
Ni 7.7186727115812 4.797052174110935 6.794670909663255 2.2479828568150837 -1.5239887458420656 -0.5916550603862585
Ni 7.520237183349485 0.638863840213293 10.76421220013713 -1.4784596510620152 0.1810030914513657 -0.5451432899779644
Ni 6.7881095835405505 1.1582664886766452 0.20331944522977405 -0.6456186590869074 3.637081503513762 2.017603271813119
Ni 6.193169081418775 3.573942136284589 9.941472592706324 0.34996750657064246 0.9731031540636854 0.12464605281787566
Ni 3.499458412702817 6.383991969470929 7.399258156929958 0.26458631279066047 0.6746631259483736 0.3180007238560588
Ni 8.644964876265869 3.1100216484985874 0.37939389894145187 -0.1157207253037878 1.5181875657792563 -0.41249956366659285
Ni 9.164689489659134 0.987446727902721 8.791263675336873 -1.1186602460026152 0.12259251272295661 -0.33638205457672393
Ni 8.528578778132234 4.845506488052852 2.8517137847288794 -0.47192907057781947 -2.557112760544073 0.026836403466553783
Ni 2.638338332810618 4.458209898892939 13.614869038769564 0.29801116810800937 -1.4711008967040988 -1.3227230474869218
Ni 4.351210533409811 8.99218950374077 8.090384508521478 -1.001802321770591 -0.31515451265651534 -1.3072671179431679
P 0.7800806622273135 4.2602530940264 1.7201206355519147 0.07156717071502512 -1.0791385337589092 -2.3898334464367035
P 1.3840737293172385 4.768225518141229 5.787479189630193 0.5901535361400674 -0.20618036204794166 -1.353004986299915
P 2.2016205962457853 8.428018711247354 5.466425711458172 -0.5118721866296604 2.1679577851406924 0.8548465497119212
P 8.749673878982273 3.976895795505548 8.73415291654466 0.6964203151198071 -1.7390178165298888 -1.093982026529645
P 4.277158599529962 6.961125839754693 1.1604798802356346 -0.8074847725985063 0.38749892785719714 -0.10582197813283711
P 2.002039886630708 1.0511357089364102 3.2398382837085675 0.43634937370099686 -0.24661635857580108 -0.356230970981851
P 2.861019791478592 1.8343928414926551 13.054505505039193 0.8643498612166662 1.1092386955783993 -1.2819425231354502
P 8.360941119726832 3.583188067945338 4.855161681257164 0.49680449366326046 -0.6404700250064325 0.2852237865353539
