# total energy = -340890.6935309752 ev
CRYSTAL
PRIMVEC
9.07560044559916 0.00000000000000 0.00000000000000
0.00000000000000 9.07560044559916 0.00000000000000
0.00000000000000 0.00000000000000 13.28305862788330
PRIMCOORD
 96 1
Ni 6.564327218050753 1.8111903180791415 11.284874545030886 -0.3980409650391016 0.9973077763343469 0.1996217349938175
Ni 4.9690272790747025 0.15733551375353544 5.671799108272685 -1.8258100317247847 0.9120592514774872 0.895386933028129
Ni 2.7151654824714155 1.59990126831039 4.860284344259866 0.09646599083923386 -0.4212585408061454 1.194359436608143
Ni 3.6294868311657544 4.541920455004979 5.209947256148554 -1.3009380904013466 -1.2645729215087513 -0.47808531998720244
Ni 5.123430466382627 4.923939696958335 2.697018819741609 0.344212092144104 -0.9702392022523291 -0.991827469946066
Ni 7.480418308796762 5.912726345826748 2.7275300802724094 -0.77125047285682 0.5728538685193553 0.6995182373188404
Ni 5.005901442951274 4.540967516977158 11.3350980093372 -0.30151069662083557 0.24178911239048684 0.426140294378479
Ni 5.690700860944537 8.007039089771874 12.499371372489087 0.022893102548089603 -0.31716125867389894 0.12401099033703805
Ni 1.7037170597413744 6.729902469284855 0.46760850537220217 0.186308305714363 -0.4782195315722216 -1.792551783892287
Ni 2.9157362483272387 2.047246680970995 0.4580319319726065 0.3611721170372102 -2.1855109635331074 -0.7838383368241597
Ni 0.6476992716700953 9.10482369782257 4.822294789110732 0.4436505353481005 -0.6271470826452812 -0.24233624314320848
Ni 8.514074725375181 2.285998497141544 1.404112436234179 0.6099816266095882 0.21060651614009537 0.08750441077057189
Ni 7.259164249937073 0.5558650877089233 4.827820922112071 -0.25387818234453696 0.03123376120330105 -0.06935653621695152
Ni 0.5906663844849748 7.5016461378165245 2.3241495979753957 0.4609918548400255 -0.531312297632143 1.1444949476775321
Ni 7.697007509120255 3.702509110897698 3.8730877405578763 -0.37330772395847966 -0.4783573427016665 -0.7236344136407538
Ni 7.610625945798277 3.88709774468691 12.578511514359647 0.19698712558444784 -0.8319729875478575 0.208970266088253
Ni 7.843242656189706 8.659375085617341 7.1564865387793155 0.7312644193821858 -0.18166129386065485 -0.764663820778238
Ni 6.5678394753532965 0.9172164651788641 0.3323530195033107 2.45964455369257 -0.44449642828816355 0.27984915248700193
Ni 1.9387297286027563 6.576806168415087 9.393885196501948 -0.6175326994839687 -0.4487703730731691 0.08672022430637968
Ni 0.033533435419035314 4.896558610958922 1.5181337401631219 0.9787662658867338 -0.8267852726993309 -1.185029931677101
Ni 6.231198234724787 1.9980569275348607 6.700465759825426 1.5572657627276405 -0.6805321831346409 2.4416625152928533
Ni 3.263014092466291 4.486477612986281 0.4881710928925433 0.942096421269526 0.3219792488878326 -1.2932859731727275
Ni 6.077348659033027 5.583599702217634 4.754312190205924 0.23912056441938814 0.4932157478707377 0.8165525392277293
Ni 5.241268060222989 2.6731363776443424 9.242551377203638 -0.07188753016892135 0.2879396428046202 -0.05651284748506396
P 0.04208900378882194 5.675444776899123 12.386253090786507 1.0092844890802488 -0.5726774908424911 0.32958637181112915
P 4.112018346053646 6.3540546355116785 12.577342577045517 -0.675365808442353 -0.7239910256492241 0.1995273755077983
P 2.1140340233209045 8.779309143118912 1.1501844013005482 0.39743727001683166 0.42962182516917624 0.20020100453605522
P 6.462154110267728 7.701091529239491 5.6687315553831255 0.5337666727099065 -0.9186852414344371 0.061893137960370825
P 4.786072253333186 1.3022125040191297 12.500872476772912 -0.34030324400800105 -1.0579269326783007 0.6446699220203929
P 4.037943296690965 6.1206392722969305 8.324891115171816 0.44859245273440806 -0.5502770116601039 0.744809247946156
P 4.265268932127919 1.1053082806703542 3.4910530700840705 1.5428297898079686 -0.5390011816359684 -0.3462790019754617
P 0.4370763709607922 5.67934728501306 3.6655931992599085 0.12436708812487615 0.6158751092758876 -1.0394792674960742
Ni 1.6580214124072536 1.3570654320206044 2.7903323265459714 -0.1659089161224046 -0.14088565460518962 -1.9803778118027568
Ni 2.0349583182122264 6.663931930958792 4.917680255455585 -0.6188215934987213 -0.08607847695732272 0.007579869229786946
Ni 5.990522391298065 5.612305825855732 9.327376475080174 0.5964113441243212 -0.016648407189958424 0.056700795126153954
Ni 8.720172531792372 2.2718677875289868 10.18798660628637 -0.0906522123709342 1.2281370472792204 -0.23949620259125204
Ni 2.2943934273866406 5.629712827163943 7.170659903713118 -0.3129893866843964 -2.3368993174418335 -0.37875640577787667
Ni 0.5728555189649723 0.2824698902069331 9.269675623715552 -0.5104241413292242 -1.6683117082635783 0.5928290260897016
Ni 1.5060232591695468 1.222728396898528 11.443832776111798 -0.43017435523853653 -0.10625495190519764 0.8746993227717903
Ni 4.0092099462520725 6.835115903156645 1.4780322928323282 1.175866520010278 0.745263047654123 -0.5082857548299826
Ni 5.780458547565084 7.560338044730082 7.978761334466283 -0.4664456788657451 1.633794134102683 0.3031495177758392
Ni 5.270182922667182 2.8387842336805633 4.924986113668886 -0.5864226083427255 0.13140368325668336 -2.133536113127713
Ni 0.976498286109644 7.481298642022463 7.163021878530119 -1.0568136450094638 0.7826959956896004 -0.29594451538696775
Ni 5.054192711961176 4.666964075455728 7.064209465525213 1.2025687118918127 -0.9660398194590007 0.747630519445035
Ni 8.49962636975335 7.035577761809288 9.22392824545992 -1.269333061901556 1.2747557755790238 0.568796153510214
Ni 4.574402028353305 0.27059537482024715 10.560217813353958 0.9752011742432946 0.5654143815221746 -0.8827301634960669
Ni 8.547109910339671 6.959968936001828 5.0863620846603865 -0.9914052948069829 1.86049961268717 -0.2495628427986347
Ni 7.29997722432864 5.999543537961444 7.001301034728551 0.30962252709469257 -0.24105120578319778 -0.061773838773687154
Ni 2.4556123904935565 5.402523325730965 2.4524513589212678 -1.7167986001203723 -0.29600879296599986 1.6416413980612439
Ni 2.3419132703740204 5.454000130433871 11.502026432570808 -0.26994911976447056 -0.610603062243671 0.6020124923611826
Ni 0.992189998967776 3.595516859373974 3.8085184749127254 1.6527477923870504 -0.9497917330312545 -0.4256821237951378
Ni 3.556963709448384 3.0409069271816955 2.723996949089257 0.5609342342636339 -0.009832669819705646 0.5776188940081666
Ni 1.3066232457479046 3.389963588972683 8.188101852858145 -0.8624786123358823 -0.2636118646925331 -0.24450342599785632
Ni 3.772727030147766 2.657862142398399 7.005684549656531 -0.22912103000451509 -0.7144018392988922 0.7615337597896885
Ni 4.248978229652298 6.675367187292654 6.092992271209755 0.17312008915886315 2.134825264252781 -0.37564100007734663
Ni 0.7748384482220246 7.549674214418742 11.396651453014302 -0.0632455382232072 -0.5543959189244839 0.49742644351797555
P 0.12373401133251286 5.439270431203826 8.069378480431922 0.9405812701765801 -0.1248057183241915 -0.8248026950516634
P 8.647059496057778 1.5255539509397607 7.916689674014051 -0.747944451141028 1.30200844064739 -0.9164679220681442
P 1.901537918716912 3.229688488293324 10.390207316270367 -4.322873392385445 0.3816969764634394 -0.5010398719008468
P 3.8816523845279285 6.156306381338261 3.885958756853656 0.7326818685550027 1.597540036866655 -0.4537948228709539
P 6.7910266370694226 3.8319362462764257 10.326728030217039 1.084636837869319 -0.2557453174602628 0.5628934148725339
P 6.519729718348694 7.774740025389717 10.29065070404373 -0.8289902507704499 -0.3495646147052689 -0.41132971172820776
P 2.6256982150593475 8.576188133588634 5.8908105863069 0.017496357012550513 -0.41719954024542344 -0.42278551897363315
P 6.99642562226621 3.847691488336413 1.752354109121372 -0.7350542254419211 0.5858639076257781 -0.7474996502941255
Ni 5.293452761746562 2.8755041123526293 0.6910933467770198 -0.6459058513100231 0.5451312057931063 0.10444849482407818
Ni 1.6289522647585568 0.8464903123139579 7.218970231483577 -0.11245876672306439 1.3804525409879065 -0.7203004641715143
Ni 6.921397634875708 0.7117621188204611 9.037487281656627 -0.95355762783159 -0.1131442228258632 0.605694312088144
Ni 2.901387724308322 1.4733420226153922 9.312075013033434 -0.32446627697574437 0.065298564097494 -1.089583383241317
Ni 6.370417942789418 1.8899846795796056 2.819700969003412 -0.47259370074501195 -0.371520807261386 -0.3096266408597506
Ni 4.214953804258928 7.010329441872143 10.488462487419003 0.14328063719992742 -0.5089030766990075 -0.4551760194891967
Ni 7.928108594267435 7.10578660545909 0.3772745181348296 0.9088008924411897 -0.7292481602831055 -0.3952726582653451
Ni 7.418477336988346 3.815237141788882 8.162293568384651 0.9714003124399658 -0.6058696613237438 0.10284849732680997
Ni 3.1696533925405515 8.516706649452024 12.397118399423729 -0.2779359946246891 -0.0828784819627863 0.8300194633659124
Ni 0.0672783323242444 4.7922890395146895 10.219613258089735 0.01031526588307901 -0.4440359437119772 0.5667135599495724
Ni 8.937714670143688 2.2514658381333357 5.717386755963653 0.11745210617259771 0.38550220914214256 0.8031712328248168
Ni 3.499242891763179 2.7020966180898593 11.389717694411866 2.4122910041092713 -0.2981322670669059 1.8899045482118482
Ni 1.0189267173483758 3.4449435753778674 12.779590513830309 0.10655911340917777 0.8194599426825112 -0.8627228671362045
Ni 3.277308162883618 8.085062025249815 8.084747101920621 0.21506995122808767 1.846855539541174 -0.005595491809906492
Ni 5.3229756894085085 7.99625727665709 3.679314599300516 0.5919288828729354 -0.42749757973732183 -1.0129282564804232
Ni 2.843585226220732 8.294663013369282 3.253777854076632 0.34648083357362264 0.3481865034108197 0.06985095935486679
Ni 3.3820859679426896 4.273264535961356 9.426162568844312 1.3228531453068828 1.0884682958002674 -1.3481517719726717
Ni 7.031049037277068 6.0500220266352045 11.746752716395786 0.25769369943588527 0.4283601848479333 -2.047683379027951
Ni 0.1121081673930871 8.969143473861276 0.1251116874527352 1.1458152091508524 0.8511215354518502 0.5332755920061009
Ni 4.5885327379658625 0.21297892653808914 1.3779447579901931 -0.7005381939429226 0.10862293791674196 0.6149250866577926
Ni 5.734136683812681 5.197342154940537 0.3051253111483761 0.23325047879185637 1.1056525208890378 0.8754637117416407
Ni 8.005341952522324 9.004211593285117 11.237520785528357 0.22737345118578906 0.012341295174172295 0.3066068801968203
Ni 9.048409766575519 4.818463070678861 5.625268505714187 0.9876131747544025 -1.0396661866958996 2.0887043015250026
Ni 7.82151566915537 8.755776111631846 2.5368780379461717 -0.21918063096235155 1.2909434410824798 0.30815237030706927
P 8.744776484110703 1.5760052128127255 3.4780096173832566 -1.21909499168161 -0.3070871622673485 1.4103490714370228
P 1.721949940673698 3.3544870675369176 1.5761413468167 -0.668305816271778 0.496383604075758 0.9561644693268179
P 4.7567943668783945 0.8462307501463797 8.124808616610249 0.5495925839985696 -0.280851111388955 -0.5657923336868836
P 8.639472294236265 1.8130235893326654 12.524051559849646 -1.229803893458682 -0.9470090280797949 -0.9312196264560222
P 6.428374726081512 7.441974066074351 1.6838932260826018 -3.650368193320339 0.8285619049837795 -0.1731781960903082
P 1.9510906961636445 3.278705805324423 6.033629677436617 -0.7179170515410023 0.7791285900533163 -0.21590890218961525
P 7.032873232930327 3.923572582151822 5.8940115505203545 -0.9398163669860976 0.004435667173850425 1.031978588243655
P 2.306155405330041 8.58887582275906 10.243961278480596 1.6808774607437311 -0.40875552324312825 0.2757695831009896
