# total energy = -381164.9718551356 ev
CRYSTAL
PRIMVEC
9.34132939090568 0.00000000000000 0.00000000000000

0.00000000000000 9.34132939090568 0.00000000000000

0.00000000000000 0.00000000000000 13.67197979964101

PRIMCOORD
 96 1
Ni 7.1737485251228135 1.4879242876246646 8.11999341722623 -1.2946088057492091 0.07850863502986478 1.3467950008344614
Ni 7.894114471259673 8.222452852928386 9.796971262663751 2.5258676864868628 -1.2649860977867697 0.6195988379843781
Ni 4.110567862752348 5.105727691319677 1.0021630231030776 -1.0348695366382046 -0.16314009512801583 -0.8963678088841593
Ni 9.314444900460064 3.204701800447822 8.225363611121448 -0.1661210321332107 0.13036727157236902 -0.44297922031268866
Ni 6.907081599136391 6.775424904742842 5.973697849138909 0.17366079215368158 0.4301977522773042 -0.20833828893120895
Ni 7.680412882098241 5.07138896501127 11.640022995968893 0.7628918164794797 -0.20776159049213253 -0.34502610340496703
Ni 4.730570567469861 5.912164645129459 5.747727358145741 1.0939809980883803 0.3401104112709046 0.6951057100734416
Ni 0.6358829644357635 2.3165282157352762 4.03640611573519 0.6323468816786657 0.21526998305403572 0.7859255583704916
Ni 1.93534593452177 5.0815523312309505 8.81912371958809 0.6770640220803823 -1.9858935994146638 0.9046249066866292
Ni 6.339082074331529 4.791261183581318 1.3196234268647888 0.2266931372893128 0.5909161253377049 0.5784190213119587
Ni 0.44804097702611734 7.8566370583246 2.0019468096471913 0.24786488627092154 -0.5494311187200409 -0.09725069152405832
Ni 0.11316459901810752 3.1272621809982315 1.9525498605941838 1.3797328892130625 0.03090620266055322 -0.536550920323263
Ni 2.3634123472211015 2.9347934332130263 8.680858968885898 1.584465463070884 0.6342237869864045 0.2556476155401339
Ni 6.011304172417577 1.9561957813989093 5.939983123624136 0.37454262480684525 3.1092016286019355 0.33656408868054294
Ni 3.9613027627300323 1.9783534143704928 12.325344011306345 0.5822833893633713 -1.3360179648236152 -0.7379981385615935
Ni 1.2203792766891155 7.889836142464992 8.92076205244952 0.06782827249788319 -0.20645829829967668 0.43353221596717595
Ni 4.230846818124232 5.9345838353199305 8.54858294436334 0.28583056688141745 -1.0176495732154927 -0.24812970989653396
Ni 4.1952096470506275 6.77032453897451 2.9861651392686452 0.01905547396955428 -0.5844868247725934 -0.3341824758222438
Ni 1.6736579370234816 1.287898404479421 12.280199235326132 -0.2466500400272139 -1.1995530649939405 -0.9855933161108963
Ni 8.285815089204208 7.554772003739136 4.2328309164560896 -1.0001861263234064 0.46280345412746743 -0.9486838446790565
Ni 9.159098595098582 7.212468334847608 6.942125595802873 -0.749541877535135 0.47231345050043166 -0.11133596597253083
Ni 7.247647780788157 2.267028512060562 1.5146498305975569 -0.75725801523247 -0.7329646899027441 -0.6567975585218624
Ni 6.663272905815004 0.8626838995989031 13.042084587562822 -0.09038610319374112 0.8114962077507444 -0.45940985506488624
Ni 6.20281076329044 8.586531160292411 8.599278338181543 -0.43059164528161326 1.737110057984215 -1.5485420097013978
P 8.619963777663953 8.527110964958414 12.506538708824518 0.670793101470006 0.810819493398694 -1.3419171039168696
Ni 5.6134756424876455 0.26437643205529576 1.279952669822748 -0.6721714698747714 -1.5240514807592012 1.6592758233135554
P 6.084652289657405 7.298931678348863 1.7650796580885297 -0.7871452897102056 -0.6165657075850091 0.31247079517676507
Ni 5.783347714826704 5.875397173217084 12.777599796088273 -0.84081166888541 -1.466320701706636 -0.14741471397295902
P 0.6245220398067418 4.716904202782919 12.40803252365928 -1.4188619940040403 0.90334706841547 -0.2207541460970585
P 1.5838410563229022 1.6083994109107154 1.3277896168916683 0.5825937215149386 -0.16179386551276653 -0.43371579273289174
P 0.6912415498135874 5.331834565719837 7.342208188479872 -2.7171024829685657 -0.769546602791836 -3.108364477412621
Ni 3.361991102292477 1.2489824268404597 2.5968970034597754 1.1315607561143675 0.007251539356090737 -0.12321009170229748
Ni 7.656900756385983 8.533743308723095 0.7355904445420401 -0.9430379592471887 -1.2619627375794138 1.7140837722923705
Ni 2.68359574845803 3.401719775575843 2.1008088994567022 -0.5769012991158516 0.8518514716393394 -0.014672000189877958
Ni 6.300306216631257 9.18987827496425 6.3218818847908125 0.3666807055602652 -2.516946472737833 0.5383167539744342
Ni 0.999270013435582 6.937674452417139 4.853074627468149 -1.050439880272636 1.3620138746667445 -0.013239895729041714
Ni 8.562505261471623 5.466134856290012 9.051862003620005 0.2124178583172213 0.33701506017503247 0.011356562663399796
Ni 9.052046961939077 6.710633445092378 13.569562360231332 -1.2751288426477265 -1.1826390628474213 -1.0277074716721268
Ni 7.469027942589825 3.094959864465459 9.972861019303101 -0.10132434737279968 0.8615357888066388 0.18351608768120653
Ni 4.364427826342463 7.62001184719341 13.467446685445427 0.7178381186739509 0.03170067353739056 1.338164835963289
Ni 5.763516072837381 8.490763852862111 3.688194056095548 0.33264932700716904 -0.22361861212904713 0.22898116199254112
Ni 5.699910962001162 1.7004301866426041 3.58345346779151 0.487376001260509 -0.6625439740873365 -0.8983406163398142
Ni 1.4424320141964977 8.150552641721692 13.177518915503468 0.6098224753239047 1.9451745244287466 0.1655296784061149
Ni 6.400800236660049 3.702575966602736 7.855851452535009 -0.9842823106089564 0.1560867878256602 0.4217125976244286
Ni 1.6173297216699203 5.581276080576579 2.9286477727020634 0.5124949078153238 -0.2727793901244141 1.4719215928331812
Ni 3.6382235494268342 8.698935375109892 11.52036523899187 -1.008700848662637 -0.8623996794688308 0.7108470320680983
Ni 3.598532241460452 3.241702805591347 4.948928809260438 -0.8239508885743294 -0.9468205662180725 -0.7713209210834393
Ni 4.5992034542829385 3.7248550368545175 9.852398039745072 1.2118822759832548 -0.06774291187292851 -0.6248819407601883
Ni 1.7901162887337396 0.9503588135033681 8.394567778419416 0.26766752281914546 -1.649156732601682 -2.185899200110461
Ni 2.4583576176777515 6.899851410299963 1.2246622761484203 1.707555998476182 1.6944868239970496 0.10403197611194985
Ni 9.060603619528441 0.47134852762788715 2.8594257205902065 -1.07117428460651 0.7814960618442283 -0.5423410446424789
Ni 2.515489187346472 8.557021901204202 3.3111070136235017 -0.7503831424895078 -1.1644608492764978 0.5579959775709165
Ni 4.216050152598521 0.6168425330335804 5.331429152030559 -0.6345495457569394 -0.1556098481892417 -0.480473617713721
Ni 7.667026757288681 0.9450716211501151 10.881268857295472 -0.11534688690413682 -0.2719959749911703 -0.4030487026663381
Ni 3.551349187438754 1.1643219598836885 10.150911425397059 -0.5421561823251824 1.0151882561591934 -0.6666970770237615
Ni 2.6967483400364407 6.331356795045061 12.325330933445402 0.5242062827149812 -1.1762339306520257 -0.11401788368006817
P 6.190115896845086 5.485574162451001 10.036312932339685 -0.10715818044575738 -1.7878965445084627 1.0081256928854574
Ni 0.4482268694781133 4.10169359996862 10.412114607907478 -1.923804029172771 -0.9411502553061726 0.1593891127260158
P 2.334202010668765 1.0914409091061614 4.508540249152668 -0.8168160773017611 0.11270173597180591 0.8030462772111783
Ni 8.2324200512339 4.045626941833946 0.3259591451097495 0.27420249572418587 0.6836743283080483 -2.207516264159605
P 5.4491336370622365 0.4702817478279905 11.149485509803812 0.4265285309558332 0.07724545204672503 0.07335125919864142
P 2.643530787321807 6.385947523158861 10.088676687561232 1.504834284400802 3.126146226876074 2.472630424429277
P 5.938787433480645 4.022432421316053 5.211772329186461 -0.5305651350534734 0.21341878877790985 0.05497944155967306
Ni 3.3561154061967238 0.39458241801693605 0.2254511130870882 -0.821076909460644 -0.1107394700391125 0.8066136828474625
Ni 8.873879789229544 2.471762425145805 12.244091261258527 -0.17468511965313788 1.0129423975478105 -0.441730178396936
Ni 0.27242959199829836 0.06881850668842864 5.176033337624073 -0.7382480497888705 0.2315304107769561 -0.6271355126810554
Ni 4.9193121248858995 2.352240117442849 0.9030543222014715 -0.9017558126689502 1.4757319677182068 0.5413018047446871
Ni 2.533004179682778 3.7814634920854604 10.90113412807008 1.7120202048951225 0.19628624286268131 0.8953080001610776
Ni 1.1292639512233373 4.324334841218501 5.241467480726666 -1.5930290363701791 -0.7416236511293227 0.9103785213409549
Ni 4.902021324451497 3.7975679437056162 3.1266176292802554 0.5792690280170799 1.032274779327835 -0.7364680750703123
Ni 4.434020729225388 1.2935685913317614 8.024795930879938 0.7767436347609075 1.9939846039529143 -1.1932803446113516
Ni 7.964576117762478 4.564948799937746 6.461008840182412 0.6875973175115384 0.5198179238392984 -0.9233067993668486
Ni 7.8008039334210775 3.2258318872023417 3.536517024861907 -1.1327807445643976 0.8707498512057391 1.6321877088475116
Ni 9.149009959512869 0.8646904171209504 0.32080927029641304 0.6222915543251928 0.32779379868708064 -0.06048905852399259
Ni 2.138314336379513 3.4579172123199604 13.238946562492435 0.22553048443977933 -1.0974944105582776 1.240391182056225
Ni 1.5338649448566406 2.2664400083180625 6.3290326723286485 0.7510770832327387 -0.7302007540043619 0.21054815209833416
Ni 2.6944783970296555 5.732783099617943 5.095150504214398 2.7883606070836042 -0.5563890380951128 -1.1549673079637657
Ni 8.481170307726437 2.0171946613754863 6.328035018365173 -0.44821655745222805 1.4111623113669374 -2.5040428773022874
Ni 2.0426778075586562 8.807397548985547 6.425434256014755 0.33452726075617223 0.9638746934868822 0.05002029778218483
Ni 3.9469077743619 8.546830510996783 8.452003875421557 -1.9723919653838033 -1.510922913797043 -0.10387848125322109
Ni 2.4361626193891843 6.678275080584129 7.181726954431848 0.3026736065806852 0.08098589292576375 -0.4633454426738665
Ni 6.07607694940955 3.117696659850297 12.614233025436151 1.6958489944518986 1.1705420224735712 -0.2217926146639019
Ni 5.110426379930431 7.362798346403971 10.16827508819958 -0.2463816168571757 -0.1935025094699571 1.5902087933125646
Ni 0.6180475645063183 7.009060890515301 11.237054866687798 -0.5360343856981608 -0.4055964087888564 -0.7767058395444366
Ni 8.63072498895538 5.741405146512028 1.9942224644936488 -1.7353241697283854 0.28793681459114284 0.41224013935761905
Ni 6.684104070033651 6.349086637954026 8.21371497355165 -0.312146836178443 0.5507629501575869 -0.8569350568098338
Ni 3.9666366617295155 3.7754009694047865 7.082304384867575 0.4481985597300991 0.28938228878841776 1.1828403802249499
Ni 8.88123141534617 0.23499047851313418 7.466746789987946 1.265716548194891 -2.101776818438245 1.5877947845544331
P 8.978231778236948 5.09995474984563 3.9139870618330406 -0.4985176196996253 0.05596828783550361 0.9648511984675384
Ni 1.1707487944049573 5.215245435400134 0.7670763288987094 0.20055324566915136 -1.59491442631835 -0.5516155279658693
P 7.3977909657596 0.4946299225077681 4.483616648591336 0.5560694499721649 0.11141926971495651 -0.1453909986747109
Ni 6.425526735174292 5.746739045511512 3.8298226194592337 0.6377433701038887 0.0013547142556815377 -0.5218503808882947
P 1.0431649195626775 0.3816558866062796 10.124360565281066 -0.9489504680768818 -0.49502426183438614 2.72850789659203
P 4.138068736052661 4.002843653887128 12.58446968219245 0.5655251960684261 2.51949623574288 0.19804127788057505
P 4.092875385160367 8.054841382266869 6.279157447218244 1.2082079124554612 -1.0042924351822962 0.4851314282007064
Ni 6.5720361430690275 7.9474067546082745 12.03939471349027 -0.01160184590498647 0.35447979261869916 -0.2166511796722785
