# total energy = -381174.3894480117 ev
CRYSTAL
PRIMVEC
9.19515364586803 0.00000000000000 0.00000000000000
0.00000000000000 9.19515364586803 0.00000000000000
0.00000000000000 0.00000000000000 13.45803682111195
PRIMCOORD
 96 1
Ni 7.349585099743349 4.972876976560042 12.900040015879323 -1.0975586881373098 -0.14891803799136288 0.563197576376514
Ni 6.893680190717483 7.438851650575786 8.837327844397803 0.08024335833278438 2.0890850819031894 2.303925433618974
Ni 0.30659492491358253 0.4663349717173811 5.3752072428407365 -1.7232237869204257 -0.49835435464888367 -0.047981927195917366
Ni 3.2818514548986637 2.230118985011621 13.142082204203602 0.6661250065703753 -0.17075518847111237 -0.7515581366342153
Ni 5.3015577408271914 0.6516504186535801 12.280592864049535 0.7328199367947638 0.6948748250095581 -0.5264133176686289
Ni -0.11315188173914785 2.775741007394728 5.363647095775785 0.7302033251075231 0.24872774849184906 -0.885715728486952
Ni 4.302890502177685 2.39233068909434 6.9814911487402 0.16819256995025875 0.6249102228949625 0.2606448116444092
Ni 3.371292713648883 4.949521286498814 7.909328119459929 0.06226491947749277 -1.8416775948846604 1.0266335218816576
Ni 4.984766310122706 4.8023712439595165 3.2382186121905794 0.6076457793875599 0.1553375683644615 0.7767294936935204
Ni 1.1605203317430965 5.888953345867052 2.4195796071760096 0.9915878431314342 0.9902223302424753 0.04386559103469865
Ni 5.007156509059354 1.0372776884790706 1.1218399987464205 0.6454440811822562 -0.4755011041997941 1.0098457609003575
Ni 8.78742206792603 7.079045291482946 5.058499488033713 0.5449496859099195 0.7759216530802443 -0.2501755366819691
Ni 5.0739133239587675 5.906580455255781 9.664552364298267 -2.2112713603266623 -0.5586788625705539 -0.9632000360173605
Ni 3.5297895756903674 8.933220422890919 2.7220762521445967 -0.5078813203027125 -0.08057297375806123 -0.08885346859929859
Ni 7.085307191062354 2.0268417250968396 6.033749429093092 -1.162769577617004 -0.19993540957949438 1.0300335487021424
Ni 0.3204446652168188 7.5760801224158465 9.943201378489771 -0.24984232171226647 0.8523741769120288 -1.845943569249866
Ni 2.3477249991388236 4.3963408478832955 12.231094432880798 -0.3916510023523577 -0.4036613965496726 -0.2924223611663222
Ni 0.4882810447367239 4.891472282027742 4.901175008072074 0.7288848634064157 1.7258504259099956 -0.5422286874343307
Ni 8.935454845207799 4.527969471200801 11.304669837749023 0.6200778345033257 -1.8539363576473553 1.3719334477733016
Ni 7.20382352539273 5.053638010342623 5.765045893000101 1.3450692763926062 -0.49283239638938997 -1.7166826433677984
Ni 8.209102079457207 5.567702265682371 1.8807334934567292 -2.8332929488199206 -0.06843299596141762 1.9889910073930648
Ni 5.7163419230995896 3.1078791494032245 13.376185296937777 -0.006545771538317759 -0.8560351707033839 -0.6680453635215398
Ni 5.754170784875924 6.016315417929278 1.1719122074977637 0.1264368261697113 -0.4310894108536382 -0.8596208311721132
Ni 1.4393081927534679 4.247186261866302 9.783992811562168 1.5765189545302978 0.8500861522088006 -1.2466659593213434
P 3.044690054087968 5.661308928998627 10.592362669072651 0.6195656707535975 -0.3512281184506209 -0.2627274052050508
Ni 5.89321989712233 8.040646866102215 2.3108790992788464 -0.4390107225832439 0.6788902766558437 0.6328207359912907
P 7.053151739037114 6.69356606362989 3.807399537528753 -0.2221271151851852 0.3239410005998937 -0.4986096651927993
Ni 2.437184648196177 8.787192189086845 5.128655751206999 0.3442858828048329 -1.3804867366599514 0.22205563851730142
P 5.2016156167029886 0.9235428340037489 3.567509934654606 0.1740523711651454 0.37141256381829585 -0.9779136880784512
P 4.753351880291642 2.677619523676872 11.29123939644846 -0.27631902784655643 -0.20443843965617048 -0.4119727446288453
P 8.995535978617271 1.5059178851958022 3.355909221730602 -0.16334295516744127 0.03193078727032565 1.1438645131823848
Ni 6.38251240875147 6.722457236138701 11.129473657313762 2.25517088992309 -0.190553197033646 1.8623016988929155
Ni 1.3733881368286895 6.569495856544798 7.96305264320825 0.17568065079718778 -1.6253781421248459 0.9502555600415505
Ni 7.667673047100839 8.584576980228917 11.042224523174013 -0.5347508910000468 0.5848521785318122 0.17857905539090535
Ni 1.3006452769568915 0.522989071392278 9.401514881833517 0.5218961465245657 1.0288138173624282 0.5953947299343488
Ni 4.099843121102088 4.316113133007623 1.15641101761382 -1.1577137603606513 -0.3377552807751667 -0.6736300566981689
Ni 4.184144289008123 2.699614331010122 4.520904834714958 0.3766822968576674 -0.6640300717145596 -0.5276294494639172
Ni 2.8626352086067732 6.2421024137770855 13.54807122208877 0.3206229919702543 -0.011124649158251808 0.43993529128004233
Ni 5.348489804635263 3.3244801868371874 9.080917577067478 -0.08934532063405257 0.14448031393498342 -1.743366323306572
Ni 0.9757988917273525 8.502170013957768 3.2997084431265784 1.045351410006135 -1.315732989322334 0.8594966468894231
Ni 6.518839755541924 4.081094202978134 10.7788376248737 0.5765138338694458 0.8736641966390566 0.4220905497891376
Ni 7.654330879274525 8.636879013720357 6.5788804302756985 -0.36877975418113906 2.2069048558278506 0.36100422400077825
Ni 2.4037694601322013 3.806554502915908 5.802109717999627 0.5512632868327731 1.6431321236741572 0.08844466319665413
Ni 8.660823193609898 5.468716437529179 9.32756377878296 -1.3436322868357633 -0.17031270161705508 -0.7406705431874341
Ni 2.2247030395604153 1.6692605931673128 6.14160214383134 -0.1573024054003162 -1.1825848125707181 0.8262139735768932
Ni 1.0252780130735977 0.8409298962926904 1.6027180253460207 0.08651453605347681 1.3419235316747726 -0.22867108695129004
Ni 3.4577363523361253 8.78767953222592 -0.125339138277396 -1.5362552219142447 0.6228566828000435 2.7500532268629736
Ni 3.1400805771963025 2.2144412481791838 2.0640048577548926 0.28075340946882615 -0.08340350122832088 -0.09260033723624052
Ni 8.188394593623393 2.817854810733476 0.8902839635504189 -0.4058704883858494 0.19890645409434776 0.4785296066134726
Ni 6.70156584723354 3.3664744531795585 3.9655451447039622 0.5364496188587083 -0.6006644629737203 -0.3439151297289754
Ni 2.5861001602204183 4.208235591354743 3.279602320336075 0.13961938629825632 0.08387761265126199 0.37766214427243344
Ni 4.621401426599276 0.2353508750732726 5.5308628024298905 0.7967247058685246 0.3176826783950077 0.6264917084494694
Ni 5.922193826013246 0.8313862464050734 7.984034144618371 0.05457886368714471 0.39060096382128856 -0.3696863251558085
Ni 6.6624404688042 1.4609351939440214 10.186240321460756 -0.3554668391223168 0.4749282624154595 0.2759035375756926
Ni 0.1489412584542297 3.6908978613449968 2.8486493800307393 0.4476791968915193 -0.9084959596062612 0.3981186123545724
Ni 6.0000399961149595 7.2955267919205316 5.892776690720382 -0.6361426012756721 -0.5183531663683137 -1.463719259528047
P 8.794860947162066 6.573311845275274 11.647001727002353 -1.7900889241740912 0.10446417855336203 1.2281851269083364
Ni 4.733370811589656 4.849992944285145 5.664258734263053 -0.07626020531532027 -0.24642455427996915 0.27405748550588926
P 5.752957024605024 7.946699982103963 13.545648299123757 -0.2495510157240928 0.7901884474119036 -0.5985415030934466
Ni 1.6525805845960269 7.070135187676123 11.7609379553408 0.929012334392058 -0.13971580266680456 0.09426821185696668
P 1.8467546424790708 3.8584703399575173 1.0293018122746973 0.4268049245456715 -0.22767247048344658 0.5238884943642462
P 1.8070867499892547 7.747146759383983 1.2808389161726856 0.5595160137598686 0.10211187627110156 1.2956786417746202
P 5.152844522181433 8.083735355719108 7.769809134866228 -1.2783023552797017 -0.4159193879814192 -0.161512843937238
Ni 3.841063914254406 1.495610118046733 9.294120085742925 -0.496867228580396 0.37169332828350826 0.1817710799656418
Ni 8.733621224403102 2.749249769967013 9.549392261019996 -0.8793370786541178 0.5393495661143227 0.9473116469218781
Ni 3.2533648691468207 6.877708208970889 6.8389028218856955 2.2634236168501856 0.6696597591965112 -0.3775906676045497
Ni 2.877752041071599 0.18774572602406603 11.123107852499041 -0.03653563303218869 0.2623661652108901 1.2349432715677766
Ni 3.594578627726354 6.395422404360117 2.250520272231639 -0.32080219786059594 1.0053031358349978 0.49277634634047396
Ni 7.04200721291341 9.081611811161817 4.282374275538075 0.33022966182208285 -0.7542140861998237 0.9787258995671014
Ni 5.106730827040861 8.807016940178187 10.14305344370069 0.2777040811195411 -1.0115766275485352 -1.3665318171417562
Ni 4.854470984072474 5.171703782148196 12.094279742951272 -0.99800557373232 -1.3580885714704094 0.649580729058449
Ni 7.87795701403399 7.193736441929279 13.760035143578689 -0.6558102549079287 -0.3186558409415544 -3.860200550298571
Ni 1.7952985631158322 1.59177303405473 3.8431171920460088 1.193041746237984 0.8633787555526486 0.22060116545896205
Ni 0.2641841181146071 1.9166286144378366 7.626561515500939 1.0602195853672192 0.18474558921293344 -1.815529475734383
Ni 4.165386175730602 7.399689491532177 11.803492206535427 0.8531935874895306 -0.6354910837346023 -0.7456836801313094
Ni 7.232319306298141 1.2273139272567792 2.4146004315192564 -1.6849210346854853 0.5274749261639238 -1.275533534285313
Ni 0.5283149043385232 4.443861401519682 7.324994500558018 -0.6640611820628112 -0.5791049916353898 0.15250035602598253
Ni 8.257018024696992 0.37222349447027375 8.708412710898042 -2.228814768527065 0.03225423204801542 2.053558349751489
Ni 7.729161039006125 0.4633722932379609 0.009300897833437464 -0.7226525093434586 0.0839532030842038 0.24785460185827637
Ni 0.3700883798119206 5.31403556421817 0.1470921130718231 1.608392663310443 -0.3226783318373862 -1.129212824707481
Ni 8.307572979010624 6.636344622979885 7.403077905621768 1.3160363794953658 -1.2047256103338155 -1.5616194117106459
Ni 0.817700179835337 8.828266940072476 13.168325172484998 -0.016403638169004007 -0.3368831625828585 -0.7705845571380471
Ni 0.5729969140686494 8.550361813804576 7.551264241968115 1.4162752071134705 0.4761027423395349 -1.7965413646676542
Ni 0.8374099915070851 2.4335985383048864 13.037688706237414 0.43724026094638246 -0.026906594582856887 -0.7050162843189343
Ni 8.33167347651081 8.232246280986383 2.0642338170787213 -0.15112095917995264 0.796397661546409 1.7246427787551393
Ni 7.690477027948022 2.5728407487762097 12.063110930903814 0.7397770848388873 -0.8868020195725953 -0.34898354539081833
Ni 3.0690572110416103 9.051902269985508 7.574963830772762 0.5064422738633407 0.8066226817085269 0.6921983066186594
Ni 6.135935170687745 5.790519226927904 7.577588127600902 -1.834186171603622 -2.2788561493551724 0.7456854799035222
P 2.3361391056438845 2.874809591930027 8.152946357105662 0.05381678871013957 -0.03617207904518287 -0.17190447158420719
Ni 2.831224564020493 7.622248988477823 9.678630144409974 0.20570985016942636 -0.41519048023519467 -1.171229535458899
P 9.065814537333003 0.8306782195803826 11.648792023401928 0.4404230295497382 1.7181366022055056 -0.9852439031912774
Ni 4.071439291732352 6.867418832128953 4.4752545753141835 -0.3041800159228826 0.34737994834912433 -0.31950687608794004
P 6.573550919268026 3.9405370855466715 1.7037470166218922 -0.4900154957658851 0.5947648096598338 1.2635797043575463
P 7.366522572614522 3.752983538232164 7.5287351962125975 0.27240632305571155 -0.44737400694627466 0.46315106727487326
P 2.0109157191180813 6.607186791017621 5.2108172068778975 -1.2440881712918381 -0.7410924612162012 -1.1968963440973839
Ni 2.170332096516307 2.406169395213296 10.897282237006252 0.17256550220697375 -0.5940688120340737 0.04850823201303259
