# total energy = -340855.32166343235 ev
CRYSTAL
PRIMVEC
9.35249574101545 0.00000000000000 0.00000000000000
0.00000000000000 9.35249574101545 0.00000000000000
0.00000000000000 0.00000000000000 13.68832288173365
PRIMCOORD
 96 1
Ni 3.8257600481280933 1.841104293945803 4.947165462733595 -0.04248182331329457 0.18342095686423893 -1.9715967231760176
Ni 1.5697883866254245 2.161408575018134 1.8879210181396795 2.5710445401338173 -2.3239700109746746 0.7770979327765326
Ni 7.829544856540344 6.49378397590864 11.873854029875696 -0.1005015943611882 -0.1552573499458294 -0.8390090684590326
Ni 8.78310663794576 0.4236016635184822 4.348492557149906 -1.8067059639054819 -0.785254500445396 -0.0026405229466406137
Ni 3.7089847837777916 9.175275497847798 3.4861007767007286 -1.7034275781301051 0.0020378563656352 -0.4944799592951419
Ni 8.8047109035752 4.615325813164574 12.98809730308768 -2.113116154710464 -0.7941800850698 -1.4496064742757486
Ni 1.7650497969334171 3.420291938994426 12.298548064920379 -0.09028762994266386 0.35209792265008394 -0.5189877146285191
Ni 8.52027344444612 1.0845808970776398 13.419033193925038 -1.4626131709480619 0.9849705949252325 -0.13936124754086324
Ni 5.404246255980955 0.2211846585641326 1.9578954575392085 0.7798950359056955 0.6098371306119239 -0.6696024235960145
Ni 7.474832742891947 0.594743922037832 9.995747520979105 1.9098434532276205 -3.516095673156293 -4.403913535587913
Ni 0.3752539357386582 1.0948967001032992 8.438946945470393 -1.409367938470676 -0.811833279375189 0.4550821742238098
Ni 5.7374008664796285 3.595548360479313 2.914326584700085 -1.0787762653234838 -1.7451265005307879 -1.1401567253134945
Ni 0.7388125752999937 3.2171931370857965 9.450103267394953 0.3964877616193688 0.9911512698146477 0.5046263037005244
Ni 3.283941900634419 1.0298407383204466 9.799593882558105 -0.913162511843995 1.9330995955420838 0.22633883927368764
Ni 8.408857160271433 8.88417906160696 12.055703025751143 0.6616723701156605 -2.593143428915386 -2.0409887406165947
Ni 6.994441788755054 6.172750200152717 4.290125500465831 -0.42811413027539824 3.0531824329238386 1.202956948469167
Ni 0.20037909608826518 5.572535067987949 7.632225897124785 0.013485693191260644 0.6967761557973291 0.038641109410965706
Ni 4.193509541121703 4.515179286601781 12.042713344135242 -0.45577277253293125 -2.4358266253373664 0.8748908699573061
Ni 7.27990802243792 4.34791924914857 1.1751167988089115 2.2735583912913424 -0.6569844777216879 -1.7346862790340705
Ni 7.935882735417721 3.8246377486148755 10.991476900844896 -1.01373738264528 1.3903757136388895 -1.3384000919025467
Ni 5.133285743506429 9.317143508814459 8.916259057942693 0.4447741074295824 -0.9466835264195761 -2.3893405659606852
Ni 0.893520627947459 3.1563457984775103 5.0765067406335564 1.1858231170023579 -1.791316625933605 0.3698966413944017
Ni 5.544655277580432 5.146538230258341 10.122487869757187 1.3269206305080374 -0.1419963711708651 -0.43227211830782974
Ni 6.3460800074732475 8.337207688848425 12.887720705124678 1.1096071346614114 0.6953980445028798 -1.214251804656696
P -0.00015618668225612963 2.8223868733276976 0.5544767507531754 -0.056227455034161225 1.53193936814771 -0.27460410203797864
P 5.33630972544751 7.511457117006618 10.213145353935724 -0.4807009032331786 0.1149411668252859 -0.8365690915589722
P 6.216763046062738 4.698057992280606 12.604276481064794 2.227960648056886 -0.0332019406732654 0.1603987849374528
P 3.374371183911935 5.50622587174867 0.6550478806318021 -0.2172996118895548 -0.11397803158106823 -1.0041466536330512
P 3.6497273694798973 4.183773592844538 4.916490211288571 -0.00796759158650886 -0.9417076704715396 0.732298774183971
P 1.3644169282025291 1.0923995836863898 4.352914417231984 1.5703807028430439 -0.07870532442170315 -1.5713824046346807
P 7.421486106030332 1.0167659489914604 7.702146092047842 -0.5812474918996893 -0.41092476298030517 1.0056116682143519
P 8.686289599938847 7.822689477013772 9.890634819070325 -1.4804987929792308 -0.8824964502187059 -0.22153781834061845
Ni 0.19021012724891848 3.580911704327765 2.6945737932648997 -0.24328677998193582 2.2961046520229744 0.5112124415584745
Ni 5.526988412743197 2.276247872708135 9.707703739414217 -0.2510666810376708 1.3276623937700682 -0.39559173216766064
Ni 1.9375191746271467 5.103582216389933 3.917502421836074 0.7334778820937369 -0.43678466146620254 0.9712912976659273
Ni 5.38389522480794 0.8166159890538105 6.60913298462756 1.3315730416783842 0.13000037515125354 -0.8932441756535133
Ni 5.373027624521615 7.153724147168477 6.268622636069339 0.4027969916668482 -1.9635149746091476 -1.1251648798903526
Ni 2.3150794358654676 5.681267185826857 12.48010993917036 -0.9848289271410459 1.7980184634338128 1.5185326078235009
Ni 3.6417777479279385 2.646092324793084 7.015046272568138 -0.7344703279139931 -0.2172754435198387 0.9626624183463357
Ni 3.881603801406617 4.641391219359055 8.395158559463017 1.0241120410113846 0.12683200472560094 -0.18702358661383275
Ni 3.514050710827821 3.1855255858211704 0.5156648278373244 0.47615879238845094 -1.636359580837014 -2.692107760696441
Ni 6.21539758165499 2.609234138279826 0.2254232097257181 -0.8673487959439902 -1.0432665024526484 -0.7049396654447279
Ni 1.8143280980596175 0.8966836420755442 6.461216714534251 0.3244616489900541 2.736451576919139 0.5339458786002482
Ni 5.84321500558417 3.201200369022444 7.3788134727890125 -0.9480073874373222 -0.6492215459468174 -0.18611598719789882
Ni 2.1882221808880935 4.5747546857617545 6.844996385574986 -0.3531579884834821 -0.1852577529626616 -1.2448255636784948
Ni 5.324974500364012 5.305343611378645 1.5090962994498 -1.6606482781810497 1.5546260111119483 -0.164964035710632
Ni 0.9166399979197436 8.454572160443167 5.822437500596133 -2.0777418889762282 -2.3619644879405772 -2.04769340633028
Ni 1.3300932680899549 8.627958082739356 2.6465964243244375 -0.5396802099808641 1.4493817598594523 0.930727774421268
Ni 4.364482519464475 6.144187677541327 4.207380227855479 0.10729059225856362 0.24910184400181618 -0.385371082880917
Ni 7.723693307452028 2.420846812490292 6.103117126855125 0.3202090443612873 -1.267324001891327 0.015127085449425558
Ni 0.8317782554773816 9.064869283235009 10.439317698586514 2.08215158800815 1.0508599985291902 0.5878644829955747
Ni 2.882046444951161 7.653886277729887 6.651142525906487 -0.4789247851693623 -0.5443609032859851 -2.4052963179589932
Ni 3.2097859602985594 0.22583378429763692 0.6333659892860305 0.1461654149468902 1.1116725018308724 0.19505982665474791
Ni 5.4010664073601715 0.35310816059408995 11.02042755203794 -0.5241178367662329 -0.5583824143760577 3.3493956285911612
Ni 3.3553575596588385 5.978311809487751 10.539406239674458 3.4461583247352072 -0.5891721460634046 -2.6498516802407073
Ni 0.23506376254425815 6.413015820940739 4.243955033741649 -0.6392958021926731 2.4722445018447683 1.839455904642993
P 4.086460872552621 2.058708817062771 2.57783967989675 -0.23660808241017964 -0.9783194081573021 -0.2963186108969349
P 3.4225271855249177 3.3441532695185483 9.954750855010857 0.26968249636664526 -1.4964074937896874 1.4730886165580888
P 0.9981544820639336 2.756433071934271 7.339856586186038 0.0684435374843789 1.4707304007385575 -1.0658680419022482
P 7.748729939092726 4.742416880540535 3.0847870462651557 0.9744429559210315 -0.497777141989175 1.5283231115513614
P 2.192047351728977 8.336337906725682 12.157640555287113 0.5677970228217383 0.14280241201192825 -0.7535785094983538
P 6.164211371356319 5.263678241950439 7.476726623320501 -0.18250050193249862 0.957994066336389 0.8352341747976324
P 8.24022230591453 7.606787108158518 5.791405919055665 -0.4205949390802176 -0.08264579712668993 -0.3165025420439775
P 7.13024938235034 1.9471054829692145 11.293441872621655 -1.3341791118426636 1.7013760949177148 3.339225887147011
Ni 0.9574243622300747 4.912688421687546 0.6872971571441125 3.652181592379994 0.12569043492199 2.709525699062572
Ni 4.48841244321154 7.738114856196876 0.36846682943247416 -0.5264089467932547 -1.7494107297284387 1.6880104722440865
Ni 8.23326404893258 1.5083892507564731 1.8414494010461175 -0.34522639234123126 -0.6592624751225872 1.6290921006413235
Ni 6.812676030093505 8.169115279256246 7.564098575674094 2.017156156973371 0.48446988335730756 0.6631489546611868
Ni 0.9925242795059581 8.632681093190817 0.11806310304171878 -1.1222916721076157 -0.7707370235555113 1.202920953024909
Ni 1.4623188557388864 1.5017489786366016 13.327266503727607 0.6259042113771156 -0.8237554847340717 -0.8038320063372673
Ni 6.998276312091882 6.6679087453843655 0.3975297105768408 0.4973194856264661 -0.9497876192661965 1.649920093130268
Ni 9.211441599661239 6.555482391647782 2.107016329110038 -1.2780069355264698 -0.14673311452490215 0.9167060062208794
Ni 6.353290781845671 4.090828488158226 4.962304347917306 -1.5372273560195269 0.32051423430653186 2.522577188661049
Ni 7.8070988662759895 2.5907816637833383 3.7800300839628496 -0.5029242334077532 0.19452966518289078 0.698599582159313
Ni 4.261698589045621 6.9659447336152684 8.105513630592604 2.4357633761995983 -1.7096290789551267 3.00342335922284
Ni 8.686439239873943 4.646441567168535 5.391132186169006 -0.8641308032273247 0.48849931623167475 0.5423281891266725
Ni 5.034392451400063 6.585363616187204 12.068638462890572 0.9966310619822965 0.7471384102999649 0.8861201630142224
Ni 1.03723856261174 8.05208749751547 8.148563169420445 -2.2014443469339118 -0.1926771853551843 -0.22383972700091775
Ni 7.83815850530429 5.903678891858775 9.415540183386227 -0.12194768005010609 0.06929662951329356 -0.7181767329602922
Ni 7.403501256331018 8.258590607947527 2.8713855348251878 1.913516016983201 0.7009400573670315 -0.34701305192800885
Ni 7.915578466724424 3.89088147738255 7.923787152414016 1.1225899200743248 0.6326261034819814 0.9516755803175286
Ni 5.667509664293997 8.467675007259983 4.534366867279427 0.3520403299392711 0.2403441524138441 -0.9452586210475915
Ni -0.03728372507868627 1.662172341555128 11.24286357455931 0.49627947439772585 1.240168781632774 -0.21898805533557125
Ni 1.4660879116041095 6.726717239876972 10.58101923512538 -5.093316024628989 1.426761194246459 0.45223750568616305
Ni 3.2622628150374307 4.101013356240677 2.339375349827442 -0.38075183894135073 1.3801064705023973 3.6552592028640536
Ni 3.8182219363976473 2.2869377755715337 12.07441549963486 0.677635064092504 -2.314014699534176 -0.899889963104805
Ni 2.886086723198745 8.159903070751916 9.339912160188863 0.9733839185288978 1.1274243653484906 1.2996527959310198
Ni 2.325217541468201 6.6336224952555645 2.0919999616231855 0.36476009149878474 0.1752628465334788 0.2353389858897689
P 9.20322075572692 6.768906349078015 13.83259775879698 -0.7151086355579297 0.5322255534750319 -2.985263657594678
P 3.522140619818932 0.16797643864248155 7.365659187244506 0.7403815511921056 0.4781310856234733 1.696697458495123
P 2.465860375466265 7.51646070233638 4.369655384970815 -0.4542185406719339 -0.7440590000436927 -0.32024889646028715
P 5.6746549711948155 7.250812407557751 2.485498746448386 -1.1765735733796319 0.1213542694404813 -0.4559740899104599
P 2.0957166435111247 6.105655394254185 8.614773869207832 0.6319617304251052 -0.21911815315553232 -1.6540220311137834
P 6.487143703788768 1.0587212457939152 4.457848486468245 0.3552876332319752 0.23984407284897405 0.26878466714272414
P 0.6021613865706067 4.751928368915054 11.098738806321489 -0.47083249507953107 0.39394519770317316 -0.6215788445288843
P 5.311983883498517 0.6620529000934692 13.2729920992684 -1.8902930418995185 1.7115422368174396 0.7850704094590479
