# total energy = -340875.573073005 ev
CRYSTAL
PRIMVEC
9.13266115345980 0.00000000000000 0.00000000000000

0.00000000000000 9.13266115345980 0.00000000000000

0.00000000000000 0.00000000000000 13.36657274162394

PRIMCOORD
 96 1
Ni 6.497057168287997 7.029144258469307 3.7546834836595258 -1.6514223887074075 -0.09149013489119728 3.0477800309613445
Ni 6.051036274561816 6.544355219162478 12.680733470168928 0.6286077263512078 0.9269603369590358 -0.8179972420940558
Ni 3.2520309596045824 0.2679020415866882 13.062362711587578 -0.5149770508072292 1.0567529669748574 -3.0990655686091984
Ni 4.613418456757915 3.6932115430462544 2.877234775081913 -0.9689233116543831 0.6844500301318084 -0.14009375483151357
Ni 3.47424686496814 8.845922759446758 7.088199697004688 -1.0544582574034098 0.36595694002036333 -0.9960849596708393
Ni 3.10354302580111 6.34943683727137 10.394020202861544 -1.3658687296364604 2.0872943085513533 0.7147309405035369
Ni 4.489634370727269 4.9934102120746555 9.197016949098884 0.7500363006730502 -1.4821808086673443 -0.6664142556760201
Ni 7.187705517261107 2.439242403565377 5.852379894558538 -0.11590378784887137 -0.2475021036148641 1.0234749216480181
Ni 3.831708345809626 1.3424189604346037 9.059809678056594 0.6230202049611012 -0.6282022633826729 -0.9909016156976871
Ni 2.1168503406342998 4.459469191727769 12.726313667525453 -0.3432291594055444 0.9304925184820103 0.22729426120842144
Ni 7.3917565600663835 4.302241301429437 13.392770511003022 0.39330062214063877 1.00549956811652 -0.6819216072829997
Ni 9.155309913236058 1.1686061579161406 5.091474898438818 0.32266701898347655 -0.2579446391044268 0.7751444085945876
Ni 4.322543206641635 8.644985954013213 10.852186622337479 -0.3051596062273325 -0.1922897201087785 0.34832585720216136
Ni 2.649613247723258 4.210951222931405 6.125713129590883 0.49020138652444606 -0.4919157981123915 0.8024865480529664
Ni 2.5353362617042623 5.777239100355032 1.4798664204589373 2.083849801646179 -0.2607725954715251 0.22281102862608726
Ni 1.093079052155964 8.772149124582102 11.540791995064088 -2.098983057743191 -0.8759337093995236 1.1198203277489875
Ni 8.070824695000328 5.482820377804054 3.667693975185975 2.95043677972348 -1.975122734051405 -0.6324962627723365
Ni 0.30347101604910187 6.893250264066473 7.628570110635149 -0.16991572328895252 -0.3268646020045919 -1.3534017075177014
Ni 7.721628272286165 8.927130380295548 13.16042009182301 0.40635385578017114 -0.952511960175895 -1.42765902347038
Ni 0.1280088549695401 2.984946291169712 0.8278026505820992 0.8903550270311763 -0.034099255676554176 0.2021344741133422
Ni 0.584757885471596 5.978778661408911 11.614990298661255 0.14632045246751574 -0.6845073657323051 -0.6959950546569303
Ni 3.714444979671697 2.8376821339287384 0.0409380658138536 0.5688930840993945 -0.5231945536210151 0.17986769229534183
Ni 6.564830644932044 4.812199954215716 10.81184583254741 -0.18985539963567302 1.269853196071084 0.3146490337750065
Ni 6.459266217425166 6.3077371075372755 8.577061788464082 1.0104725958510792 -0.016255799737230067 -2.0017413650801976
P 0.6845696498686396 -0.011466969043830495 0.7730806596504906 -0.39955071681540866 1.4916334694398117 0.04054963928758822
P 2.613183063336638 0.9147912457895583 10.932185078881231 1.351388790852731 1.2842140927784464 -0.27340133997912913
P 1.0084010201597897 6.463458108784769 3.370407597107948 1.0021440213807256 0.5689095391596267 0.061450136885681274
P 5.574996324410761 0.7501604205542007 7.241928864906803 0.6185480281223604 -0.495925690602733 0.9505975167620015
P 7.653818264998461 3.4625844569807467 2.636128873883487 -0.03780138711848974 -0.05453695470561576 -0.5364619601538826
P 3.1456811232590853 0.5074416914383333 3.697648189718358 -1.5469540963889876 -0.33211813709404736 0.6495236505682684
P 3.0357238858524913 3.398372718093225 8.381188130241354 -0.35106253940703414 0.20006987827482964 0.23477591429744726
P 8.232335803267405 6.439311353327707 13.279836939404499 -2.971937115689101 -0.3688589441585067 -1.0101537790590798
Ni 3.5911997206349877 5.506227387727068 4.34819959094781 1.2121980074514607 1.0854307945255242 0.11395386321135212
Ni 4.204421370377774 5.079019775484075 11.83778430146068 1.0895692421739298 -0.255431899984902 0.45349528935266414
Ni 5.947015266749431 1.0577721850617867 11.666718603345197 -0.07138462239057383 0.1178269730135132 0.13897223963256067
Ni 4.986241073257032 5.262960698956351 6.533634388515336 -0.03085220949416622 0.16519877742925743 0.40052645046511665
Ni 4.572029237494901 0.9151108889215541 5.275960128501579 0.25196322471001126 1.723458271528735 0.45573986241246667
Ni 5.925297799095538 2.725688313138285 9.872216488869588 -0.05239188333815492 -0.0859892596776261 -0.590314487197964
Ni 6.921479318952168 5.98055039762626 1.673401204221548 -0.6282004636104601 -0.5847711887822317 -0.555933952835565
Ni 6.282147391655774 9.002639220733895 9.21157349732998 0.395814389701428 0.2541237226964398 0.8269901896212855
Ni 7.570711050679524 -0.22256751280875364 6.448957269785253 1.936714566586852 1.1804461689611605 0.414007515670687
Ni 0.9713772128137488 7.079483485428205 13.604497555306656 2.527983447278285 1.368494597295082 0.21904307694322275
Ni 1.792312102388393 4.379923715165358 3.598093966359094 -1.5089642474087752 1.1326087377629075 -1.145008654089157
Ni 0.824419912979491 3.636762565935776 7.820393433742445 0.8520340199637906 -0.48316016340694856 0.3005653019884308
Ni 4.512173777863438 7.684714056871094 8.603046948563167 -1.274985889311959 -1.7027570344256415 0.632629188805775
Ni 8.672749243192287 8.611971384808493 8.78141055601516 0.34202331202290126 1.1022308968019985 1.216924980613485
Ni 8.3802575120942 7.678476449466717 1.9137326557744516 4.248273605491684 -1.0452341677019805 -0.08256377893584489
Ni 2.3418151769330224 1.268681856213604 1.446008906651839 -3.009725133071152 1.5902931254962547 1.0571008372325794
Ni 2.1455908245311894 8.647506568425523 9.372105584347057 1.0861275634822327 -0.686012746633238 -1.6082545950706817
Ni 5.135076048175243 2.9144238835904996 7.31311886999884 -0.5007210551088473 0.05781562545688752 -0.10434153693256869
Ni 1.7809784701939093 7.9648310324304825 5.236929875552695 1.0700643393717828 0.7983434724188703 0.3339996703874764
Ni 7.63151630704606 1.6520892267122433 8.410742334225695 0.4682356808866323 -1.1039447941693117 -0.5181042835823013
Ni 1.810577424216731 4.199097029064814 10.213772527462957 -0.9120610512497003 -0.2025641054515931 -0.3094906295025186
Ni 0.9141976228301372 1.4857469408215707 9.219486034746016 0.019527014289334114 0.9369791546476186 0.31771096052978187
Ni 7.950565816082552 7.324074410031478 10.906735092711717 -0.8663926026783079 0.4826382294652075 -0.2521593998812174
Ni 0.7493147361535487 9.11029502759012 3.045493093232378 0.9348291981841513 0.11133416620031794 -0.016795988511416234
P 0.6184637971075193 3.3045346272001397 5.399800837029892 -0.047978070541175435 0.42984011182756937 0.585949782471365
P 0.8772103461277531 0.1375241743760127 6.968823033131221 -0.6247824390678465 -0.43473086426096746 0.27939946654409303
P 3.3907743442126366 6.718953430519559 6.523970206735962 -0.34440595332246493 0.009446233014564376 -0.6051276409513966
P 7.147211298767683 3.613611270518358 8.078154568650039 -0.76104884973347 1.2076021605506622 1.0754855103873544
P 8.025791544032561 0.8199376030028169 10.741471374075008 0.1989290798021671 -0.5201246564464397 -0.832889842935172
P 3.081670302911675 6.7509177437191505 12.794937394900609 -0.34598383933254606 -0.4643371171631745 -0.5917956997291809
P 4.618158307772369 3.157288735280994 4.959399269564199 -0.008458672290314464 0.8426227539522199 0.9972838650749468
P 7.348586471925106 6.573534070783247 6.008755707593579 -0.5459357039722726 -1.2760446695937766 0.7282806541635135
Ni 6.44273610117052 8.362174843484144 2.078728787446376 -3.917318892578118 2.529051226421167 -1.6143002870441292
Ni 2.889756566461329 7.703691726250737 2.8284873709203535 -0.634070806348308 -0.4455269264352069 -0.19668579229394514
Ni 8.41824938149714 5.264705037190957 9.041283162126112 1.1610165994816393 -0.24666572375649778 0.7565077673300068
Ni 4.363859364617334 0.7378742518263692 2.011695969602467 1.8549126055176959 1.017322528893377 0.8730247632828448
Ni 4.260039275345062 7.899331588354063 0.7894080308328416 1.795775175925591 -3.395111128350404 1.0970907473619558
Ni 7.806050589776743 1.2273565655769896 1.6962045452581362 0.9810136671600137 -0.1762882024741996 0.9796412122925194
Ni 0.26815318976182784 5.21154381800958 1.6634566497521093 -0.6371196204769608 -0.02535082005996279 -0.24894552092961
Ni 8.643223350456779 7.496654303326528 4.650618524459599 0.6667065901054583 1.8907090463910146 -0.11233663932290332
Ni 7.879458918204833 2.237173148178475 12.568628230915321 -0.7055253627448688 -1.548602687736004 -1.6180353286065294
Ni 8.315762660718338 3.2198657278648795 10.225374659888315 0.3155404352410243 -1.280924366283581 -1.0434691053817577
Ni 8.257140110310287 4.5380100755896216 6.59770000482823 -1.020715870845642 1.3195215098304887 -1.580118241845782
Ni 5.654368280415803 7.833795613633988 6.468204352661863 -0.7534273286324702 -1.666780873441349 1.234792347812209
Ni 0.6193861958598503 2.3755055630453916 3.030549320178523 -1.2876346884242211 0.6701593245407491 -0.11279686678877347
Ni 5.9366679619336775 2.582259873481262 1.1855079734699931 0.45557891135457024 -0.15316344353127817 -0.4740108928075127
Ni 1.4525497183985667 2.1561390478870543 12.259686750978632 0.6913637265325061 -1.143005250505883 -0.04061340264598812
Ni 0.8413153356707035 5.811157802990254 5.627219619316253 1.0911216742627143 -1.534228678402519 -0.7147959894135173
Ni 2.322417405151328 5.7163242520575235 8.224118234976837 0.21580425829095093 -0.0508448505660092 -0.8844039516540639
Ni 6.426881801823523 4.619007645237386 4.7490896142344425 -1.7139685868707448 -1.2454326011348744 0.872827302560058
Ni 2.4211688676162364 1.6887568602826315 6.9151832625179415 -0.8718801081554404 1.3457575607088825 0.2859562938260043
Ni 2.4397629652374846 2.4786589680709294 4.452124705820594 2.024217434695527 -2.4098150317649525 0.9746828398459795
Ni 4.351849915515203 7.827220097775786 4.706036424152868 -0.9586723233503361 -0.6196911405878682 -1.0748743591659167
Ni 6.202391863892337 2.0407661425583585 3.7334171694547917 0.8064720150632757 -0.5725188537774398 -1.0590900997484665
Ni 5.2164480569204885 4.797258920960135 0.7563313595339047 -2.243294193090162 0.1530199759748784 0.1292562978963774
Ni 3.739514133881091 2.9311366530634286 10.731299416348806 -0.5236234136283175 -0.12341115196951004 1.0032755638820077
P 5.611883141843088 6.914912935754882 10.310559554565227 -0.014156236895724006 -0.2808521398302195 2.4788172699662794
P 7.65959923935713 0.027280171416713978 3.7170834054098005 -0.36991695310937583 1.8069725873033071 0.08038759722013253
P 1.0393607406588223 6.932639430589283 9.730985367428515 -1.5674301048551524 -1.0317700717772746 -0.16777476568654975
P 9.321524341873934 3.8230688485848225 11.91390685671246 -0.4290569538046417 0.9704073523990772 0.7264353734246586
P 5.516629488508307 3.323146990143216 12.137850661520977 0.9872791884537513 -0.1785641429925699 0.25500972484581885
P 5.6859033585524275 0.446726848414847 0.37619804797299466 0.3523648031582254 -0.053438579435114424 -0.6464720082261384
P 4.8799734308597635 6.139550024141941 2.651300050194105 -1.0512052976837507 -0.2758035216627186 -0.7724293236562697
P 2.15091516584415 3.6139948422767536 1.3571882996649975 0.049242024855263584 -0.5766215630919037 1.6865426294493084
