# total energy = -340889.54617617204 ev
CRYSTAL
PRIMVEC
9.06096928970457 0.00000000000000 0.00000000000000
0.00000000000000 9.06096928970457 0.00000000000000
0.00000000000000 0.00000000000000 13.26164445229761
PRIMCOORD
 96 1
Ni 6.322445187158919 2.361959044663138 11.469598422255398 0.6317583561650475 -0.4094330089261271 0.5765228327305103
Ni 4.830357292690087 0.5365706526736567 5.957356091940026 0.44771904899051923 1.5262677716842294 0.1274873789214127
Ni 3.159804551924021 2.0884899379360453 5.085004954518285 -0.024970811012724737 -1.2631359319519084 -1.7864220168454652
Ni 3.8216539747984704 4.752333288249313 4.967148930158612 -0.34729098817974385 -0.09508196600751367 -0.26552065167947175
Ni 3.693368775068767 3.3600700897419262 2.8843148491000417 0.5126088076853689 -0.9502707295502021 0.287083465451912
Ni 5.488645754730112 4.835295520819249 2.7501862304336457 0.47247620133054113 -0.47054453152546705 -1.0822022602858974
Ni 5.375619226871071 2.966525021239298 0.7643471047039739 -0.43503502576494746 -0.15362367099714833 -0.6167420852618734
Ni 5.607942473167835 8.015115753362208 12.37912127908462 0.22714667988696363 0.5129139976306135 0.203147745869205
Ni 2.488341440893531 5.500107880571196 11.198583025945512 0.39669936340954265 -0.6115661974878887 1.3930056950625687
Ni 0.6083878933190607 0.49807150130117916 0.3488065338462211 0.8348621361701946 0.31844963846801927 0.3320877980767442
Ni 7.786869943135394 0.2085726342377523 7.039917180705831 1.9610685699511843 1.1185448034706738 1.4096844412698304
Ni 8.922309035050134 2.7012289085901964 1.380126030472499 -0.6307345428862233 0.048204327619368596 0.4762076433485154
Ni 0.7438167610433183 0.2033073051260889 4.483045818736181 -1.000711145588941 -0.30988760783062114 1.1789281896547374
Ni 1.9416388126344986 6.7722226295506935 0.15088416262318086 0.9588165622376842 -0.5056817415482323 1.440465688316745
Ni 7.897703716485707 4.128340594042098 3.7016169751898254 0.03400026820484467 -0.3157515228105659 0.02374542324605588
Ni 7.594985801683499 4.242418194310283 12.553140813968705 1.757653172242889 -1.0917899039743326 -2.5559927880070172
Ni 8.547402379871702 7.457829913259391 9.403553410739077 -1.34730845013577 0.6133903951808211 0.3035817202172514
Ni 7.105059205456273 0.7870203675436148 0.1245022451536933 -0.7841576678367914 0.23587788911237442 0.4404955346588865
Ni 1.7660825374004963 6.854106606804354 9.430991837199134 1.0825154206509422 0.935096335802609 -1.2430569018138464
Ni 0.25832822745400796 5.3532114504244275 1.2848254763548905 -0.2595824318181658 -1.4525133635098986 -0.21980129526548595
Ni 6.2246048434181835 2.3685826130345475 7.099104336600336 1.6819704366975936 0.22135604134711556 0.6126134078054805
Ni 3.56628868422196 4.607919563620692 0.5742660960919017 0.05670696577374105 0.4986873125082702 0.2903053148233194
Ni 6.217020812328074 6.0011885296920005 4.632146782651437 0.391345555296797 0.32070655282299604 1.4541624690775472
Ni 4.795354769271818 2.9701494088570324 9.663667555191722 -0.9811345090085942 -0.08470525075887993 -0.5617145640730842
P 0.28340989586563337 5.89412411946413 12.354468194508794 -0.08664360543217335 -0.9704459189464965 -0.6689143963900545
P 4.150105041686591 6.322608284601716 12.587607834116453 -1.143760897724985 0.6389286486612415 -0.29050534664926747
P 2.44771205569873 8.764947185657157 1.3174458710114032 -0.16072222971514255 0.22060167967959426 0.10301741880450645
P 6.557550150952294 8.037487285932672 5.990164954752661 -0.8318832560475286 -1.0377589423708578 -2.2923557265035037
P 4.765036766849471 1.321478908333037 12.647152898288208 0.10431608301127196 -0.623763767995345 0.047242477926731544
P 4.240506329841928 6.754653410573726 7.822035563996461 -0.33411896957416004 -1.4601415694791178 1.329841403699258
P 4.757099357966633 1.228250597835868 3.4730123505888564 0.25247204602562967 1.3726284169577971 1.2304798364797842
P 0.40023387585115666 5.797806018522843 3.5802724777480837 0.5469967982469353 0.3420942744701528 1.0085764072696308
Ni 0.7812621217159396 7.759279292395393 2.4993686402204878 0.8633923823994034 -0.22406675541005924 -0.27002522441804466
Ni 2.0579544722566343 7.024670288094928 4.646270115100843 -0.5310736992587757 -0.49403104468318143 0.47000639963380986
Ni 5.88595112538614 5.902460210984919 9.17931254882986 0.1591014062822679 0.5826618557487127 0.12604987514393776
Ni 8.580284636533596 2.7313113258173902 10.161907590517126 0.01300206868662277 0.746062917847599 0.8587589973924501
Ni 2.5143554830198185 5.852942015157626 6.809377133116992 -1.1384891078030843 -0.08342638404645633 0.028995101680769415
Ni 0.5789805182856695 9.745615865325599 9.331158080268644 0.7229918949607484 -1.826573135143054 -0.28420460124222025
Ni 1.5241456029476912 1.309192234308918 11.486891281676511 0.16440019278736204 0.6547041663279435 -0.2093127370293363
Ni 4.140192341552089 7.08068519872701 1.560179264643205 -0.012854487365164959 -0.33865362421972 -0.8636014130864159
Ni 5.948870494430006 8.152788117021842 8.169994897237038 -1.1756675166255945 0.8268284672324405 -0.4569292547348776
Ni 7.16722651406946 1.0455905228711067 4.903771076081103 -0.6448645545297024 -1.0429122044370231 -1.2172422547435875
Ni 0.7843002646365053 7.879309949325706 6.925111078526482 0.5291073195610242 -0.2608242746450669 0.051768390821543095
Ni 5.196103308164693 4.9169529738468025 6.993395447341499 -0.03692206983732996 0.32201961520746475 0.08372668889569453
Ni 0.9371760282556311 7.797326301412557 11.473576187665863 -0.8887321467157727 0.594209708487312 -0.06556004528899677
Ni 4.703458421224167 0.40181592104629765 10.47358227321966 0.6726898042720867 1.2976774173722039 -0.09685782696101383
Ni 8.29403956345399 7.457268133178642 4.761619875422852 0.06606295306734429 -0.13240821326179775 0.2808842786197356
Ni 7.756207623889363 6.513731304653888 7.28837438848294 -2.025335350350054 0.9437722663100521 -1.9793074615567137
Ni 2.462137118417313 5.655077634136468 2.5386497532214913 -0.749877920718315 0.05912971628262074 0.6687902121073643
Ni 3.206287323121462 4.977833624855694 8.871217854996742 1.0493091091023026 -1.0843977252753196 0.7935077415931238
Ni 1.4327204252903452 3.690487386912668 4.006978880759171 -1.1061651988593983 1.2854646773560958 0.22757374012205323
Ni 1.8312309048292692 1.6178994496494317 3.116950698828836 -0.47421426706757036 0.7635099096794528 -2.283672854017525
Ni 1.0323886909735096 3.742832605081795 8.146335800965371 1.2937791107590622 0.18845080597866254 -0.025083939551821317
Ni 5.6935867525748955 3.0758365517901627 5.010859044828487 -0.9776879452208904 -0.19305796573337075 -1.7755035701607484
Ni 4.338455405211196 7.433990503703744 5.732730138846425 -0.40866296352932197 -1.3966227229898656 -0.2914556263776787
Ni 8.578961735053124 7.524736108682765 0.2992303478170433 -1.2773181369895614 0.07114885223068391 -0.09214730885922195
P 0.4137057246262748 5.843083680837387 8.177076950642089 0.9695002672037755 0.18838344307583682 -0.5368545676066109
P 8.775421665872408 2.0773449460115128 8.048345951235405 -3.260546530867236 -0.04062240150705262 0.4624458136777326
P 2.123030351933053 3.425780237251448 10.391864111699512 -0.461408887772786 0.6815369702500714 -0.44479853290961463
P 4.218569723785591 6.490544284869433 3.6481989382858493 -0.42876744758868096 -0.15879030279975234 0.5709173136182748
P 6.505404274102143 4.053741635900082 10.05077480518835 2.497644944195744 0.14713703483154014 0.49994792438824864
P 6.479770792675718 7.908939318100684 10.212486825819513 0.46283687846856414 0.3644230198743401 1.3544697437708997
P 2.461276326358101 9.10065608874979 5.838717199854923 0.8255020351115331 -1.673541332093634 -0.8860093484679709
P 7.135884622145103 4.143218705212896 1.191614381698906 -0.6909821748233713 0.17118302003715036 4.451244716573708
Ni 3.0151914859764246 2.008182569296099 0.958206537407534 -0.2999703487169092 -1.221560165392651 -0.37620458589030054
Ni 1.265427753824777 1.425426345209655 6.8871302145833395 1.5897454805229008 0.38151031437393 -0.21876051270579747
Ni 6.978160333990353 1.2553791391546087 9.240594600767412 -1.105367128438135 -0.6537721414319773 -0.7003615591557423
Ni 2.8205528099350516 1.8007135610879468 9.134699961643168 -0.6571868235404811 -0.7577020447484241 0.055945405017368166
Ni 6.555910115555269 2.148120175216818 2.707179246961611 0.22614035010963635 0.5175949480460506 -0.2175754912587608
Ni 4.085808405347986 7.192379764136535 10.243015042723687 0.6218655225313676 -0.8392245269039482 -0.260508543176861
Ni 7.2898304862083645 6.2449014140774946 11.468325356104668 -0.03475822941679175 1.0648550272567017 -0.9492451164991653
Ni 7.619296381629451 4.402308054066629 8.196332415958206 0.49889814296749563 -1.6412868429353025 0.12687597058965894
Ni 3.1278555750736934 8.421717678257723 12.304166224859163 1.2725973344751242 0.9623078632203944 1.3124936564494298
Ni 0.22719201952695756 5.023192835891637 10.33034375627609 -0.20804801138429976 0.017845512821853135 -0.21496016512310076
Ni 8.489593397368841 2.6957017174731517 5.929679361994103 -0.10458579173289084 0.28455118594836154 -0.33991706431317587
Ni 3.3150914394058444 2.9888693709026297 12.126221478185075 2.6995644740848026 -0.5653256784631103 -1.5647209334541052
Ni 1.2498428870685196 3.570275510601468 12.645680490818503 -1.8113113238879774 1.0648840807224242 0.4066436191064481
Ni 3.113213049098047 8.65260023047644 7.959121682958927 0.42344680670671586 -0.021004113055492858 0.0914651951905328
Ni 5.886775673569174 8.081695753899986 3.404118178557155 -0.4475061616487648 0.6507487812246211 0.6715957998769594
Ni 3.1047501040106376 8.829606260757535 3.4902925246533085 1.2894362604093341 -0.8521931712494742 0.059886906163619434
Ni 3.8943591904102193 2.8952423777675103 7.065007910086502 -0.15308502488485892 0.7100335350278675 1.3445298589493684
Ni 5.031311464155362 4.768615849621984 11.418036977908606 -0.2457067022773381 -0.33519266225431305 0.4721082764681611
Ni 7.983402361707033 0.17030272538209648 2.32601236827045 0.3403184135166526 -0.03748308454712254 0.5776127233605793
Ni 4.823588748813968 0.22541697569117217 1.544742997779275 0.12818671898128245 1.6409955369471285 -1.45441597984925
Ni 6.0641169597049105 5.894133180433175 0.37742107408823294 0.11964011496285204 0.027094285113630753 0.3137167517687242
Ni 8.107039284316992 0.32172782785722415 11.121055562608365 -0.4100847835775131 -0.5728003895736006 0.957450535128093
Ni 0.22800388235333 4.9743451517736235 5.868052087135959 0.08000861661415898 1.0007142309127346 -0.06247317883355692
Ni 7.629489971804329 6.465979997790239 2.5558103224945583 -0.7269395667545867 -0.5521158646410556 -0.059621825427690865
P 8.695186784984816 1.8952013462822785 3.4939395646936537 0.11498641824092454 0.46247281026092607 1.0500578143428692
P 1.7934466639143896 3.7125146026594478 1.7656820425687365 0.983503523461403 -0.3761397940906361 -0.7716212259326776
P 4.853698348948296 1.24677121856249 8.22912859341418 -0.4114659801957559 -0.46097051468378675 0.43145167928906336
P 8.635810254837285 2.128303835916856 12.458319585113541 -0.5701380122500891 -0.7934617188465366 -0.8918925467216253
P 6.599620230225145 7.85340463882795 1.2570608550092375 -0.7012053952132762 0.509763882037406 -0.5094514930033097
P 2.0692444396858765 3.6044716077747903 6.117079229865957 -0.4163387349070249 1.1379877426866336 0.28574109249140467
P 7.005189204649606 4.427261962814729 5.976850766838915 1.1685527599576842 0.24786668604313442 0.030066737478393384
P 2.574384402938542 8.781981807460507 10.284484379748898 -1.2360213351233036 0.9429775383228985 -1.4318859170675338
