# total energy = -340863.68248752196 ev
CRYSTAL
PRIMVEC
9.29196217917908 0.00000000000000 0.00000000000000

0.00000000000000 9.29196217917908 0.00000000000000

0.00000000000000 0.00000000000000 13.59972589516201

PRIMCOORD
 96 1
Ni 7.571611235402399 0.8125793159190938 4.106723048999755 -0.47573815991126456 -0.9297309577256374 -0.5121645210590986
Ni 8.657692957373856 4.807428997167985 8.912417236805535 0.5246235727580578 -0.6291322313961101 -0.029307747825181783
Ni 4.218104871944724 3.2892989039352183 3.2548907675225336 -0.26454286114723474 -0.07086963042736827 -1.0289526569331378
Ni 3.724850344985235 7.521731981753115 9.532388112100717 1.799569609971017 -0.22437425934814906 -1.3661260970629052
Ni 4.439550917579915 0.5317845778503447 8.958329751747128 1.8579789031478453 -0.18670039894645912 1.6634047578802642
Ni 5.079618448946757 0.8470515668716785 4.143415149746828 -0.11675662276746988 -0.5246971063084706 -1.2022234127372522
Ni 3.659983156139176 1.6538113267996126 12.727820542034502 -0.9964757673513547 0.15348457431612275 -0.5355019102334584
Ni 8.203381044431532 2.377785277773947 8.349755468218124 0.746588708444082 -0.11341007489274017 -0.06803730318489573
Ni 4.019461301804193 2.2995655390966627 5.6443894929772345 -1.8305953689285699 0.4874312799784767 -2.508396526285293
Ni 7.74560322954972 1.1722832562681038 1.2145877022469516 -1.8468033461470001 0.6469088386532407 0.13254191062618464
Ni 3.160372926963572 2.9213743645356276 8.878567547327336 0.14947519604641352 -1.8891640705013981 0.45476952807939747
Ni 2.076223933151401 1.7086896561685887 1.1615631193576756 -2.2461195783540995 -4.592295693112169 0.019810864078340075
Ni 1.7821426181837865 8.279900354007138 4.00173316692389 0.3773466699145437 -3.4890993470731066 -1.9831178364417394
Ni 3.735415306125182 4.428056760209542 7.201082158968923 0.7883966456188035 0.3308295001896109 -1.6685374511211393
Ni 8.640651498507838 7.749719568850508 5.276707473793784 -0.2726616335996272 0.04436438504798811 0.9208123150797691
Ni 7.20434642532641 7.304346523644886 1.433370671485742 -0.760970945307683 2.298588337676777 -1.0919991917716612
Ni 2.874031816595408 3.5103361032290232 0.7056882983557758 2.286639907065649 3.5825329788439206 -1.5199212606409114
Ni 7.060432513157988 5.970661882151736 10.044377093458058 -0.05982828501154212 1.0272289893738116 1.5786462852859457
Ni 0.1703253858220595 9.245381697231567 0.4148368694851231 1.2438719415159738 -0.13291780590836463 -0.03785255207139932
Ni 2.644938485983808 4.22810302338411 4.6149720155296325 0.4637768737843303 1.3449648896042579 2.4145461186920354
Ni 6.249513670902664 3.152874313384032 1.7935996077049428 0.7045650557141285 0.5484520426362232 1.0487653207836907
Ni 6.3147432462785895 7.37722338399722 3.591375023269421 -0.7633211907074144 0.5082975819045247 -0.3007450220994047
Ni 8.159392894883153 2.8142101632805643 5.149699357841738 3.946000833893843 0.1748869512512988 2.984698014899195
Ni 7.049477289601261 3.955300302093258 6.9163578500417 0.4696019651065397 -0.08822843342078998 0.18621317489739542
P 1.0358679576792211 4.604018650365368 10.57665693289922 -1.2063189229628646 1.0638692663046645 -0.3045757086994045
P 8.203167329298536 1.4622017721234086 12.640496538691503 0.11684789692969552 1.5525171922990617 -0.22898373309570244
P 5.507030131018238 8.998299127598914 1.7574650246961254 1.2991982248921046 -0.06809566722665691 0.3115400558323796
P 6.654959154086869 3.747615652630679 9.395915203345547 1.1649074498956131 -0.4476396019028355 0.402216693683346
P 8.521667921201752 8.183700668271104 3.1039874413088437 -0.3444265221477552 -0.4239664266556118 -0.46733965143492423
P 7.615868851857602 6.508694375455468 7.076780791636107 0.1649403815615482 -0.3847637883142212 0.05614235151952267
P 5.2587581902106395 7.868433679249771 7.654646998141983 -0.7313963169743597 -0.48389344202854734 -0.021975218719510543
P 8.270348216758356 0.6548705565137624 6.254949468850659 -0.5115705962288415 -0.1670070342825898 0.9855179827882703
Ni 5.225827475804333 5.069666757318891 0.4146435966691944 1.8799047566866591 -1.922686884849192 3.0126191667894955
Ni 2.616198446576723 0.8384704396836917 10.602590799690418 0.2741094217897473 0.9387863830596864 -0.6293669731147354
Ni 0.9037464748711382 0.3977433756302011 5.268235062564758 -2.0428268222665977 3.975852884258268 1.2282355205302977
Ni 1.6410441705935552 4.4986292139104185 8.116873804575075 -1.4345061282992004 0.2022709996912065 0.5524848179447001
Ni 1.3854129956409806 5.0526717582643945 12.74163768998094 -0.4974740089264594 -0.14159862151181418 0.7078079881314584
Ni 0.259807912008341 0.7186301434531531 2.8069020349282616 1.1665308444316491 0.7418450231115095 -0.46100882412088995
Ni 2.268511801075816 6.725057717710229 11.197837621686418 3.142219478288853 0.03543597221010671 -0.6831145991498364
Ni 5.788781012008096 5.366777251997695 8.232200065518205 -0.9432084233867819 1.674159168183291 -0.7617139941212946
Ni 3.785489690982854 5.0188211395899645 9.67231577244061 -0.09304770918630426 1.1389537061443287 0.669099515817667
Ni 1.8264838622997288 8.44397782437581 8.965307086241399 1.4895213081928154 0.36869850732124243 0.9959065251114461
Ni 9.263714738857878 0.18636610034790843 8.832573263117464 -3.466065090961463 0.8236801514114459 -2.72897146649201
Ni 5.7150214152368575 2.7208909858588526 13.15879569164967 1.554583330799471 -0.9175200174817424 0.4328164208470739
Ni 5.098471840462106 3.0223315349714435 10.781808593437658 -0.3141654092703686 -1.1971341711398027 -1.4315069364615602
Ni 0.2591388907224341 6.247720322177941 3.6480717896613415 -0.9411682530283016 -0.6403836359402132 -1.604943271309262
Ni 1.5445285581391774 2.5805358952529622 6.339743270858209 -0.15479789381090758 0.9710503852997147 0.48758965993321185
Ni 1.7021202388194752 8.079119632536626 6.690181266397408 0.985313065866316 -1.25859587798971 -0.7529012809256711
Ni 9.547398348007022 6.7151060260823625 11.29050636174683 -4.67051302215386 -0.45367398102237344 0.5940503000913124
Ni 5.925837455995973 6.946838273988374 12.966917599262873 1.254440975281072 1.366849348382175 -0.6963385540392782
Ni 7.958667925186467 5.264965221029887 2.022115907457448 0.4096980896620557 -2.0349155378393213 -0.22123777060169636
Ni 6.7049034514722825 9.337864598045895 8.094883446585808 1.5361909443352124 0.9465449439591826 -1.938776848432519
Ni 2.2162630970389463 4.974665734720108 2.39398674324766 -2.0261912705924456 -1.0209045898176803 -0.19452478008688434
Ni 8.112533528982755 3.3403768207217515 11.222643444253878 0.509951829678496 -0.6278677628613897 -1.0278985046370104
Ni 6.309827798219635 4.690127265038971 11.956933331778405 -0.9503635463743245 1.5792011293481514 -1.415688224261749
Ni 6.32374715775142 1.7254430642031746 6.152257489052637 0.23807026877800294 -0.6387404439098353 0.7070451418235049
P 4.133640934598974 4.01357019770329 12.488655653481313 -0.9498464975285901 0.2748555559271525 0.105025964594103
P 1.1520546543317236 1.8991841753682812 9.458840372070016 -0.285037895776793 0.2210040573243355 -0.8439270745859401
P 2.4829331232089853 6.45352799525506 8.163357775198381 -0.5090290607539104 -0.0795555882371404 -0.8006605505878212
P 8.058147673615904 7.9623847101081715 10.184698732999653 1.1082573055017364 0.7209175289302229 -0.6125930960905063
P 2.7762896651168676 6.785994406501583 1.5294384113570545 0.014497422285226646 0.9030503631106576 -0.5385754069524596
P 3.117248929909488 0.1214468765129457 5.241742748839073 1.20500226103397 0.18882438726799738 0.9979785771491265
P 8.292267955834111 6.214938279168503 13.477668891241288 -0.3974501255326381 -0.41599189309056744 -1.7121500456047676
P 4.846269399599804 6.624425765955062 11.090875985209587 0.34504461534772835 -1.6279263624679963 0.3988061253399003
Ni 6.291541216404846 3.3320790983840447 4.330601730366203 -3.1922588022344316 0.37457322093446455 -0.620906243941892
Ni 0.32123335801690095 6.950229840229429 1.341212989352063 2.1464260817165033 0.45346726432820617 0.503917707669274
Ni 0.9054515499539705 2.648794650340077 12.54055219214685 -1.3174420015936408 -1.1561849824209507 1.3225718666210382
Ni 3.312547393620484 8.888393797464094 0.46941599766790215 0.8174223434271922 -1.6745967699413415 2.0860941175956653
Ni 9.064857453584349 5.129850797163601 6.172222199259576 1.2013947461883698 0.12405212798761862 -0.021212372411557018
Ni 2.93022960461159 0.9709821849085537 7.534846657349353 -2.8798792812198917 -0.8157608965643692 -2.5246788083850844
Ni 7.812570401876542 4.08831474247878 13.46919555081603 1.4856528263763447 -0.5893624076973398 1.1637707651880087
Ni 3.8027262810572617 8.582836909050714 11.754433597281606 0.7849333696605514 -1.9058991238678917 0.6241512332417509
Ni 2.579643866871753 3.2486279849294606 11.177397163009502 0.7303833023288131 0.7667968079608407 -0.7764726404877079
Ni 7.4112877178046475 5.427332970334576 4.312119088146794 -0.521199120457541 -0.3454004560252503 1.1569321449996206
Ni 4.00897067636268 5.857541533059641 3.484508164808094 0.8339900179778864 0.33461339271207535 0.03286281216629179
Ni 2.726772797997451 1.1977711088686966 3.3571469542884853 0.3462304081257134 0.058290251100460905 0.16447218367587804
Ni 7.708193789312758 8.722931824712084 12.469411999549182 0.48591458622363415 -1.5384725412805376 -1.1266149820733178
Ni 3.7652332131595614 7.013452351747634 5.5383115221155395 0.12232383244260221 0.37901248765274076 0.47685941799990134
Ni 5.6828526417395 0.2506172320931947 13.174190614795371 0.27740609026314805 -0.4233516758897483 0.9982729684610938
Ni 4.414880757662098 1.5386188701136663 1.3697095793467764 0.9679254665174879 0.5686966518178722 1.4862446943240726
Ni 6.26759582954676 8.4380681363503 5.608921143665633 -0.28433264217965226 0.21687203743383293 1.6961464710876595
Ni 0.49080237810739347 -0.048294974076406094 10.933975626524727 -0.48509748963897736 -0.21984346135733107 2.690614721090683
Ni 7.068033338322874 1.1383583018952401 10.121922235672054 0.29980476967332237 0.5454150555821122 1.5842564323838717
Ni 3.68091794721068 6.246001309151653 13.11417475946837 -2.5142524708454377 1.1366363708650618 -0.6546015793118081
Ni 3.8967237717271845 8.202358928578064 2.8025496797849447 -0.4936687762477563 0.12426450110874082 0.8997508664237795
Ni 1.0894175364386878 2.8517868588390027 4.047672628556165 -1.0106415173287757 -1.061832438380294 -1.3605414038862762
Ni 0.14823932062105716 7.0732275452509565 8.214139278387409 -1.049087737120116 -0.9854022831460125 0.15476421235949472
Ni 5.954289444571626 8.248270514323426 10.023202569759107 -0.030959424495991844 -0.517835860412263 1.319931600784714
P 1.843813371997179 9.154812940651917 12.717063237274857 -0.6686135773201839 0.7631365855004341 -2.0656098815993844
P 5.152225842392267 0.8125337853038029 11.165837961902998 0.024085580194294003 1.0279470984867587 -0.8961605779693599
P 5.835538166323147 5.297737972077023 2.5905442678508837 0.21824706340448866 -0.46955388547742355 0.1274776087293998
P 5.456760614952176 4.882099206245041 5.856748928675088 -0.9906948990035196 0.53822470848126 -0.88016908763711
P 8.296068368416554 2.955921880382877 3.12342158046821 -0.771238131561646 -0.5522451911300683 -2.064611522241857
P 4.708627561986758 2.211988794378985 7.486241331731984 0.8010408167453753 0.20672157926339232 2.5679239922269645
P 1.618223111174286 6.123189443376212 5.085875656362447 1.6750194593010572 0.25697533321262195 1.911189939953186
P 0.7425355748733301 3.2371431195213916 1.569286062502655 -0.12328362525271026 1.3671889911097808 -0.09406098094216704
