# total energy = -381167.1369161035 ev
CRYSTAL
PRIMVEC
9.26948973324689 0.00000000000000 0.00000000000000

0.00000000000000 9.26948973324689 0.00000000000000

0.00000000000000 0.00000000000000 13.56683519898956

PRIMCOORD
 96 1
Ni 0.6021877659385003 0.023066198258454452 2.982831882915743 -0.19103656442796776 1.532285181522903 -0.06542146282860346
Ni 4.828069345806764 1.4357419956814628 10.966045510234162 0.7816744964036215 -0.20473848739509254 0.18745810304809005
Ni 4.128491685959546 6.734905348838803 12.439458712201734 0.6026143876112395 0.4182953444127635 -0.556125500021081
Ni 3.3481304230652187 8.269580608469985 10.180417323271975 -0.3181922710415746 1.952449203713289 1.5149202078818942
Ni 5.470074204905203 8.442336088675264 3.254276839490692 0.6016630794415638 -0.9163085136721445 0.2014176505519757
Ni 5.000352082035519 0.005340153036768851 8.976971521215471 -0.11583873893889081 1.0346705332535213 -0.04720288293804773
Ni 5.8374982390510874 5.123061587157453 9.18127478278742 1.1261791800874799 1.3144168416140718 0.2029513135876827
Ni 5.422809076742585 3.0193323526482287 3.773859547649006 2.1727091837827484 -0.03208325368778991 0.06173321534373885
Ni 4.818614466276293 7.210921455239064 7.942269364206611 0.38211889449220643 -1.14828989594359 0.17409505147762275
Ni 0.19882406618914447 0.8069786026705508 11.887437424713145 -0.05729086330166908 0.9048390795799642 0.8294818456948876
Ni 7.132686961869287 1.422829596479555 12.287333408352353 -1.1712215650390991 0.0716011092767541 0.40290086423456417
Ni 4.771581075357069 8.772830475713898 6.30776448096826 0.8666859655490106 0.292104058594955 -1.5287977371949348
Ni 4.022810233482196 6.261345657218516 1.1441173599517738 0.831322241337736 0.12119460393416548 1.5659923439673613
Ni 7.510196200847672 8.12239038095592 12.391119250178743 -0.554810123643767 0.0012264162079333718 -1.027907760608391
Ni 3.9756378002169357 6.26686100361129 9.941274684528189 -0.14538225692396253 -2.3307955185369407 0.2303101652166098
Ni 3.585559133156865 4.090208693350876 7.306052374499178 2.068771824267134 -0.6031165240586387 -0.1973563359984085
Ni 8.385903435163984 8.041180381380965 4.01211973096995 -3.455954999110655 -2.4741910840481776 -0.8015627506871164
Ni 4.027407900391131 8.726445949076176 0.588464286384714 -0.034252493424966814 -0.5732261642571096 1.234402825683274
Ni 1.4817835511989612 2.264591959383529 1.9063576973616732 1.3880018140900743 0.45175722361563486 -0.625989057781438
Ni 2.9266374552906718 0.3465991985055352 7.431586293143597 -1.0925743475488408 -0.6096021317829824 0.24970451058282156
Ni 8.251060167977945 1.856465595807942 7.578326023456503 -0.7488515363363296 1.7407152588369699 0.9845119101212593
Ni 7.668537624513852 4.769995992612255 5.07713033856781 0.06884462957753949 -0.3955413385456994 -0.7162828583716889
Ni 0.37869295281764215 2.397154932094571 5.666174895009982 -1.1984608603710263 -0.4041794738366717 -0.7718436263561287
Ni 6.132694409175962 1.199583205683615 7.464907327896718 -1.4443377696776416 -1.4454839674669429 -1.676382915307487
P 6.6048358688666795 3.07074094272273 0.5236631375399932 0.09251806193507937 -1.9468971635468086 -1.8396258545619544
Ni 2.840996639622025 8.964199091308574 5.001658153139287 -1.2740844605436124 -1.4282557765141144 0.3704849097977039
P 3.455202299002933 1.0658986247145465 2.0223811195372066 -0.31172106149493406 0.14490377462564724 -0.5898028376688681
Ni 5.931296205687199 3.3543039032292317 7.284332106150355 0.625239066989291 1.5622909838563739 -1.2606509607465255
P 2.1645463566655176 7.627038118966873 6.742282935719491 0.08182998609361392 0.17586037090816165 -1.774552261991073
P 0.28380860198449975 4.549984653734094 6.404875363235932 -0.38553151971818117 0.42829770704111403 -0.525607791048198
P 7.668815709205924 6.029840151068018 3.251889018934761 0.16323239773150597 0.6007426245098234 0.5485186342081004
Ni 0.42571800119610426 4.593384404676902 3.9310858516999727 0.23582980948325835 -0.6399473197337431 -0.8905085218899051
Ni 0.2286264026385726 7.023279174518162 2.0207802786598417 -0.5555714272898238 -0.23501168445733717 -0.361943447985596
Ni 5.2419242540390485 8.809546924557226 12.267457768460945 0.41843007021841494 1.0551570832426473 0.11160670313541422
Ni 1.5615567798648746 0.3225179911210155 0.7386188967162732 -0.4610401915794576 -0.9978387091371524 -0.9674814370015339
Ni 5.738527897142424 5.11675833413714 2.5465624215534284 -0.43667179003742207 0.5736611949119991 0.7208146848037715
Ni 2.779456497266343 2.516749888665291 10.718695665278334 -0.38413283959844163 -0.9108469763369411 2.474563636896248
Ni 3.9041978428234665 2.091011494591768 6.024652017662915 0.2757402725249509 -0.015480612134102373 0.016571274095119846
Ni 2.12948914648489 7.1057776331663876 0.35605871278087387 -1.020367743477604 0.2874231081795179 0.5512180354171347
Ni 2.646226121294326 4.24279376389115 9.325503408330912 4.527595167609989 1.015789122967986 0.46647704632431275
Ni 1.5400422941881857 0.4226905858484065 9.953186905787609 -0.7055932398683267 0.43723537585037603 -0.850335034994813
Ni 4.31178657599438 2.07362193184749 13.569006288186847 0.5574820140489755 0.016230602926249466 -0.3907215485595529
Ni 2.2366073698712827 5.244250895962723 12.492205816594078 -1.1903312892853564 -0.3335494702239353 -0.4667950917853638
Ni 1.2735815422441525 6.948706129594007 4.258466617136366 0.8863636464835961 0.021418831995408276 0.39782936324892776
Ni 0.25387649267877105 8.303432784984967 7.71548666307648 0.45246993341194336 -0.9931197063949283 2.1789857608200798
Ni 5.713166573225396 0.8999015294756073 1.6568360109607603 0.2862090332667587 1.3567713953208829 -0.37903794157403753
Ni 9.078158198119954 7.612661140386716 9.960987181400247 -0.39514410310728076 -0.5305162840934089 0.5418021414198734
Ni 3.8867897410997174 6.656374231797481 3.722589999920541 0.14078512447158337 -0.712096073983851 -0.18443525706136624
Ni 6.376565414633959 7.200270811532681 0.8164186510174444 -1.201997155659059 0.11743256578857195 -0.2211197569665934
Ni 3.428357856728184 3.6352992150789296 3.2820343265044127 -1.8148594462505518 0.8175336721940759 -0.25118649444498675
Ni 2.0973332865915535 5.485860145925195 2.250316945190465 -0.20278830564725722 0.10219929377858528 0.6218737500614838
Ni 7.083688439126083 2.469697958766595 5.465779650310628 0.09747232061656118 -0.14479141741749904 0.17606683049201288
Ni 2.1631188552462115 3.8020109879764954 5.558888893859374 0.8894713388746424 0.9459098814783452 -1.3174000926121119
Ni 8.901008979779927 2.4106698481293027 10.021074794714337 -0.4802720432258761 0.33233282420801474 0.1539237187360704
Ni 6.00332014093402 7.743258981273778 10.377882482265859 0.46867791063037345 -1.6361875740355243 -0.2664866151371668
Ni 3.185478686671914 3.96459783794165 0.7832802252121178 -0.1004709982335689 0.4935967853592403 0.21353088887574193
P 1.761638715811161 6.644926411973823 10.222230137572023 0.03516780615038459 -0.7446084447892595 0.3330918138612263
Ni 0.29766556219048096 8.988197800234445 5.494581808817568 1.5869972283538023 1.9063202705657105 0.6701770651525619
P 6.621057475904251 9.51068185868005 5.366470045077636 -1.4023542261570041 -1.3780932967271105 1.6954584438816995
Ni 8.887429177317046 6.002949361344591 12.805708301998099 0.8532406386773821 0.3503050924157193 0.14834005400070582
P 6.765800558128077 1.9350245213184711 9.339992547736871 0.09356013004634856 0.9200582105225639 1.065539969138868
P 0.721350764287534 0.9521434466773527 7.349493838145797 2.5044534824771447 0.9787737220859015 -0.4378213302608331
P 7.675971755281927 6.617201368174177 8.390517787154442 -0.04799658248393669 -0.38814504608162825 0.8804583367427545
Ni 1.6387716293637196 2.724729429866441 13.004408157024782 0.06044972064562493 -0.45927872880366066 -0.5525457530896225
Ni 1.3546617689628075 8.106873255138266 12.01563075996275 0.21886849903857145 -1.327447706656101 -1.877216925441851
Ni 7.691841121709541 8.852186577341701 1.6804555977564393 1.0097159201907127 -0.13454248599598118 -0.3818113905541166
Ni 7.705189186929029 0.3304739941612146 10.323181369437217 -0.41751758570647446 -0.7652364054522562 -0.3915126770022806
Ni 1.0549977047852979 4.189957672397343 10.501747892757843 -3.693589980123452 0.9379561738489073 2.9998528682627628
Ni 2.3886548100068827 5.93976851930568 7.972781743569798 -1.0812537803296993 1.3946946527292174 0.29720615570821074
Ni 6.490311323181418 5.48034479953242 6.806643783801763 -0.5216508632829789 0.9457229622785195 2.2586002273196137
Ni 7.938140733478306 5.280151629709305 10.75224565642793 0.7390358357974884 0.03847887280148857 -1.1523355267678734
Ni 2.0070113786063497 1.728667140821078 4.038032589526255 0.3594229955565874 0.15335010562078752 1.2198051303747572
Ni 6.24428052661499 3.562329791879061 11.49536952515578 1.6193491623219465 -1.0243899772631195 -0.42643108614602043
Ni 7.324945448478594 0.9696720517676667 3.7152912037026073 1.0125233077325209 0.7652454043133208 -3.690226462967858
Ni 8.245081347098383 4.3673849754294425 8.29217220885397 0.20308166851795995 0.16394356486591766 -0.05677304312498609
Ni 2.5470796590806835 8.175764102854403 2.5601839367201213 0.9987745906878606 0.022816997894515544 -0.3367466370049943
Ni 1.3809222333842035 3.3079749935299247 7.864165570642107 -2.0717368204327284 -1.493955689815085 -0.5540169383185104
Ni 8.59701606389582 3.567483628172141 12.472480342436391 0.08495001977983434 -0.015461843081024985 -0.4799218589753089
Ni 3.6822955280392113 6.002152185227316 5.997653701858553 0.6056796568001246 0.6369920937601611 -0.839195987658858
Ni 7.161561422396166 8.359782013088624 7.064780533963088 -0.017591744939834217 -1.2596945103705273 0.40528504819602457
Ni 7.79438021716647 5.328705216945193 1.2372534850207526 -0.39143502968680977 -0.13521251547981228 -0.14911935536889157
Ni 8.585716555907933 1.7593954992951082 0.46188940404297013 0.4481450807843443 -0.0541911413304228 1.279412557624745
Ni 4.34282082762969 1.0760209075059917 3.965138249193245 0.6533743917729263 -0.6581350463863633 -0.5091131358272845
Ni 4.910660499352347 3.0896507017836714 9.170122659686335 -1.26630635926009 -1.3185493757252065 2.0658857609685906
Ni 6.207387957466682 6.837221976542073 5.1232302918706445 -0.3374490623886576 1.2090324652392854 -1.9883186639163886
Ni 7.450343105623898 3.1567154600218634 2.42149012349785 -0.5610334788456597 0.8506034581648512 0.6743455947079547
Ni 4.280854288746164 4.528878025605778 11.552241552480536 -1.4994953886863918 -0.620038496624958 -0.4411498804134338
Ni 2.907644270822108 0.4929746378718269 12.377159398636694 0.17904339662183358 0.7376636380403102 -1.4381496385890586
P 9.173633942398238 8.090976080241445 0.017983737036339608 0.5668621697122948 0.3038522002698187 1.9693313241806085
Ni 5.65150592750315 4.885280636455849 13.71417113219365 -0.5345858261770923 0.20818685095500922 -1.0836621326608755
P 3.042533885456825 1.9122401155479838 8.770592820891686 0.41800918063091236 0.7573611164692376 0.07378526141226648
Ni 9.038392087153563 6.713752373261808 6.187846946154736 -0.7964244010192865 -1.7961464432220808 -0.34352509337940834
P 6.165156162230579 5.8508092263116325 11.664670266536543 -1.1325814840693977 0.6636161241055926 0.28808182480943934
P 5.068436484144645 4.311499221812571 5.363865318461888 -0.37713995322037625 0.4969479612196603 0.8881099397507415
P -0.1774662348889898 2.2849848368021917 3.279891220477506 1.862147689813554 -0.7870609575265155 1.3635897037942968
Ni 0.3636235433542241 3.977519506633294 1.0988460990313165 0.39613937714101455 1.2600187264791654 -0.27834839957175933
