# total energy = -340863.44969005126 ev
CRYSTAL
PRIMVEC
9.32697278557404 0.00000000000000 0.00000000000000

0.00000000000000 9.32697278557404 0.00000000000000

0.00000000000000 0.00000000000000 13.65096745654760

PRIMCOORD
 96 1
Ni 5.951214815641913 8.19794262686162 13.452782345651544 1.4396005121029722 0.47913587273890385 0.761106699554599
Ni 6.241013183420759 8.791473859585855 5.777935519317181 -1.2860223496317789 0.04271682214223611 -0.13831378011295534
Ni 1.8481955960730316 7.771989112069945 10.314029397310037 -0.6659005492643951 -0.7092699173889656 -0.2585257084188773
Ni 1.8109063593448984 6.58420846972601 4.68903944120328 -0.43985738685425546 0.28592235526427534 0.3036100023520255
Ni 7.815014436989124 4.639310821027345 1.2138551271356217 1.1978674497614015 2.8100617462061215 -0.7332228286601372
Ni 8.09276235608044 0.7858011780990298 5.158290628516051 -0.11553946253091714 -0.8587803375486887 0.2729439407267364
Ni 6.2624558935853365 2.614117264626703 4.715890862818243 1.7799184113989925 2.5126748419456724 0.10340282716838321
Ni 8.03443146901247 0.46678513573925495 8.45363412098678 0.4565965539858071 -0.5454101704861058 -0.6736871351883494
Ni 8.066217791866265 7.657080808795657 6.617429280976202 0.9106567147030058 -0.3538074491420229 0.35552237495060063
Ni 6.010040032261307 0.8312683044627878 3.549538007482617 -3.39946477733341 -2.7902426545976655 1.2261066471127529
Ni -0.07269908846359054 0.24407195157490827 10.390064743897103 -0.45218968316736313 -0.4689833576859343 2.050024882676934
Ni 1.0343426149766197 0.15345668131265058 4.188280807519496 0.47497865603742073 -0.3155478914401921 0.6974623832310762
Ni 1.4265324887088051 2.0804278885427143 6.981991728967416 -1.011220015540065 -1.0953403403297524 -1.5332598867313463
Ni 9.38769126043858 2.6622351166228113 4.692738518563554 -2.257687999917989 0.3031906554264198 -1.3350453164977008
Ni 3.16730001358758 0.24699222671737414 9.900364169008936 -0.041001896333658416 0.3593276076293037 -0.5720208310950988
Ni 7.955599896019427 6.772678606435713 13.200772207638588 -0.3570570664275722 -0.45169346025723495 0.22210757480115942
Ni 5.677664034251363 6.968022722002003 11.42594164587767 -0.2957683948204196 -1.4993534637918888 -0.3543584365494865
Ni -0.19575543506096407 2.8515819887633396 10.816999456213491 -1.2525933805493716 -0.7013684031537019 1.2650295494301955
Ni 5.429463964573435 6.069751311284196 3.5220728710660754 -1.998368077732591 -0.5253964463683403 -1.654692831928563
Ni 2.861589830436498 7.465103730362649 7.845088327661008 -0.8488664208690865 0.6503713432805444 -0.2286348343967159
Ni 6.933326383675674 1.289817723335874 12.584745249535517 -2.61671427425679 1.220834085859904 -0.413361654556572
Ni 2.0411426796635506 0.9367824808654956 0.8348396022975055 -1.0472486270288481 0.14850666148555713 0.12263005082911137
Ni 3.9263570302573325 8.977537637347119 0.4547141677118537 -0.38350111955171373 0.037615496359928766 0.06967432456768646
Ni 2.0939893068025204 5.075794487961607 0.7603068310073141 0.3282136598333186 0.7574855578622438 -1.394769471831211
P 1.0843631693970748 0.7212408059858567 8.715309800775966 0.8499126027454136 -0.3601673299217797 0.28763188175621435
P 8.990697995782185 7.496237165129659 4.471565217586755 2.2920947595326333 1.7664396601862675 -0.32790512745396433
P 2.7795591058182056 0.18439331695635877 6.020008700649258 -0.49826745136203215 0.10218386715961757 -1.2357559972770589
P 6.886374403263113 8.664291260279995 11.421163437779665 1.9129938259311443 1.1293056415316034 1.106448534427772
P 6.924503067531399 3.2502820894180458 11.804905872366108 -0.43703174448000215 1.5652590653457623 -0.16591740076283684
P 3.210698417413494 3.8493815248252954 12.847567214265645 1.092582575078957 2.668571368137398 1.83570646490289
P 0.3297653783600684 1.378032230833294 12.477570871997841 -0.17495457126444064 -0.6581268188562472 0.7982848512667929
P 4.827529129475002 2.553911656052391 2.5460145082940837 1.3874749950523266 1.3083732065231533 0.8504983000455545
Ni 7.904404143042758 3.1099111507591144 8.860092397507035 -0.4333506960839892 -1.1161055979015617 0.05132616107780193
Ni 4.702221251675483 4.476499186128321 10.886687797899732 0.5287455653462313 0.9144287801509284 0.7466270178811851
Ni 3.6936304082362263 0.9536643013952408 2.91102744906518 -1.5255836011330115 -1.0795491389337666 0.2517829903784051
Ni 2.3179112666246877 5.199302260036131 11.348608917392433 0.27693120750925854 0.060309081302702586 0.45409564194082436
Ni 0.14661534686040303 8.560342149891039 2.0921332392415155 -1.0671674774399622 1.0270515832556828 -0.1298679633384473
Ni 7.62192744880858 1.800516111792337 2.7460967259759035 3.216937278817718 0.8445279413947326 -0.7257432324536404
Ni 4.2026685955577205 2.268151867438947 10.742341703489544 0.21666352096745264 0.004419726334250453 0.45525572368719663
Ni 3.5282352019080654 3.571251199854576 7.137094620956033 0.38946685021684535 -1.0404375176442855 -2.265527807677382
Ni 5.766867200851629 1.2019203329091788 1.0473304244173216 -0.3670666281447743 1.3261325873891032 0.3310115342934299
Ni 6.560536613093694 1.6903832185242536 10.461678172742094 0.2726935152788271 -0.1558957548607767 -3.3303661227635355
Ni 0.6482357928187438 8.029842598459632 12.496054133734745 -0.2558949556642496 0.7513925575906285 -0.21149714627516478
Ni 6.357507072048669 6.114744627436401 5.466980779434676 0.9531966449477456 0.93956517020724 1.4627149866332487
Ni 0.6616311909650532 6.306852283486766 8.987032495523517 -0.007977875999154003 0.6886746097361172 0.5489410664574998
Ni 9.346652580697763 5.854941803759024 11.394544257784142 -0.1664568182060746 0.7557035262611566 -2.0330771990790018
Ni 4.337629890068998 2.1227257095937606 13.134305402312002 0.642190607241965 0.515512354485409 1.325108002779331
Ni 8.194566262755671 0.12634130637117258 -0.0066100255300720525 3.753892633668251 -2.826379766639855 1.0938282745606003
Ni 5.044735668975944 8.200488890400084 2.6333261648372055 0.508528209858092 -0.22428709895098145 -1.40686856908759
Ni 0.9787165499824759 3.102943902175844 0.28272385900989006 0.09996294824889881 -0.36325856725259376 -0.09988735781595699
Ni 5.501636079081263 3.496169069874218 8.487939659158302 0.0694498672617062 2.0893990135991825 0.2953703880510526
Ni 1.4239022824163254 4.019542814186992 5.780024761194895 1.2703671595930253 3.7037666635461375 0.6176378576032654
Ni 7.74299155404399 6.1095121957694465 3.1193006141443598 0.8063822835629467 -2.1637236924546865 -0.7861806118040912
Ni 0.30675573678720575 4.3408197147215795 7.833881037302698 0.20356040792659139 -1.3681840080331986 -0.4041527343637943
Ni 2.2982127003490955 2.4139604311635363 4.537554481912722 2.1144297313155644 -1.8503589247087424 1.4843909289447856
Ni 3.123332664428895 7.750956788702776 12.256520687060265 0.28817772695735533 0.09899492790867467 -0.3019858364850412
P 7.375154405948913 5.12645860349618 8.316797172271894 -0.025989224974910078 1.7840825700790113 2.1106656362874427
P 5.456092471541624 4.227030648167496 5.978659432718584 -0.9366297417279998 0.019976957342559144 1.4156517145968588
P 4.704273185662524 1.5891016223184506 8.865825687606279 -0.29590749150144524 -1.440513510835545 -1.0408692058650653
P 1.0363385871276505 4.2477645084092766 9.896596072050915 0.39837906510481064 0.654421344980202 -0.7679000683273485
P 1.8632866378504505 7.700078152796832 0.5649617827437582 0.054480133325751336 -0.15770761125853483 -0.4552883766973449
P 3.2325888222661523 6.0201318166884805 2.9212246282835057 -0.2639324812567454 0.22797431799458154 0.33622907393862744
P 7.943306946042519 3.8680634510800354 3.0990564199676687 0.9711372885865662 -0.4013247779966959 2.3976747968579932
P 3.4612209032858448 0.6076270865179385 12.096872761290351 -1.0615671005340492 -1.3265498774321798 -0.8816798678546816
Ni 5.955066855353949 4.068313554269886 13.597059420463987 -1.0759380245437404 -0.38556802938307144 -0.5313678334604268
Ni 0.8691162268537562 8.852304375328947 6.908112778461278 0.0686818787474301 -0.09374087859858694 -0.15723504249749048
Ni 4.543895890629945 6.314099341250088 13.510321372739972 -0.6599402179159022 -1.2537007546809376 0.49107324760643806
Ni 3.927355016332848 6.0374333509883025 6.059472987403655 -0.044931570405367785 -0.8634576884197 0.7316125467502239
Ni 2.069608600247408 2.5398745621864975 11.782286098250783 -0.49113392564104447 -1.2820715925141468 -1.1854353946456357
Ni 7.183783580739347 5.018405625133142 10.558886679983623 -0.08859635828317 -0.052865737650779926 -0.24155797021628722
Ni 4.073937718788912 4.313771493983314 1.7054835872743404 0.7131718235465331 0.5945596356275631 -0.22721584256200222
Ni 0.7968536407110453 6.3806472912388905 2.0603674357275894 -0.5990274415909297 -0.10873092424951598 0.5471952874109867
Ni 7.220597141861394 8.123102998170639 3.7144687305718933 -1.1563245933226085 2.27875201967714 -0.3074985387731543
Ni 3.141315067733508 5.233802731936421 8.41404671819316 -3.4683304899568723 -1.0067293267585629 1.567825797631674
Ni 7.784104849566154 7.377682015542039 9.247369754734791 0.3589645678629302 -0.9990867226116406 1.235772452337291
Ni 4.458386205206351 9.178515244405101 7.298995010625357 0.6495282785539589 0.36745203650865105 1.2757945012561833
Ni 3.944973667703394 3.9858444619361806 4.607310910499443 -0.25927852742450186 0.6425873284597514 -2.078835379150723
Ni 4.945841777773243 6.240518853869336 8.696717413458842 3.5355152153334855 1.5300534639789067 -0.36777805238950206
Ni 6.361433727542052 1.5912188451141702 7.331143220018686 -0.975677856769397 -0.18476281560411406 -0.9886033065818136
Ni 2.701613595228659 8.230437799638214 2.449803054430806 -1.1659361482704436 -1.204990433959428 0.8671863022241969
Ni 8.78613883121955 5.639880467971806 5.275635137051316 1.4674193340874535 -1.2894815118249727 0.3846516882163891
Ni 4.4729083016510005 1.8028198740414236 5.770045833137009 -1.4797202629419934 -1.3467014126793901 -0.00267574705995023
Ni 7.524917606084889 4.184798115925128 6.516057213135516 -0.28969056405745597 -1.9292614527429162 -0.8324154744019147
Ni 3.882277757426628 7.945899844444325 4.741485941214777 0.07024690924170482 1.1403953236868618 0.017935758542814272
Ni 5.665874740798547 8.842818844125217 9.741685315699264 -1.3961018174893893 0.5006287525053572 -0.7206223662873074
Ni 1.6819516352320492 4.5206157668497 3.355353234619006 0.117480645417688 -1.148065952858242 -0.42072786511365606
Ni 2.3487742191843157 2.6374440232702905 8.965368736106699 0.31224068144383005 0.07452445357113617 1.9417166477871335
Ni 8.09304216526049 2.6152831362102487 0.662615186581566 -0.42968301742441484 -2.0958797362275194 -1.5354149854011365
P 3.813258159680708 6.455412304148524 10.451726292904947 -0.8806036040713673 1.1589404336789009 -0.002618411459453555
P 6.3039982298502455 8.023500257045143 7.929096370484994 -0.20861185430756973 0.09110164120352697 -2.5124503846396924
P 6.2185445062626625 6.051078712002124 1.186285528625194 -0.3632053454171551 0.6853442598113035 0.18991864877344067
P 1.203095531465393 6.1059679461554675 6.936943383676469 0.9993780285998143 0.6741676743691938 -1.3314701975519327
P 8.413516946145597 2.083197999425219 6.864662143588419 1.1710706412835317 0.4828883978028006 -0.10459144815984567
P 9.277036056701068 4.94443340490032 13.170494056265266 0.6481784493942837 -0.5040930569048738 2.481574520996442
P 1.5516818079729604 1.8845987703976699 2.767679340730506 -0.9477250803102131 -0.4452903849443686 -2.079981319829708
P 7.075991757611024 9.095654419219324 1.6822771465781752 0.6968962263149611 -1.7334626910396147 2.0500997017789273
