# total energy = -340871.50773810665 ev
CRYSTAL
PRIMVEC
9.21388921816036 0.00000000000000 0.00000000000000
0.00000000000000 9.21388921816036 0.00000000000000
0.00000000000000 0.00000000000000 13.48545822497028
PRIMCOORD
 96 1
Ni 6.607952477813803 0.06082733158217528 4.739113175237915 0.9941072671191782 0.3690918861049192 -1.4888672195485844
Ni 3.730086360544521 3.918657814588297 10.940239279883182 -0.6220997500293609 2.8326673994207794 -0.18220816750306038
Ni 0.5405715015921592 2.2473412593036954 9.70633368120076 -0.3783550565744 1.4373389697623054 -1.454665891076527
Ni 0.4671386483507789 0.9417147479721596 3.1150869056896417 -2.008002515498561 -1.6894901421134068 -0.1899111925742729
Ni 4.140915247132223 5.1135886624349345 5.605986266327373 -0.02635355029286429 -0.5866542647375574 2.0374349618270653
Ni 6.198220044027392 0.8056679900547367 6.789658663099249 -0.2791181878582483 0.6179507608579938 1.513755755260148
Ni 9.21702180876338 8.145262230224729 12.854136342869745 0.6118626456823849 -1.3788170622670124 -0.7153140667005164
Ni 8.624725376617574 8.053915733821425 2.0789178165253115 0.23083878402657018 0.13884059915070282 -1.6673981953103734
Ni 1.2071945342207344 2.877875331158369 2.1287336292602417 -0.6811914139851946 0.03826547123910184 -0.01775012489456943
Ni 3.8661386467953953 2.5512982463773857 12.74301591909796 0.39195284986349266 -0.19616540101410088 1.5507374746908196
Ni 0.07031579456342618 7.273646750422462 6.265492491025555 0.8285886444566568 -0.622337834182096 1.5784102580157398
Ni 2.002657220723292 8.377839218545503 7.562199957721385 -0.03840071126538548 1.1520233948440932 -0.29127050695006607
Ni 8.09866759311443 1.9052848408574354 11.63204387138509 -0.4965756654819061 -0.3287967860302982 -0.45380356462170235
Ni 6.864255230532251 7.112302338629217 5.815441921374552 0.4908827288621868 0.8334387734601065 0.34779441017872365
Ni 7.008756653075422 4.6366777633190415 4.701840229716402 -0.9218189019674123 -0.9749774882682628 0.7999504118946739
Ni 6.625799780974304 3.325928329655426 13.170410456874233 0.6469024108953375 0.49704977690484725 1.5001361075941841
Ni 0.5994132400761993 6.9344097820366635 8.92098139519279 0.6771028457381177 -0.8081848839893242 0.4244289681143271
Ni 8.680017925025505 0.7297132953703885 5.6556795343374535 1.682565389969115 -0.15932637780888043 -0.12042738675083775
Ni 0.020682416832408144 4.860925395905645 5.593795369677061 0.7001072770530911 1.4312415986153155 0.032416468657492564
Ni 2.578774063633251 8.640610121402656 12.73109498939788 -1.011356026897297 -0.7591302925545185 -0.931019594630074
Ni 0.9414475451886519 6.895619308982607 3.26617810170746 1.9066779110154455 -1.6283727059767954 0.04346629871375095
Ni 6.74520256964592 4.439067484081434 2.093402050169249 0.3725554191734874 -1.0674541554424455 -0.9153127254177784
Ni 8.941379102852425 3.889873625082153 0.3794104461917342 -1.411827198644446 -0.8796623232040205 -0.03542105981177125
Ni 5.443307683394406 3.431731418035407 6.565907659134405 2.1835227294584847 0.13468158267700675 0.883074434209363
P 0.8544481616563473 2.875811420002999 11.78918951392163 -0.4994059358418496 -1.1302916595939565 -0.5528152047009254
P 5.066395122534016 3.065331904622682 1.0979159668773357 2.097246534668059 0.9673410547689275 0.3883440494663118
P 5.522749835097985 6.526133142725914 4.380669855051361 2.066410523123809 -1.5362765620704832 -0.8352668278077809
P 5.15985159953812 8.927917610897087 1.7609179410949265 -0.47306626950605624 1.1758359238826588 -0.9730399049259177
P 4.222891218334581 3.0836399022375063 4.776063634641402 -0.3679811695392437 -1.469165627354599 1.2686720312787891
P -0.39496349096970224 4.542253827960856 8.909477854668326 1.800951320809892 0.7497645350689023 0.8354028391650129
P 8.63312844346444 8.021059005339058 4.433209293400254 -1.2009612581953768 1.152480794096486 -1.360499494904747
P 1.6559385743992765 1.4595261007429108 4.843774662760083 0.710370606652312 0.08996058562054829 0.4884520079335072
Ni 4.652746785885852 7.719221212755257 13.285145489334642 -0.3954801462904608 0.039389557541216036 -0.6106927937439999
Ni 7.234331085690478 1.720426584115508 8.91506055006582 0.13343511186441534 -1.6464794428798353 0.6169593434790019
Ni 2.7079712164037892 0.8123867579765935 2.8736433919009516 0.7263307295259943 -1.660830826505501 0.41330817561081723
Ni 1.903718479712735 3.9050673281857478 13.191664134830003 1.8392880116065615 1.2746786424841854 0.4836005933784768
Ni 3.2149193939415874 3.7484864970502096 8.575375786670419 0.5904924075367249 0.23389274036154556 0.841069293422171
Ni 5.549285835667029 8.401316207937839 10.696462809377797 -0.23870070327315018 -0.37990851710444895 0.9132913241123755
Ni 4.199110170602392 5.236750717853833 0.9515404392939755 -0.5860521123771842 -0.342210745443359 -1.192157800971134
Ni 8.621426804324615 5.6562314462937335 12.21883592619064 3.073772084149732 -0.46248438022515187 0.7648263144980312
Ni 4.772131146779296 8.4427602810488 3.7615388923301083 -1.013267642097713 0.018577248781555106 -0.7225221544131815
Ni 6.126416206376501 2.418636671310333 3.7573180097395946 0.407135471141202 -0.6095576516982921 -0.019647599027598422
Ni 6.600157527646647 6.365885183733959 12.477257873398974 -2.622557877521761 1.0678362213722126 0.8246201467272122
Ni -0.15798594922122608 0.5446348266792943 7.9728316670826365 0.888886927126082 -0.3421063586550108 0.21361830638322565
Ni 6.1883980382612105 7.195485329301904 8.292006313371548 -2.6904460567233017 1.8017586472025358 0.38675665037453394
Ni 7.68391358977589 6.341514447100235 10.197406327842563 2.1686856644456523 0.22771437946497558 -1.5660105987998063
Ni 1.6213496347686533 8.34079938441788 4.889368671515591 1.2958830444759424 1.5520726485624754 0.44590616415149653
Ni 0.8271151596813221 5.98222805606227 0.8397584582857818 -0.40751470885749175 1.2979211579518937 0.49123805531907655
Ni 9.136040937582361 4.676417266949004 2.819458352961216 0.292709810499754 -0.0008356085274179157 0.21772024436674114
Ni 0.9855267905783434 4.671994600187496 10.492900357790328 0.4300231743726529 -0.12256217370565343 0.39179986922539617
Ni 8.402615366299033 0.991138049032006 0.4027593625257679 1.147031855166773 1.0760200427345856 -0.6359549107448983
Ni 3.085086482824083 7.5194733112495875 1.7055728735192033 -0.14820609952600283 0.009280139750345308 0.2859691493418107
Ni 4.642113957880061 0.37318369994709505 8.816010320997318 0.5624193034495927 -0.19078228232531658 -1.1997469261723015
Ni 3.3997039395708235 6.611702530671998 7.5937427856200195 1.7217310044249832 -0.44637770447127645 -0.04534397535243804
Ni 3.5911040575641473 6.405246917911376 3.9290289681440322 -3.843087287657052 0.843587174748018 -2.8048683749306402
Ni 8.507239076875944 3.0992113747936476 7.436866188644806 -0.17914624074828503 -0.96598608340293 -0.8044310733738468
P 1.949889277925056 5.981527800491698 5.358203596847189 0.023282624677024417 0.4077473936935881 0.8540168547217744
P 7.442924320719162 8.863687590075276 11.921994825658432 -0.8136327944777729 1.2244377440507621 0.09157318152330682
P 6.979189282996927 4.478705634931445 11.514207443858174 0.26967092640241946 -0.1010554099821292 -1.922226914493638
P 7.686143350934816 6.082254035985031 1.0207533313337507 0.6663368654708653 0.6990798642298411 -0.22741587438795027
P 5.378018065327652 5.319786286301136 7.842157527891537 -0.8116152498271119 -0.8562051206223448 -0.2971825015591269
P 4.0957671906085 0.649559831429334 11.895994152045311 1.7141249099429512 -1.8917907094909678 0.1423972061537096
P 7.3495415548277485 2.422497290837566 5.62893806404178 -0.8222048524175002 0.34357882943547924 -0.6045799959780427
P 4.60172026812496 8.495970490523186 6.6509601479027385 -0.3991822777323964 0.12234105883378285 0.4143268466833187
Ni 3.048148001476408 8.677401180524946 10.178998820225605 -0.8913096776349617 -1.1345774314535042 0.11700627688443074
Ni 7.718097118286708 6.3227181133638295 3.325810391875119 -1.1530150693334014 1.3044345335903793 0.8631162459198813
Ni 7.737206724252054 5.525910199054645 7.357059166933403 -0.592504038650115 -0.25345703564671834 0.2578654491270591
Ni 3.730547054998844 1.997865998398326 7.149733763043017 -1.2128148150998534 -1.166352924092888 0.03798676365641845
Ni 7.232202677311502 0.6528215481659457 2.272299842061136 -1.6975150693004122 0.7583661606949843 1.6516157356651364
Ni 1.6384321851349761 1.445751336558632 0.06177083382463021 -0.27873895014195865 0.16943518410810818 -0.13182354440292135
Ni 4.019485402861582 0.9368958839799336 5.048618766319481 -0.31461329544106464 -0.09725891905417443 0.45808650826777236
Ni 7.840346998686044 8.839058864547132 9.894483139124375 -0.03230308300807985 0.1511986064954235 -0.48477918706761025
Ni 4.687824061638058 4.254080232892296 3.180113927917432 -0.7561688959333492 1.2342179633659776 -1.0765913418570232
Ni 2.79399208491511 6.10681826428957 10.020355920712515 1.5574233713514274 0.17704076436950802 -0.8488497086985382
Ni 2.0451885327464563 6.243202250547558 12.304428348859437 1.3107015975460135 -1.0439871826687568 1.8157403061936084
Ni 1.3989079244429983 3.084294088362646 6.479695141730086 1.528898010218225 -1.9217368622310966 -0.679760595075939
Ni 6.818922896226798 8.304367666969961 0.364803667822947 1.5885609732964963 -1.271609002419926 1.1788040053720474
Ni 3.23856223333748 2.5448577379059403 1.645926762517914 1.0040366104177483 0.8162488919443813 -0.7011341756557087
Ni 6.836807054943644 3.8706165968914217 9.31243715858727 -0.32730811729991377 2.178731221607112 -0.23309004195459215
Ni 1.6024980176977275 5.049100652718703 7.604072476674865 -1.3365411843169368 1.2237368613289956 0.008516265001127269
Ni 2.984572166779738 1.760138446078211 10.541299074383756 -0.9359275734546527 1.1847645938308562 -1.2783144394645598
Ni 5.6777919467560825 6.89069909221043 1.9976955414502262 0.08942553905268469 -1.4427555127921863 1.0640554141735417
Ni 5.711284433585415 2.753727389607219 11.11596841531823 -0.35482689154547276 -1.3481633419368977 -1.3070349473277036
Ni 6.004866581547736 1.135980385471377 -0.18148689472518661 -1.6020718632987376 -0.1372388018812217 -0.48113439122617135
Ni 0.755795972596379 0.3458424054718922 10.92289689784462 0.20641561798719937 -0.6065638591772908 0.8202065910405487
Ni 9.189186649833143 2.953825418898174 4.4433104800057555 -0.7787892044360265 -1.3750061731613545 -0.42380470426676686
Ni 2.241518081401044 3.9456360818334932 4.145348970560634 0.2711390263075137 0.6464167295081706 -0.052057125706555504
Ni 5.595355281099399 5.7795501378271 10.19116299659757 -2.821153999464541 -0.5276975836976913 -0.12770258025601233
P 1.3291035007238716 8.546785088835092 0.9812662882647578 0.06453083269353403 0.7797273999795796 2.1035552504949067
P 8.096189056950168 7.743545879943548 8.037629263472173 0.8896274048365324 0.8749209518642931 -1.1288055619667332
P 4.3485870932522595 6.071833127428229 11.908832785098404 -1.3659265794575894 -0.5955929619880839 -0.07438612822105899
P 2.0601150330665443 1.186601492112465 8.446589573353139 0.08179141954619462 -0.00628686144997627 0.2791055894527581
P 8.297521747378712 2.6363792982018865 2.0812507732420067 -1.0760758356731854 -0.6026822647346975 0.5863161646718482
P 2.2921484019312186 4.850237284565336 1.9812432210974182 -0.09805030460721824 0.14838119165128638 0.5463856470254976
P 1.2749074051172316 7.438621434515779 10.894807435575595 -0.76548785934143 1.296252512000219 -0.6036132611893991
P 5.238390790111225 2.4550315332019053 8.73859061794822 -1.1576857353361931 -0.03651634975847905 0.19681897543769974
