# total energy = -340887.7728674294 ev
CRYSTAL
PRIMVEC
9.10580087437739 0.00000000000000 0.00000000000000
0.00000000000000 9.10580087437739 0.00000000000000
0.00000000000000 0.00000000000000 13.32726000811473
PRIMCOORD
 96 1
Ni 6.8513867413390575 2.0819139031296308 11.333328435087624 0.5410387808912875 0.08674593533799255 0.22069706760687796
Ni 4.902872821942736 0.3677823892825954 5.663792703218194 -1.3583978751807122 1.2553179785693864 1.0688736614977914
Ni 2.6700393740761856 1.7269424651859018 4.690356176184496 0.568692280942498 0.16759016047956943 0.8998853351191146
Ni 3.030091848942999 4.4449785160032675 4.738094248179052 1.732186138320036 0.13078584716702638 -1.3322078470489056
Ni 3.578015208750813 3.0692558987748737 2.827165432732057 0.594775608293111 -0.06372170652867735 -0.8988923750782262
Ni 5.44014239465376 4.641927884478883 2.5577675802579884 0.013593936634350781 -0.24288980165383328 -0.2107803227137983
Ni 5.779215104160741 3.295325618648382 -0.012325612148901608 -0.7886614692444159 -0.24633405144869192 0.0014645003606684455
Ni 6.191380077792451 8.14305371011406 12.263011588616983 -1.5863521385706356 -0.4766724988000759 -0.20079210115283483
Ni 2.2106608225839155 6.8992377252652375 -0.03289197414617493 0.6870131628732943 -0.785544520881989 1.4674640712824596
Ni 0.7029550842480761 0.21375594526582492 0.44249184365381145 1.2394966952664137 0.12938202484096428 1.1104409434166165
Ni 8.38277302559277 0.10798660389704422 6.578615189617673 -0.16169462093074088 -0.388902235962627 0.5566340642263834
Ni 8.659744172706498 2.526477316496707 0.8604408220409752 0.7998015450216355 0.08424965127870006 1.3067778370115752
Ni 6.995422300567283 0.9375514761193908 4.769959998559579 0.6488603059526568 0.5760006416784531 -0.897614279696751
Ni 0.8946267305003585 7.528676215064901 2.2893567966055373 0.5785699450675261 0.641724980459456 -0.5380701851812669
Ni 7.6780750910452715 3.9417919562010337 3.7773584922928776 0.6106048620158839 0.6800143629579578 -0.7548771737051192
Ni 7.9599087358595835 4.0608138802541465 12.520547314209864 0.086680886428012 1.089017483435518 -1.2641453470530293
Ni 8.17281146757757 7.745175738153173 8.545252384619754 1.502039495264484 -0.8647267849401107 -1.4601955626455045
Ni 7.276245201477541 0.6145568793276255 0.2101719020168535 0.4717076985956328 1.3728790995160225 0.24130111701047477
Ni 2.413301316645423 6.85420953962966 8.874622863227907 -0.8509197038536894 -0.9407800164509476 0.03692438383017512
Ni 0.41953703007065096 5.213826818154942 1.161276452251511 -0.4912046309779799 -0.62151405272922 -0.7151469449950328
Ni 6.566284113988209 2.0286267560438063 6.889007357912039 0.4891503195521124 0.8473672106157406 0.3830871719427467
Ni 3.8119887638380074 4.560221532667347 0.49413721483061795 0.770104532177835 0.6252866323977747 -0.7252940607313638
Ni 6.088393469190148 5.80594062991209 4.751861308616348 1.006093235836461 -1.2859675851344432 -0.5471816605642318
Ni 5.55945570433687 3.048267027614104 9.27830487270631 -0.5647358673979113 -0.2693695931119167 0.6396315882655371
P 0.4597655480321111 6.0288142136565614 12.03185081543936 -0.005791924091428734 -0.9821794053333407 0.36931351519742206
P 4.317679418898033 6.403053526383887 12.601470567140781 0.07571847387923733 1.1386048074453423 0.34840710406205805
P 2.7241642548482536 8.730951536037178 1.2512954897388238 0.25890520324548316 0.2640551228775388 0.20762583624521663
P 6.577557095548744 7.9294407259229525 6.110761869192938 1.5458999440928602 0.13951242840674682 -1.4037184534943825
P 5.312388007501656 1.3233824734400608 12.649555570151053 -1.3601253993947802 -1.471099611152518 -0.21991159559110512
P 4.246198881539229 6.3505039491739925 7.669345359686559 0.06956608112459632 -0.6267282499403077 1.0184931521627105
P 4.704639535534945 1.238489091300426 3.4874106682632235 0.950994237979788 1.185839829172906 0.9309807709723386
P 0.4750341550439892 5.671575431279413 3.3287630302707085 -0.613264154015602 -0.21675505223999442 0.4350874762694378
Ni 1.0037051199298004 0.054164946296192625 4.530415514458866 -1.1095073758587537 -0.15761685131694145 0.07237064045292697
Ni 1.8441341232505915 6.75248863735766 4.609632340294109 1.376582259399223 0.5132407848424129 0.38535771314447825
Ni 6.175044270910706 5.878277112559013 9.249531452324133 -0.6338013547370053 0.23579355692868426 -0.854818010466831
Ni 9.231278874345058 2.7256849236048044 10.378230991141903 -1.2473169626417808 -0.8439931519371852 -0.019868713899469006
Ni 2.268273225115018 5.410393742991185 6.685566463948131 0.30972717099335695 1.3694338212798995 2.0061019560417384
Ni 0.7504354620761032 0.28834884538504196 9.040546946749519 -0.16046383384743332 -0.8257267495278295 1.6390201583883126
Ni 1.8993061711304633 1.404852074427223 11.254604233083096 0.90543840372686 -0.4326575266717065 -0.12867754257477193
Ni 4.6317658106327135 7.044784847449076 1.7532673356960042 -0.26076205394856383 0.10528256068959932 -0.7502805554733722
Ni 5.646844075933361 8.205938371387932 8.133346926314761 -0.6037302463832377 -0.6517119164688389 -1.1767149840535023
Ni 5.338075471946137 3.1362836994752765 4.8299854383391 0.09935796767504824 -0.2176937620041799 -0.8009431148252464
Ni 1.1820422312893142 7.738574032473538 7.099084559599143 -0.6372800573142251 0.7544416288295974 -0.9255377455798963
Ni 5.449129820179001 4.411778765785407 7.308642730632814 -0.5752899887646739 0.4826986503894978 -0.7607922536379735
Ni 1.137970154752166 8.020462312093475 11.597501378983797 1.949040435142056 0.14822589702034472 -0.7296741920769304
Ni 4.942920134465542 0.3909757748503165 10.440882543911778 -0.21331183088640038 1.4790525474510074 -0.44775170200066755
Ni 8.493545093996573 7.245285478290288 4.413388671391145 -0.8580414025001352 0.6472327976515627 1.402446014539862
Ni 7.353025314981927 5.9672225761158035 6.986963011496413 0.28868577694202535 0.7264551709190005 -0.513091146638426
Ni 2.580602197268775 5.640661237096847 2.326539424153428 -1.0393879933338486 -0.578393567390662 -0.23718246685641087
Ni 2.666333313094653 5.780526339495731 10.903924359121177 -2.1679824677310404 -0.15844706052772065 3.1310734889743626
Ni 1.1915304758661134 3.5844165868098243 3.371036711122715 -0.49874927609445713 0.26387000344992617 -0.0482619203301814
Ni 1.759869041375639 1.3427231946311564 2.5109756009808306 -0.7038906553549232 -0.24421906198821808 -1.1771471864949148
Ni 1.0028127514379324 3.6136371020180285 8.26135536531302 0.4053747796963535 0.10969303105246915 -1.1344545327223947
Ni 3.8387233953902946 2.79227564586021 6.593155332554556 -0.17525050523830465 -0.5024465224403863 0.45951398474291827
Ni 4.56927269879915 7.150412138323233 5.708279093697995 -2.5860410135426495 0.19417922382200753 0.16546771481992792
Ni 8.502277557095567 7.488210035698974 13.301112050427728 -0.023332504078353362 -0.8379520879494279 -0.06584260952642208
P 0.3195571569378866 5.939968913910083 7.824314254100353 -0.072122786108179 -1.0739582751095504 0.4538382745143797
P 8.524186114151018 1.8680914855169626 8.207259623103953 1.423786170778535 0.6527753247363467 -1.1989671105834834
P 2.0808394186190142 3.813126988955186 10.347431530051148 0.49051223289664553 -1.4432180542509017 -0.4314686485699279
P 4.1089016150047 6.082729661007068 3.6345303622689555 1.2301581914743072 1.0486977007705487 1.6906368541233399
P 7.056558648061169 4.198976197877731 10.46373810426472 0.2422228574937958 0.04636984551379111 1.1685576450536908
P 6.751395941245168 7.904299609534715 9.919492577455534 -2.821455846975676 0.9380646744023136 2.6126197924724424
P 2.6294366076961975 8.76393274703254 5.8718037986725955 0.43884257243649577 0.4657501954606172 -1.1583315964503083
P 7.185578741543577 4.1949787512662 1.254731108432515 1.1182414132976417 -0.043833709355498705 1.570075255787483
Ni 3.1834699599330247 1.8590585309870349 0.2958128704134511 -0.19414425681901404 -0.23361094745506863 0.868084388558434
Ni 1.6464107616952948 1.3937794204873115 7.368322149976712 -0.0837678265462751 1.0238515882611465 -2.9116074655611084
Ni 6.944165747090504 0.9730640997753573 9.204658975884586 -0.09981459559649261 -0.6356774887137955 -0.13644124568059082
Ni 3.1853821781298843 2.4022286627055114 8.892654170244201 -0.2025201395875351 -0.3395041451454734 1.296392380012193
Ni 6.527784787624766 2.154514454003739 2.5604601655951855 0.27888087503646164 0.2378877204535516 -0.6976032796843147
Ni 4.318007227731781 7.244183676376859 10.421904233597994 1.382437432628419 -0.08278695069024453 -0.16720629477758947
Ni 7.492553502746127 6.4258817693340164 11.209478615377487 0.743343719144223 -1.6385977261389135 0.9714823306308108
Ni 7.61525417037796 4.046863793218008 8.444685187326526 0.9260200845329536 -1.0107029666943304 -1.3062209360668406
Ni 3.5625080297543743 8.856821022395236 12.343587910532182 0.26123436559929203 -0.5736113155106701 0.5698001692946961
Ni 0.12765786566216844 5.058582017972744 9.919732970600283 0.4414784673974461 1.7156817129071096 0.9479027435386579
Ni 8.841186362185674 2.1851736857600566 5.639990139567759 0.9078115319447269 1.8827499394449383 0.14116719040135042
Ni 3.834671313973139 2.887695333883511 11.596049003734276 0.05501826521740847 0.118350449617151 -0.9791650439870492
Ni 1.2641674499439712 3.932913800287042 12.505221340652081 0.8575958303222845 -0.31894920381225716 -0.855249698687611
Ni 3.3077004021223457 8.82290191390332 7.988133076445233 0.49543178168544993 0.6681934590636298 -0.31230778723633956
Ni 5.985215638768159 8.153188466557415 3.8622928505367313 0.04678764977750007 -0.8162195813683427 -1.2748017983256108
Ni 3.4478477843502895 8.643854550070687 3.432595567780099 -0.7141820099786023 -1.1559178448024932 0.16474266372844532
Ni 3.769883540303344 4.803910977354777 9.175685227881784 0.5835738260400208 -0.6850403554176396 -1.0566784049831803
Ni 5.092319010445912 4.911414063222043 11.30932645439666 0.6602225250430114 -0.250387138472143 -0.06870193335208812
Ni 8.216018493025663 9.055445858243338 2.797352129882826 0.22879861366808982 1.3578522870898873 -0.20203394397973592
Ni 5.102972797542702 0.3821904981058866 1.4872686787118776 -0.4468063073682628 -0.2422825070871376 -0.6561378134506763
Ni 6.424033291743719 6.013407198470435 13.756797289059778 -1.1185347761683446 0.25249312907155225 -1.8592492852198368
Ni 8.360208850869826 8.806347567799078 11.020151712866591 -1.6467645782204219 1.7419884691224385 -0.09023646498975427
Ni 0.11646592572997654 5.059137471829927 5.530679552214413 -0.010613770960104301 -0.7207606916373845 0.1969364748521705
Ni 7.531908774397688 6.18497869973344 2.4775645961812223 0.3347483756280429 -0.46249183642431957 0.6655593638748925
P 8.716272984926047 2.0604606361210522 3.4505877198523613 0.022673273227799662 -1.9108973484134315 -0.5336165202852875
P 2.07731547365623 3.5936862921641253 1.173511916971132 -0.8550666361425274 -0.7892952461736729 1.1881041997270505
P 4.895451594178733 1.2398822788438524 8.064871303265308 0.04533317671916064 0.8841206160856903 0.16640693880474566
P 9.118002710683463 1.459213706023664 12.261918892504491 -1.6433846060045953 1.1507324439468118 -0.6744628370121095
P 6.973103982469648 7.998207734602403 1.4475400692218823 -1.9060721591106462 -0.4400296507660615 0.04962229101281777
P 1.7776253532036224 3.4511714016924504 6.077337205691924 -1.0626395076626216 -2.271828553084429 0.3538624707496745
P 7.096014083523042 4.04186470850336 5.827677997909917 0.012342323615436808 -0.12229323631498291 0.8273529722773428
P 2.6284076521902686 8.686160101225973 10.096931856842618 0.34998010497613274 0.5664055417908503 1.1027682573627073
