# total energy = -340870.59404745675 ev
CRYSTAL
PRIMVEC
9.23563561095610 0.00000000000000 0.00000000000000
0.00000000000000 9.23563561095610 0.00000000000000
0.00000000000000 0.00000000000000 13.51728626898956
PRIMCOORD
 96 1
Ni 7.993396454265155 6.205940771260604 9.630120098943516 0.5566638890230542 2.1918394768542964 -0.7398783863034419
Ni 0.878230444925453 5.951886906519703 5.340260631584402 -1.4376611289884145 -1.8351215389336977 -0.9349991481031122
Ni 4.807785601072631 6.540686384447093 11.794346307913766 0.5559182691062814 1.8985930771247819 -1.6288267627950785
Ni 8.17070218697185 3.9942646371456925 10.438440476450664 0.5353265609978587 -0.6343117187145205 -0.39388863343362485
Ni 4.946938923017199 2.0476512454353126 12.376440714378239 -0.39083056333359145 -1.5330709106489921 1.5484237389559785
Ni 1.1187402500239758 5.789247363183682 10.540428677081293 0.03960270199328664 -0.15902504451837773 0.03544728506401637
Ni 3.85519443592174 6.26482718399828 9.022478077216345 -0.2841380096703429 0.5507038147848773 0.9319940427282013
Ni 4.261128328496874 2.0549289263069075 5.409604554538964 -0.7471432953959712 -0.3468323033757704 0.724300843580159
Ni 5.878962327633773 7.968838899141335 5.2110624012787845 2.2674319666786302 1.1004696911365177 -0.8369498719371585
Ni 6.5110399940945305 1.8626060500758286 10.794525949309625 0.17520551093298212 -0.8139834929489723 0.007169006944613459
Ni 3.720058615473548 8.620634647659013 5.548981378865629 -0.6766485318095186 1.5257005863268498 -0.7021973268129004
Ni 0.9745627423000337 8.047480336478428 5.809553755229844 -0.6636940285313796 2.095468873942346 -0.4815444821803964
Ni 2.591223815712703 6.20665191520364 7.071838871937528 -0.8327432900549786 0.8368184885656169 -0.7104114871925765
Ni 2.600099261547224 2.394504776924671 -0.010149963550612545 0.7686125210133409 -3.181890314515914 3.6258408976029357
Ni 0.13632998813435573 -0.012426547731891882 2.4177019229210983 0.6716166258125659 0.8712427316817576 0.4538806977165409
Ni 4.207081388826097 0.6559203833872915 3.382363140268801 1.2993810303268718 -0.4239666837659279 -0.5074365194558099
Ni 8.971090077041675 5.523575068827977 13.037814740601416 0.8045642565176014 -0.7804478230853721 -0.335918484676744
Ni 7.327664131591083 2.4720841161650218 7.0385185457337975 0.1460322318031356 0.09324825523288456 -0.027814193998790808
Ni 2.409291029558457 9.075803713744898 12.25282542580724 -0.3007445078787724 0.8589096640377014 -0.006873072970749453
Ni 4.665270507760982 6.354523677177123 6.196134373355198 0.6548517476494012 -1.7003016309066135 0.1539802830056187
Ni 6.762711064844478 6.254861933160144 0.32334976239021923 -0.04351129301907345 1.8514488153388116 -0.33784655493739235
Ni 1.1234873667346355 2.5937174373311427 9.689082243893308 -1.3665924951763626 2.32710701394176 0.22349751317015057
Ni 0.44648849216302816 1.5245540793360006 13.37617887582533 0.15864323569892677 -1.2369258492154438 0.9650995670329185
Ni 9.203163128997808 8.255882454330632 8.027077893821778 0.0005335039059668231 -1.7725064352056377 0.5533206835824342
P 3.6437445583136654 4.031502719981061 6.73820522928015 0.9350981355748217 1.111381452953015 -1.103229770380158
P 5.847071677824615 6.782124370925812 8.322309763555182 1.6619937364653508 -1.5900624975426874 -1.4985921601458319
P 0.16989228799143125 8.810029827397331 12.226547271766696 -0.03880540290297188 -0.4627299205770547 0.39047626531796625
P 6.315262990140131 2.926255733603532 9.05554072918617 1.2987115150636732 2.229842438460631 -1.5968206422021272
P 2.134964944623203 1.026143767259243 5.483016774985834 0.16157943550911527 0.32946784395539386 -0.39765478534427645
P 2.8261137365341127 6.909409901093731 4.820467052347741 -0.637118077815064 -1.9011580096384806 -0.5383625196107051
P 8.342457302668613 0.31462855167061643 4.294793143909375 -0.49089558437799335 -0.1749039205321633 0.45296487077049086
P 1.7702127512948207 7.305230772660749 8.949281970643074 0.07499445122901922 -0.18118538266550085 0.03735967159538082
Ni 5.921520136588479 5.3242054026159 9.92555422909708 -0.3027800502515624 -1.958160909386086 0.7202855517731789
Ni 8.215966037164346 8.09554258426495 0.7994744857066237 -0.27058932445163075 -0.08817624002661589 -0.8712319330484801
Ni 7.830673790208519 9.077512306335311 6.455112679010736 0.6253048872302198 1.8058140482188318 -1.5831973949917377
Ni 1.1785502263240366 4.146624918032367 1.4537573908978063 1.4528149539107174 0.6299277307142119 0.7236045888440829
Ni 4.5788434295929825 4.129548227763865 12.064339956177873 1.3002258948256704 1.7450069442337883 -0.01573977933275999
Ni 3.4684152516304727 8.821232653409064 9.967173697472406 0.060198266756451166 -2.2939850345768105 -0.1194025450307492
Ni 2.1067316065210893 8.52427002555975 3.5659010798944726 -0.258241087298923 0.8480480387328491 0.670595126526587
Ni 4.361612044084376 3.1677398982603706 9.78877261838072 -0.6721167053774361 0.8213790140820951 -0.2749028642253201
Ni 1.0106278994111728 0.32575933972448196 9.518859320146543 0.23824716067549936 -1.6071649615509291 0.8978181681774408
Ni 4.432070708258738 7.440736018533895 3.326063629069366 -0.6694355590008471 0.16395976281583374 -0.44500679226567874
Ni 7.419392464607173 7.312148263743013 11.916204055025547 1.107660295347686 0.4785095520088146 -1.0639746815342772
Ni 4.255383763138839 0.11530229294597118 0.3589540612837282 0.32080425474312496 -0.05954829187727809 0.2117398584135902
Ni 8.465956222230751 5.658027452240003 2.14175960175167 1.649795908847578 -0.05127345346299557 -1.1528669737913113
Ni 6.076475631085457 8.175966499277447 9.866226352976588 -0.19596382652625605 0.4094255527269594 1.394923738020888
Ni 6.153740958714597 4.340305432700152 0.9355126277552658 -0.5729775385814132 -2.2040126218817204 0.925514862761761
Ni 6.4337007813804 6.5053785494571095 2.7478214062236006 0.629193937871981 -0.8885053754169473 0.901971528224182
Ni 2.633920159201767 4.592909302648108 4.529683064730785 0.30241186827886624 1.1286117007883725 0.6214505464811362
Ni 6.518733278569199 8.96050603861674 2.942767202971853 0.4987595605071023 0.431926819153269 -0.5385190997932274
Ni 6.873021496735757 4.80696362950211 7.254254681834902 -1.0545413040355194 0.10106055218845175 2.86258424158487
Ni 8.54336008439425 7.34063096400697 3.822918660107067 -0.25689871433841566 0.49220324744582333 1.2047952872294863
Ni 2.903314414713885 2.597808823912509 3.5799724943309723 -1.0201342873105594 0.4969158224301442 -0.3904533824998308
Ni 8.284762286926414 4.3091166911984065 5.5686080281298755 1.0655903627608294 -0.0502259860350877 -0.7529455039000452
Ni 8.831595036579024 1.5023239043893906 11.18567635994166 -0.3263807203896379 -0.7972414976039431 -0.35667911426286314
Ni 7.40161386603126 2.9711686296423205 12.645380576617665 0.1969570436774608 -1.34776070718184 0.5567839595406863
P 0.4250331870452593 4.175513986263773 3.5064245100404325 0.20150686783167232 0.5064098779635084 0.7673254267708011
P 0.5511596449423841 3.2421883570242356 12.061583118944151 0.5492650254558218 1.1469963739431472 -0.32582073412110985
P 2.6124750132831847 1.1806928937887702 2.0423001181548535 -0.8237575416166008 -1.2010111375967056 -1.6898729793741218
P 8.257711110184154 8.647353341518816 10.205997075506014 -0.28845412054719355 -2.0770104101268423 0.6608462746699393
P 3.8247445452699025 3.8800752382923953 0.9036099716197963 0.9065164672823871 -0.41191258081487125 0.9926006006666647
P 5.369109063019064 7.634499653922294 1.2189912275937564 -0.6622765793585627 0.6625403745429106 0.24043362680385688
P 6.806238615539688 5.877152143051499 5.110709831717141 -0.721943399091576 -0.23254419675345112 -1.7068779985725508
P 4.815811368429758 9.258724712910897 11.605144152959989 0.13924220546449567 -0.6051456386735254 0.33863434094601036
Ni 1.4579189683099136 3.9002551021305103 6.555396904868764 -1.1283054824018632 -0.6152102219983792 -1.1007589402421623
Ni 2.1999284056013724 8.374865148072708 1.2153172917425887 0.7991376861853915 1.1756880854508849 -0.35641943284357325
Ni 2.377077132502464 4.370764558987613 8.61728395905468 1.2614109788410017 -0.4884568930295136 1.4628862221037902
Ni 5.195940895071852 1.0578866468984198 8.914285376573615 -0.9448562434028501 -0.10357483396987321 0.14505341282963405
Ni 2.212747467847278 6.805601356681643 12.87651251730373 -0.14979632683125815 -0.17130154789288563 -0.9398153385448331
Ni 0.21210006635599396 2.3208228759175857 4.746433273623388 0.30643281651280124 -0.6488906449699599 -0.7094882040473587
Ni 7.446923894401874 3.8547326541405478 3.2127349914562116 -1.3888685329657435 -0.5124275449124982 0.7566509777760904
Ni 2.2840742817702813 4.452675411335551 12.892139212779284 -1.1402665114184816 1.8293188162089917 -1.4565129715875946
Ni 2.287066627712409 9.039175182860706 7.4141096810303315 0.1136407028463075 -0.179136213445956 1.896814387957804
Ni 4.638200859747474 4.717387199586375 3.088104706530151 -0.30056067400274045 -0.19360098272103432 -1.0294416807544142
Ni 7.869121741310612 0.9068710745585782 8.888751614764352 -0.7062185321571515 1.3341449161706185 -1.1558620518638931
Ni 4.563983291874206 8.346290091452511 7.640362435416315 0.6533746488832426 -0.020181360043881373 0.8557546633484874
Ni 8.464460049259689 3.156915733309217 1.14596320958884 -0.9564784010228108 1.1531299976447107 0.9501781698363958
Ni 0.5344920933320197 1.4672469602900036 6.969661340776612 -0.6044213589129914 -0.1771443798269078 0.6450244771463343
Ni 4.2951801170420145 5.803267058060689 0.24824372636993589 -0.6793322492892687 1.5530147007607704 2.593695444764114
Ni 6.640523605540925 0.43357707356088404 12.915686389365856 0.6755462998842753 -0.4779616499251446 0.40696680677382174
Ni 2.876937439372166 2.4774500204624794 11.415374929978903 -1.5272890138598922 -0.33182426000271237 -2.3364326622180602
Ni 0.5004800180200627 5.64905041441362 7.981916559184707 -1.657939106780003 0.15571629186011893 0.0028017311148532393
Ni 2.943018412260822 2.13973053260511 7.403323382185236 0.09220772978351216 -0.5052058303530783 0.667712148551837
Ni 7.696230642432116 6.8631947804319795 6.701464947204908 0.9500588706497121 -0.12030963022605086 0.809670210285599
Ni 6.468879317471649 1.5407072060421165 4.8895542246319605 0.9574641619748478 -0.35419028640273836 -0.5129363662281166
Ni 5.586903822300725 4.025010068137493 5.419485761092924 0.05194579693967183 0.1134995492827529 -0.6263009325949019
Ni 5.705868044771552 2.030057359571876 1.2287671479016031 0.7971988172914658 -0.6396981798374145 0.1415412859113175
Ni 2.3845764686290307 6.211168141023703 2.5943593140070003 -0.3161747263909135 -0.3644358753901466 -0.21735206239404503
P 7.9786194372669925 1.176619978478652 1.2489553238117796 -1.86943342484169 -1.386612132831399 -0.3454984150556953
P 3.2161992783787183 5.323161775790404 10.952651113952708 -0.34480601697436103 -0.12328876745903282 -0.6475678123934784
P 0.8163332149744017 6.869604311554932 1.0347061250461156 -0.8928680232610171 -1.7770683435447074 0.3971117683566128
P 9.155036231761919 3.3318571432962076 8.038865335568499 -0.5000332850132033 1.0830602374108187 -0.14671305992024408
P 6.9878296831758515 4.869461175768711 12.091104828215792 -1.4827248540962723 2.3468551431029647 -0.8087507837951233
P 5.261957218511141 2.6395169543898214 3.2553408257161625 0.5798215580864401 -0.08999323863069661 1.4767390688264825
P 6.0193994029300555 0.6553616274320485 7.03580142173326 -0.7168176478292365 -0.10368873383991821 -1.5064473945241927
P 2.805111901125475 1.4182611489410963 9.409517706432206 2.064711023934199 1.500899211012454 -0.0412302102943806
