# total energy = -381167.6265395131 ev
CRYSTAL
PRIMVEC
9.27995617487001 0.00000000000000 0.00000000000000
0.00000000000000 9.27995617487001 0.00000000000000
0.00000000000000 0.00000000000000 13.58215389426365
PRIMCOORD
 96 1
Ni 3.2718713237138486 0.3483732726767923 3.0898180683930194 -2.1188337739205316 0.40464792883265793 4.103660622633578
Ni 8.068318833303504 3.3183453450233014 3.037051308695001 -0.1746210991844218 -0.3691556494633191 -0.97810703503618
Ni 8.59559667211776 8.203917555223178 1.5856624264252492 0.6790057191877855 -1.6320421844085828 -0.501070468028466
Ni 4.96553759391065 6.257929272365829 3.4583965899909526 0.6051397251362546 -1.89064296903977 -1.993204274143464
Ni 1.681555927183855 0.5052945502599495 10.336575871676406 -2.5313649621560077 0.45952324071429895 -0.4381411754940971
Ni 1.205911765399511 0.8917397717834191 7.120512349350493 -0.07399506343022741 -0.49721149929369207 -0.5109067373925976
Ni 7.258754002833451 -0.0018847591309803975 8.52599328764703 1.4579139657001794 -0.10948168637261145 -0.8899853023965834
Ni 2.439282921584699 5.706245148399047 8.460459164027775 -3.470589204084062 -0.9511515894932586 0.488699605167939
Ni 2.181300135561779 8.578233873821038 5.2601641435007895 1.150127206262645 0.779151987092084 0.5610440203686209
Ni 3.061912311707785 4.831952622514969 2.341468469865419 1.2210467160913423 1.7308607346403933 -1.947256603768756
Ni 4.586553457277915 7.9943390214267165 4.504412851802977 -0.562753803970876 2.9800456037288487 2.0061065840274286
Ni 6.3195853022340405 7.089134961001547 0.7850360498939464 1.1144276959785067 1.8796898124623758 -0.23224774855895486
Ni 7.970749372431384 5.6557621859542735 2.2563629183424836 -0.14693160368895342 0.7747998807709753 -0.43347642302857603
Ni 3.965492379774896 7.040396630347145 0.9944187766118076 -0.47228542547597374 -1.43648459218181 0.46534781781587603
Ni 7.783804652128084 6.158856458567962 4.725299012389687 0.5339137398107321 1.2155553539594677 -0.4660186186306555
Ni 8.214032707624796 8.919541387746827 12.659668172013673 -0.6820072250182706 -0.1397451132428432 0.22790078444416884
Ni 4.97619098377951 2.563281698089672 0.7509461303092272 1.968865183177467 0.811823509183176 0.8522949869346611
Ni 0.7497397359860983 4.053095167546708 0.5298697306177155 -2.3766920239587392 0.5491940630085703 -0.02473144130840902
Ni 9.131569830014874 8.352981493780234 5.3089785697971115 -0.7854586460364021 -0.6217480231168969 -0.0819377153160718
Ni 3.524620214365656 6.0442211580017355 12.39622877166768 -0.41895123282920754 1.814044149438108 0.8856913030069198
Ni 2.1248594411520165 2.8061195953791604 9.487039485298562 -0.9546847994574976 0.9733924031693301 0.4960154221030619
Ni 8.50483869919315 6.465410536031313 13.473198327824289 0.019605175825437204 -0.613052295115112 -0.3839160956019453
Ni 7.799487778328758 3.984850368682947 5.404923110315543 -1.4879879022674245 0.10656399850518422 0.21809305432512763
Ni 3.4614979513970265 6.52667680773359 6.566074862340076 -0.19857118224211606 1.2587108063010193 -2.1030957943599846
P 3.7620757369827236 9.081931343596292 6.7502216758093505 -1.0339529383612065 0.2557594585276498 0.18947899013286076
Ni 8.622768384257151 8.298730869064766 10.400303187797865 0.8650617996820265 -0.9975049799468176 -0.2628904131454763
P 7.666747282959267 7.236342908292251 7.325480600841336 0.8158326303425693 0.5436044847359347 -2.9476602454196073
Ni 1.6538459775772203 6.3199286606183165 0.7979825169723843 -0.16216281881641104 -0.5375289679658162 0.5381951407949054
P 0.6470579471708103 4.46470763064191 10.995840673406013 0.18237503209822784 -0.1679118054850463 -0.7292625584608086
P 6.533998693279349 2.178367669360943 10.431311233884808 -0.3053110442035323 0.08287333975646372 -0.6255087757109098
P 6.910653560872812 7.1337251511756525 11.766709013968262 -1.9224405731663405 3.3468803183684743 1.441231619948492
Ni 3.6420023820060847 8.909491195039532 10.778213633483015 1.6793162869041984 -1.538091760902351 0.37044737169154907
Ni 5.87348852141002 1.9667011453898358 8.054665233552587 -0.3878431985704933 0.7110658329471237 0.3619568177220347
Ni 6.224920467693761 1.7683791986237989 2.8694070415704953 -0.7409826751112142 -0.06753542384781272 0.1261295793419376
Ni 1.4905558659635767 6.352751866163751 4.981811853329657 0.19072983182082634 0.36902580875367413 1.1369029942628872
Ni 7.8869420867992615 3.405799653493805 12.1981601677095 -0.4340209826781364 0.01526746768203177 -0.06902872056388756
Ni 2.8801365270812758 2.5444248268235365 6.917607960147833 0.598426574782137 0.5656869184572708 -1.0616640311232297
Ni 4.072638755581393 0.9890763057516135 13.126553911012103 0.0015269781674876928 -2.3422932347638947 0.6633793255044381
Ni 8.524317327533513 0.8118476997276667 2.7370349604673754 -0.045249101645786584 0.7807892655851908 1.3939318064212638
Ni 4.9407601105048515 8.442932110503982 8.604335606995377 0.040275302580279025 -0.10803466951343975 0.5559797184718361
Ni 3.5724305493868824 1.9359009703247252 11.218112331473055 -1.6096910704068923 -0.02776302904588122 -2.187160326211072
Ni 2.319710684249975 4.112988005711885 12.544871400207272 -0.5457390145804344 -0.5068590496857851 -1.7573346125612057
Ni 4.824259538715941 3.4415831651090705 12.09996059780245 0.9146113284753797 0.5206519897048195 0.054329209570183855
Ni 5.870240536693904 8.955510498488728 6.534401443384148 0.894029647669286 -0.4551451662512613 0.3014109378181777
Ni 0.8333744144304496 3.668598736852908 7.717067846168233 0.6066685030759551 -0.48909041284845445 0.8358260427453607
Ni 6.831170734891291 6.6748962702644565 9.019609940859093 -0.8839090142955164 0.14329734937047578 2.9476623023021364
Ni 4.682935083739571 9.05286652036522 1.9003067698186276 3.9958282989389318 -1.0428718381173911 -3.464527314160698
Ni 5.549237567222004 4.04903982662973 3.600832783735866 1.1282684585163407 -0.5593501776059656 0.050180220398816804
Ni 3.8374661022219394 2.5960399439407844 2.716322097934887 -0.55308851296697 0.2136419605323095 1.14840945224059
Ni 1.4674580546538267 3.3481896845862407 2.466192938955536 -0.6945477806874426 -2.1888945352933593 1.601928652852654
Ni 6.693808821268584 4.878955601335332 7.561252739379823 0.6031540621647935 -0.6775918695593943 0.24062491687905654
Ni 4.474822783043528 6.1310351494853474 8.511433036162499 3.153274193441118 -1.066597206758789 0.5793916696378731
Ni 8.5544679056554 1.4266076868814206 10.7586412775837 -1.051653440964763 -1.4180464400812804 0.39450621241296574
Ni 6.845174188995916 0.36803007617872574 0.9703744097562182 -0.28359704956520837 0.8339797335652411 -0.3740008933707623
Ni 4.960183059107225 6.514269506118029 10.795721199098512 1.31560109173016 1.3924323390576019 -0.40932913635841117
Ni 8.266882058934167 3.437926862314357 9.387346770417736 0.12323400296169745 1.0588088210626219 0.6554284460884776
P 1.4318601421651964 0.9683912830881212 2.432292330479984 -1.501601379285801 1.7657382632438687 0.1824544791859116
Ni 0.12099578263601583 1.5588377846526644 0.6828674426638047 -0.8622109604967926 -0.2308009888100993 -0.36063115693207565
P 0.11944510193297878 7.1772017465899465 3.3312407723419146 0.32194325344357455 -0.3908704154325913 0.5907754859947826
Ni 6.83496623703098 0.07474355228289224 4.530585112645439 0.7089469868319082 -0.5165515943832008 -1.1207207280760698
P 2.166294446173324 4.71799475876096 6.3329642152775385 0.0021103614747834624 0.13868093364438694 0.08587664535916179
P 6.668984938081126 2.19786485761397 5.281095085007073 0.01225284922542406 -0.6447930778618186 -0.29515235850297555
P 2.0409686359129084 0.6234534502453464 12.495051954640221 -0.7046748418191153 -0.561526359321678 0.06692890061206538
Ni 2.0572271194061518 1.7312686532530919 4.500894820357607 0.036358484024376095 0.10899291966165099 0.1980659604709234
Ni 3.5458434744963907 1.14979586946136 8.788550164145875 0.8030935855093458 -0.1567583599713881 -0.5842148020581294
Ni 3.4317185715284095 4.620796496142108 4.50791696331385 -0.5565391905197319 -0.33728991110297396 1.6625280117022656
Ni 5.805067403375956 5.028817616136919 1.2450295653247778 -0.7215461636531574 -2.2866149673649843 0.9163293396077509
Ni 1.087815041121537 7.784621288285279 12.71953781028802 -0.17670446407601179 1.5187076999487845 -0.07052613104502048
Ni 0.31903097875140124 4.9054591566188375 3.759988674803711 0.11668077522421196 0.7351419000597209 -1.2829511669056228
Ni 4.888244837623423 8.26514670710013 12.751048830008143 1.4695268673487596 -1.3022922904363958 -0.45960320202261495
Ni 9.230122966258161 5.510428789842584 6.84281151211385 -0.8712357897032221 1.2399204130673935 -1.2748043694287723
Ni 2.5163065591383043 2.090412243248524 0.5853842853855684 -1.3612592558889074 1.1116737873824531 0.9466981817075953
Ni 8.968353958051884 1.4593195329508735 4.988901739967122 -1.1351273904197032 -1.412500827672703 -0.009991821105389244
Ni 2.5315164075660586 8.296494399588813 8.60625006198662 0.7465465423522368 -0.6205465466096282 -0.18174125516897088
Ni 4.6546590567966994 1.294887986708423 5.073327998686572 -0.8686423179444329 0.24291345580291718 -0.0019434968796160077
Ni 1.9070031863076256 7.01484891056581 10.803109900329861 0.15262222631582748 -0.5494648001714537 -1.588891874273354
Ni 5.2209683919423355 3.736834255760337 6.007128244548059 -0.27282592709163334 -0.058880576386292134 0.6144964837608062
Ni 6.219686572322648 9.013380306173582 10.538637640844142 -0.34253033356630685 -0.5045643401143375 1.0281592144975649
Ni 6.325700793456671 5.104347180721112 12.552599747840361 -0.16899552546752827 1.365789282548777 0.05421608103108727
Ni 5.858501391934228 6.307363599745114 5.863266649510587 -0.6723360204770937 0.33436990924270155 0.7732844725677134
Ni 0.559815221704671 7.761217238416581 7.733270649923486 -0.9737117341819618 0.6335802398651347 -1.0918374693828163
Ni 5.925873874902804 4.211188503614566 9.959209231432297 -0.16798328215293007 0.23543257404483967 -0.4170678997635656
Ni 3.5425026902169567 4.6561902495914405 10.467725782530632 -0.6638122992767987 -0.2811619577611545 -1.3409272291997745
Ni 2.2107083171771253 8.739046237094101 1.135698687797784 -0.21302361022202024 0.0079634778214508 -1.2367736399082958
Ni 0.6386809305901309 3.3818944859831914 5.2970538259108 2.593353745153979 0.8082859283435627 1.0504643057526684
Ni 8.292123540156554 2.339412031542301 7.197645490388813 -1.591657095723317 -0.4161225051311607 -1.2689684794732856
Ni 6.126023973066197 1.3417053664021508 12.365695859344923 1.5822897955758037 0.3048808986446491 0.0405565812661237
Ni 8.135858355486052 5.779714562677587 11.07776783988532 1.603582386405993 -2.3466417415405783 -0.8956286167252898
P 3.890194814098998 4.4885849582835275 0.19303237165693377 1.546581286430601 0.26260142115014773 2.6001049478348834
Ni 0.025532871851203672 6.080088189223987 9.144416073564928 0.5001983498361579 -1.158452952519521 0.5883249675717609
P 6.337950335814594 7.922205920859947 2.8376649509377114 0.2008095846543316 0.40651609238964825 -0.03718406524946499
Ni 0.7269528032134623 2.502395904596997 12.14755285384988 1.5050091194157693 -0.8736626539771598 -0.22688545580577696
P 0.025354696689633884 1.4602289686713859 8.799198914036568 0.8145812744339714 -0.4008164709017097 0.5600515745483645
P 7.4978891975465665 3.069633235375809 0.7692304282696932 -0.35543804276691043 -0.062283174309937905 0.6711975359972763
P 4.157290517239706 3.673266554887783 8.264292951117607 0.8946721663492915 0.1145498449241382 0.956871008475539
Ni 2.6228033380015794 7.253779946239629 3.1655926238243706 -0.1776460020536747 -0.3430849205181963 -0.8606618708421178
