# total energy = -381174.2751723085 ev
CRYSTAL
PRIMVEC
9.19751523735253 0.00000000000000 0.00000000000000

0.00000000000000 9.19751523735253 0.00000000000000

0.00000000000000 0.00000000000000 13.46149324895402

PRIMCOORD
 96 1
Ni 4.805343033469521 7.23675218671318 12.14328996235761 -0.9803269255056342 -0.745403172776413 0.7147399393646013
Ni 1.4359988639775272 4.093087449776423 3.6130921208251894 0.6070264006360062 -0.20958295997158743 1.402997516167958
Ni 5.003586277928729 5.403144736952432 8.659859813266841 -0.3018313131850479 0.17689164038615343 2.326144392918174
Ni 2.107583035079059 8.537786711394316 13.74081926878157 1.5213752194786185 0.1381237755893363 -2.4184660225717316
Ni 8.556549642576314 0.4347380352384207 11.680914313438413 0.7849012308710354 -0.7800737275754049 -1.1925882036403332
Ni 6.492222521883988 8.325839169160023 0.0860298789725176 -0.4882866860002365 -0.09627804319814387 1.1421945816791297
Ni 3.852839153009282 3.2107974010041116 4.660665198280332 -0.1807575510994629 0.7799433726451277 0.2599552417765523
Ni 5.374430094231747 1.1934511883890628 5.848871043702192 -0.981470037971142 0.47503470608633674 1.461365928804522
Ni 3.8746280667201414 7.846722202918533 3.6368373460372307 -0.20282661508436037 -1.0166558418436555 -0.5850748360655795
Ni 6.293059525896251 8.800099847330875 11.134647207850527 0.6240866985524026 -0.2175973456356317 -0.8034054603228099
Ni 5.130622359049197 2.53280256174873 12.266637839848677 -0.04269471065504905 0.5762294698598076 1.2240785609391307
Ni 2.607495583380595 2.5155572205888057 2.4770766561381965 1.3297984662764646 0.19921498647370206 -0.044119616027033695
Ni 7.158030653386357 1.2768818495419567 13.169002385482669 -1.1429013779381672 0.7338218956967169 0.5787697197831579
Ni 6.528056041435491 3.3715055855840377 0.5385917790823078 -0.07524539089756073 -0.10194269768308896 0.011501572881696322
Ni 8.791261035141709 2.386470093559717 9.802618896161011 1.7846808657846425 0.9643223225472617 0.1132115857286889
Ni 3.7450994589573585 5.690659064770694 0.3598389892641648 1.485313697869371 -0.4052145999694054 -1.658381079413428
Ni 0.7877809804582825 -0.07560357564510933 9.52598522892525 -2.016939155866559 -0.5824499968482226 -1.432343830540559
Ni 2.9540579593304397 8.106349664391788 5.82135575697471 -0.38714514406220424 -0.4946676498259159 1.2887160944138578
Ni 1.1588961234622166 7.742808675225292 11.610107242014584 -0.12542921084080333 -1.3024488706189183 -0.23713695833045612
Ni 6.697446680444735 5.140592465618456 4.950854163543558 -1.256179041018101 -0.31967245513152687 0.017682247771111482
Ni 0.787533567297108 3.1402800513117692 11.972046024018379 0.1009736489016003 -1.5164885808102786 1.0609839743370695
Ni 6.332194953435174 5.746377612369 0.155030558394315 -0.9508127180966014 0.24491325984176532 -0.23515720889626598
Ni 5.4706912892076245 8.111343915191702 5.31671108705889 1.0221137796344333 -0.5378565265085641 0.7075693897580911
Ni 8.864188133838798 4.61466934409011 0.10249343133319225 -0.9706855457611284 0.22215385465806256 -0.9375823354492563
P 4.157745982232034 3.550636393280407 0.8520007914347845 0.28325072196938317 -0.8100265651837534 0.16699803542152528
Ni 7.730879497900267 3.2067504942785825 6.533629735698378 -0.468673025534367 -1.219572959759293 -0.6925376922359492
P 0.8816315066778847 6.412535249452209 13.570396668557315 0.005610918428874208 1.354846153273712 -0.13381949178702762
Ni 8.906248371238444 4.882905679870398 5.103777571186012 1.1635123693202993 -0.6849799344933493 0.9867582829532748
P 6.166133814959207 8.04801902245246 2.7627560796570427 -0.38429430487697047 -0.012396573892139941 0.6395619113698663
P 0.08601332344500406 1.6643087859043582 0.07541778583634641 0.7732826727955006 0.5197600740181694 0.24112396800266217
P 3.367155160854094 0.9641295397808498 6.9344730876074365 0.3830306076731984 -0.6586531236733625 0.5893518661743785
Ni 2.4426853069834285 6.166630480784613 9.365605395641008 -0.2567012536156289 -0.8609637183532528 0.6583435628527436
Ni 7.06997364204496 4.284966013658208 9.342666792519488 0.018823817574722422 -1.7287069215221842 2.0682362634786378
Ni 5.443825347059283 3.452839213251885 2.720016145877814 -1.3577512427356486 0.28243696781883615 0.09710079620975536
Ni 6.6250622351494775 6.099874914843956 10.924795779349752 -1.2139900663548768 0.3264591390360571 -0.9006571802881327
Ni 0.43264744001407357 0.5219525541796841 5.442858688202799 0.1247542962609658 -1.4409050898470088 -0.2631783766995403
Ni 2.04077228404669 4.240321274463396 0.7390525444767995 -1.2689383975662984 -1.1982250902111364 0.24553752368932552
Ni 0.45314226332429225 3.99320243377814 7.73718163537375 0.5573539731115434 0.1220978324747252 0.2015570043433174
Ni 0.017549778915867776 1.5918967480632455 7.73267209362937 0.7754513983120452 -0.08146437522407905 -0.5438078589959925
Ni 3.2746925396910425 3.8669757340027777 7.8708675200454845 -0.2909730303143053 -2.420513134908748 1.2452073724979458
Ni 4.191730801211191 4.907058355009577 11.467563230371582 1.1796542691874845 0.5859981192107973 -0.6140930776748005
Ni 3.131018153419479 5.836697212470579 7.09255078281577 -0.7001070199427749 1.9882392168287046 -1.2241166132659176
Ni 0.40581552867228804 5.593965586576408 2.1826595930983212 0.30303793189863937 0.32339849783286234 0.35549743524993616
Ni 2.8748949452699217 1.0164266116930263 4.703782230186257 -0.008740465196791398 -0.11869060656538913 -0.5702647676359405
Ni 1.7007217489188333 0.7945439134475585 11.308206160787066 0.49815740814672915 2.211885082651262 1.6754033250030371
Ni 7.321332537276736 2.2965551841306913 3.247813721021302 -0.003195624119162238 1.184709829333521 0.40165336498070825
Ni 2.2900157507628482 6.82300196160427 1.747664947183441 -0.4573941101864381 1.1957195501804634 1.0414029668813485
Ni 7.984114686250242 7.104767842369224 12.53873529254573 2.688327210608086 -0.0964366802631952 -0.818061776783404
Ni 4.9916662981189885 0.8892258950489513 3.5473455223113284 0.6962560216278009 -0.08171351512040766 -0.11620434980842567
Ni 1.917093296005354 5.3102406350556866 12.022688462930732 0.27682244984553617 -0.022769689596347883 -0.7212777404831191
Ni 5.092940138925352 1.2762564185025567 1.2887080146957866 -0.2552244119597863 1.3037189955805935 -0.1184610070530863
Ni 0.7205581807411322 0.97307872215344 2.8118367804739526 -0.8392206702492063 -0.7642537298240129 0.31629248291570045
Ni 7.235151819053539 5.223222942941528 7.478532789526851 2.468695093930613 2.4419972729244526 -2.057591125059966
Ni 7.824620573687975 7.497023474256404 6.051667977979149 -0.10997019597325577 0.35360741731607487 1.6130903258964284
Ni 0.8081737113488343 6.499120658347959 6.724433110043312 0.1363188611701136 0.6399277793497172 -0.3829496179236179
Ni 7.787214279022687 6.993652660207598 1.5534695292012908 0.23412311120479679 0.40372953078344664 0.7868490986260255
P 6.057621529623319 2.990654872650621 4.974600308507128 0.05856998712440881 0.6911181861806033 -0.5776080953748891
Ni 7.5868556060478625 0.3946561833766419 9.181209930195338 -0.2080402980748159 -0.33892770381671306 1.1088273190725937
P 1.7815587107612747 4.507775821444433 5.899822519128131 0.3995319477623313 0.40576198783244316 -0.29010579721800356
Ni 1.8141547049323534 2.3853296016643406 6.323388332549506 -0.09622302159049234 0.5203110614256329 0.1451454583228081
P 3.432770234899375 8.880982796749743 11.122168019111443 -0.47352418297908117 -2.6380873406159275 0.2540576453451947
P 4.6825010193191465 3.3907835776220123 9.822285943095554 0.3425920400421777 0.03291012046445945 -0.6217462233446841
P 1.2570152165257236 3.9916204611490698 10.034453305945165 1.1473234182652627 -0.007459284491522637 -1.5944783672221958
Ni 9.263001594124393 6.011670743257994 8.816860479435265 -0.8859687250380226 1.0239032674346882 1.08510297887246
Ni 7.566786627695352 4.642620593042116 2.1269833540703282 -1.0639535984883548 -0.04064399877360742 1.6237424062936356
Ni 7.253473269501843 0.4847311295716314 1.9625915646186418 0.5883792178484641 -0.3660973222529695 -1.6242054619729833
Ni 3.304630451944672 5.029136975391273 2.6286930968586106 1.5877929847822205 -0.5563993225077578 1.1956146491714827
Ni 1.5085580620632046 6.4077801340497125 4.300381969027888 0.5721020779549953 0.38189572273780675 -0.2985549564266213
Ni 5.751629393596902 5.89117409550537 2.7310540839716944 -0.9760085006359384 0.9903611698131846 0.3904050457603986
Ni 4.530318931408687 7.312696070423845 9.799011630666117 0.08787619228769382 0.5752329102744932 0.7835742845294957
Ni 8.915013603305328 5.12100175806078 10.963309454855388 -0.9622813808578332 0.5478830575066307 0.8697062404325732
Ni 2.9151892597347913 0.1714012158506082 2.1874119492462323 0.2870058181364412 0.553200355954486 0.08038014102096479
Ni 8.20873640454767 6.6950645239858435 4.049338548570398 -0.24479087533128813 0.8764852110276196 -2.4046831098550263
Ni 4.680413183349385 0.2501448232141166 12.81493759631461 -1.5160059847469052 0.2072453129773463 -0.7861942386508459
Ni 2.2692937488250826 1.8119197087180272 8.819822079357131 -0.04039280199474979 0.6050602780485709 0.34872232130963166
Ni 4.531533003426345 1.1260793889242908 10.174667586966402 0.9844257781653563 1.371517700392122 -0.4740222056614224
Ni 5.431932959795399 4.207927625628593 6.92888651682315 -0.905580328621363 -2.4307314702026463 -3.111215573708171
Ni 2.838656735045867 1.690852815017714 0.12809655463286268 -0.31732940882064703 0.6259800589203734 -0.03991869057180867
Ni 9.178632786412399 2.517654254073852 4.532619229981538 0.043211245280151384 0.7528285187062066 0.5277644323798847
Ni 4.4584955345458335 7.653969875084646 1.2749880811447147 1.1150933545869635 0.9678519329670752 -0.179798015399671
Ni 7.4203253942923455 0.16346284040787173 4.1567747246179065 0.14577974947269734 -1.1267203973029305 2.155868972296958
Ni 2.796863225589495 8.657198052343277 8.72712676105736 1.1382762204613301 -0.4337607870382143 -0.8218042745449717
Ni 7.374107879983747 0.5778614903443952 6.932332825800549 -0.20514317903267895 -1.170812245415822 -1.9128184766955445
Ni 6.891072772230724 2.12909602333136 10.870061365886972 -0.9767708327232597 0.5807247866269999 -0.18603911121337638
Ni 4.39659625667581 5.925158914484528 4.941054211007079 -0.3258392460638711 -0.677457400864059 0.23631343398789625
Ni 5.205177417951783 -0.13049250736468154 8.372833873510228 0.3314697048767711 0.03982150287231207 -1.8370539800697199
Ni 6.905282933346502 7.286823459926316 8.538544586653824 -0.4309886236097158 -0.10871164097580631 0.15311922055690405
Ni 6.2574743392574526 2.145200872595908 8.221539345824798 -0.7467843693946559 0.9164558378832862 0.991077736264235
P 4.8777550713106335 7.0246114966578945 7.211295303906546 0.7687883844695729 1.2748372795492369 -0.41938806325630995
Ni 0.029231543079718546 3.099351108292215 2.0453793194530934 0.488207753133185 -1.0227079615750063 -1.3808464339922155
P 1.675125063879863 8.527237161362084 3.885700035620577 0.12059065180157942 -0.26003803129834574 0.1556360734414868
Ni 9.242767060496748 8.862725728908437 0.8444156005790033 -1.5448403924800944 -0.3411097990696964 -0.33832298035317865
P 7.12394466173906 4.350093619393369 12.093643614350656 -0.09163951598486798 -0.9655610800503694 -0.4178942523196029
P 8.396816394616629 7.707747746957755 10.133300842219269 -0.26386768945708106 -0.717382519193771 1.3356744654412673
P 9.43701858332214 8.62088626199694 7.307410258389387 -0.29966490166134846 -0.6844641711991953 0.08952324097281357
Ni 3.12429476974593 2.7521449062724 11.3483349199768 -1.7394065673278754 0.723108880154587 -1.1521576064291124
