# total energy = -381180.4852375975 ev
CRYSTAL
PRIMVEC
9.09501804716426 0.00000000000000 0.00000000000000

0.00000000000000 9.09501804716426 0.00000000000000

0.00000000000000 0.00000000000000 13.31147825054653

PRIMCOORD
 96 1
Ni -0.06042911788767838 4.750900831877629 6.771842002358286 0.24326672537727786 -0.9973725681340113 0.21573483850559622
Ni 5.195729062028506 7.873920791077733 1.8302486588140034 0.9233345672809904 -2.1372708975797967 0.5078378686592866
Ni 8.12445215397078 0.6716652524279025 11.562802750049416 -0.42505785994757767 0.7211707825916096 -0.611742832275069
Ni 8.628216100071233 6.5191542107227 8.405825632042315 1.8012472547837557 -1.020470073383423 1.4624941288716942
Ni 0.6646056995390046 8.596174352032598 8.275866011860982 -0.275272588859913 0.7346384780607412 0.13812069026554277
Ni 1.2868722717804084 8.780339369357122 10.664037629327368 -0.3303474183468698 1.6385889843881651 -0.5822939308863325
Ni 7.244627408011848 2.7272229705128304 10.754928690645587 -1.0946682539633923 0.7049774606611988 1.1709901657545834
Ni 7.35303092628391 8.79490049300454 2.3873339663183994 1.2975164663143075 0.6407075949385352 1.7038980900086205
Ni 4.318359970900805 6.181847282108221 8.539246816033899 -0.17636482134840595 -0.20987529440102562 -0.5322906023850122
Ni 0.13310103936173343 2.752225174701932 5.2304256457902385 1.0477859875895568 0.10140970799775438 -0.5357968157660579
Ni 0.10168320955059044 1.8357475066323847 9.728614129483969 0.9925363230876325 -0.42642491549843337 -0.7805966899584105
Ni 1.0761225171533224 1.7371938927389314 12.32234224636028 -0.847237884126728 -0.11992807851691602 0.9459116812505581
Ni 5.737073622064704 2.4341269238784244 7.811814551890502 0.5369337575839785 -1.0146310981041429 1.6698489708437114
Ni 6.645656814602734 8.116766863850813 4.572439300274089 -0.26660154344847636 -1.4121745546815356 0.8537047227979943
Ni 2.1059059181395035 6.866793079664142 9.21893023623667 -0.2540982687751431 0.285907699976256 -0.8285580483290376
Ni 7.986508017580784 7.1109215499602 1.0472994959471815 -0.975511763505178 -1.487149208416213 -0.8505420087992963
Ni 2.429624890021165 1.4917375498304302 4.231971852941634 -1.439355743082018 -0.5468188779081744 0.5435000979475866
Ni 0.6372042296296104 6.250851182865846 10.929309287720335 -1.6229471640858502 0.23884314238828547 -0.03087689208451457
Ni 3.319854336450208 1.4331838246323816 6.6697422409881755 0.041195243291387115 0.487541837414412 -0.2506074820130652
Ni 3.1652663173151927 8.910234414911413 2.608943172310268 0.7438119170298931 0.49596528559141684 1.6981156789988885
Ni 6.979780486954506 0.6880071805788583 9.28210695902996 0.6055081642192668 0.3891539469621169 -1.2103624969046185
Ni 8.160050054005755 5.072155053910164 12.724588512235803 1.8250057906559343 0.31194346191838535 -0.49966715992303623
Ni 4.9936650494896675 6.254143579343276 10.865680542537739 0.7954697504155009 0.7760751479389731 -0.2841027855570333
Ni 5.284514626704392 3.94231736107811 9.540669222722928 -1.7406242417850604 0.07773036210294355 1.92021245516677
P 7.590283563052518 3.1886223232655793 8.780490346654153 0.7312955297304372 0.4296907307338987 -1.1225593239467055
Ni 0.5683094690867062 5.666459903139938 1.7924433979362884 -0.2950217464623822 0.9266356066297653 0.8855519492155781
P 4.044099706323739 8.254547289918728 9.87018172100272 -0.7964601393532282 -1.3689093162349972 1.421046660360185
Ni 5.550534805069989 5.227170538886172 5.171203436777021 1.7321887094231974 1.0376668968776839 0.2577955151210722
P 8.398739703601528 4.841396259917483 3.35981693557225 0.38213637799370315 -0.5328045659069532 1.1607090955435495
P 4.214267491110239 2.6041582833965227 4.752823518660304 0.7560105159786141 -0.08016699656889419 -0.30290577719614936
P 1.9952650254656514 5.246006320943512 7.714494222423402 0.35577202906756145 -0.18110233603339132 -0.43816765785665823
Ni 6.956169820503103 9.208523716762981 0.1385434980691755 -1.1592960172461066 -0.785286639234912 -0.3006421779729532
Ni 8.824050025353056 2.316573817605548 2.7937994109946938 -0.7279644084746754 -1.1696987006366695 -0.09846450932650139
Ni 7.065219085045601 3.3801815901374797 5.797987504406103 -0.5689781876140331 0.9819608615646315 1.660987406688023
Ni 6.233124992991507 3.401900492867045 3.6150913502967335 -0.7100291641524933 0.1426957112307349 0.005106467988629915
Ni 0.8988569804027722 4.166473172080146 9.447754519923414 -0.8269662783618854 0.5448239589653326 0.06933828138450639
Ni 0.9613161062842691 0.23343636726051414 6.083811174732905 0.5831881605658279 1.5467316959655364 -0.03857554628035292
Ni 7.1537681792562555 5.229953614361568 10.317433773422202 1.2189677220751265 0.37228442490028785 -0.5436577065713734
Ni 1.7543380014680898 5.61291753280118 12.881530322001643 -0.5356106678971808 -0.29562158482991024 1.0552730399952213
Ni 3.1798911060878647 2.8458038138076667 13.139294043123565 0.14125357946756964 -0.49971292555930713 -0.4081906518785937
Ni 3.915050497433539 4.919258708103331 3.4764923726184076 -0.5924726711915473 -0.19598619512375925 -0.7697232375790163
Ni 3.005303142605147 7.930946553269681 7.199712571646822 -0.5144959974057527 0.40058250051403266 -0.192440643864346
Ni 0.7524581153790215 8.41118168807977 1.9790304185258385 -0.054757041136221825 0.45913577546789314 0.8940401891922474
Ni 3.3671484294961624 6.040938169884958 5.68909922168032 -0.5894359412477527 0.3703524979848976 0.49391817325440096
Ni 2.923211511098843 5.223123255923586 10.730195698986133 -0.20356940678765587 -2.1550122807236174 -0.2922254146641677
Ni 2.058866485594566 1.5327106054404345 1.5971506262191255 -2.0150470810501684 -0.19476826355625812 -1.3154578812840765
Ni 5.876782191926031 9.01156200926237 11.053678200402564 -0.7654330948440946 -1.646260384890494 0.735231888670366
Ni 7.712365988236333 8.506024534672695 6.741917574485248 -0.09036990524382502 0.05757754130415245 0.14893063639685317
Ni 2.4149364361232393 2.496164040929665 10.589866848904473 0.0642076450261604 0.5787933739322418 0.6856237387249353
Ni 5.596310030127737 1.8694991180349878 12.413685330067803 -1.207291828399095 0.4841940039881016 -0.07615813251981723
Ni 6.598944802701961 7.248483695598672 8.669140042584612 -1.7134798201597843 1.0283569323306676 1.5374970647411457
Ni 5.999201132771904 4.5744665797625395 12.351414471056703 1.082593325076729 -0.9971889913682956 -0.6951139376035578
Ni 2.528651444845078 6.882145469868291 1.983184113197778 1.1200787236166967 -2.6107338883036393 -0.4974817222359432
Ni 2.627477909275335 0.8213856179863421 8.827493399127517 -0.7480858618148987 -0.2760297787409117 0.34147181039480545
Ni 6.470595910189557 5.991734123081379 3.0860268834202755 0.15903584315165514 0.17492448935745358 -0.6658182739632339
Ni 5.441485540527491 0.5759247275688941 3.5221502719453293 -1.1513757339577653 1.3865671385260765 -0.2292714395394503
P 7.515622561165165 6.39418866486666 6.461205304214567 -1.3253651130954593 -1.367165594071013 -0.23669395725576653
Ni 4.774957154205811 7.731065345025272 12.782107224397576 0.43703148736968606 0.02231280456458738 0.8929983781912942
P 2.8417474358271866 4.227082371322114 1.3566792626180257 0.3445167678687163 1.6101538689759238 0.9327448048512967
Ni 7.624344405063498 2.4841404272745207 13.14515123464695 1.5603307748062094 0.5341821629807704 0.3273335712212105
P 2.566259343834505 8.489662597482374 0.4825634593908129 0.2521277753123335 -0.03887919356370079 -0.711634046745768
P 0.7581115785015917 3.871112465990269 11.852766472521317 0.0946533631105273 0.4359829915005136 -0.7223699451060334
P 0.06760781551098058 0.2340202674092738 4.158012986435655 -0.1140065708261585 0.4176805936469 -0.6477305632235877
Ni 4.535185197480717 0.7060307775383136 0.9657772125610078 -0.20543782745496234 0.7597926087288657 -1.838624152770317
Ni 4.59209272444005 3.732113307524632 6.542897664435348 -1.119747308419207 0.6137709184486914 -0.18735037382563216
Ni 3.0241480196803807 3.2488768168097035 8.472422991065335 0.9760709784427577 0.9399063555967425 -0.657290696108197
Ni 0.4002708279890636 7.057833930516117 6.219588877860682 2.157921483950613 -0.5401687195815084 -0.1946127118150003
Ni 4.8229697536653475 0.18111363882127018 8.304086033380786 0.7009837661207733 -0.712019969330277 -1.8995803807387155
Ni 5.2675887984046765 3.399071942302181 1.138211475806556 -0.9835246065073255 2.539725418305561 -1.3352242652777262
Ni 3.9793340839044626 2.2347641316539413 2.56562724009091 0.16627735520541684 1.6043624591051273 1.6416845925943535
Ni 4.728236047287144 1.5919191719268115 10.115445249531877 -0.7030591605925635 1.8000820308310612 -0.08860381448233771
Ni 7.184700335111888 7.239725193367277 11.861711422619528 0.7528699134671034 -0.38484812049791134 -0.18408995790680552
Ni 6.326958292598259 4.837157981579133 7.887543308878547 2.07097037458035 1.4689689379627602 -2.14638314429371
Ni 5.851434377056978 0.7742361357248939 6.313474019069425 -0.722622941657104 -0.2616459992154139 -0.6827309905581725
Ni 7.312112440781267 1.4029974602440123 4.767079959208292 1.5121639852929958 -0.9197594483352224 -1.4990613864727669
Ni 0.6480900565462838 3.6251468020797346 0.8973808589986648 0.7683412696298252 -1.5004994044708737 -2.3355158068307453
Ni 0.3127358282735282 8.413246257141584 12.841023840809571 1.3453245869365218 -1.3325215216345825 0.754198916691172
Ni 1.9401583120492218 7.774348535180213 4.368135184828093 0.32229009526003205 0.09242704488316986 0.09611503525771833
Ni 4.105572932265586 5.340649077142781 13.213704932018848 -1.2954462140488399 0.5841430682799295 0.38967356691101274
Ni 1.6786856426303502 3.5625548889369933 2.9690986048766796 0.9238338755149121 0.3197580728667977 1.7442189011148541
Ni 2.441057327513235 3.7400532581456156 5.550221026952665 0.16168382229746348 -1.275845409098777 0.9749558910017081
Ni 8.764413993025686 7.178997758892693 3.929575241009383 -0.46838197665650944 -0.7232176378183094 -0.9075605922761855
Ni 1.2454990353830921 5.2617225118633995 4.560605772492917 -1.658395220480815 1.4252663548684874 -0.8773236477685149
Ni 1.0392331245774784 2.565004231365209 7.43250410213869 0.7008598389483994 -0.15979868945960865 0.11007149743781043
Ni 8.089945656083021 1.5437155770915123 7.295608621311808 0.21593204211806685 1.3553937982470656 -0.20354138176319783
Ni 2.7999831136604523 7.417087137307498 11.5125518666863 0.6357844466053051 -0.6991318005136992 0.9036643425455728
Ni 4.037551293440453 8.833918119767452 5.154084794097965 -0.5622059018872059 -0.7566466069007162 0.5756265461684862
Ni 3.36798517114236 0.5838901442399801 12.031672750499848 -0.307513965392122 0.09058896323316656 -0.0043140539943216025
P 6.061529290395735 5.880893140013871 0.8973826780022435 0.09419776363034746 0.14543907830382694 -0.5963159561970375
Ni 6.4507323911102565 1.8154747117478789 1.8989624285008275 1.8053219390737618 -0.9100224235531167 -0.21921636929629343
P 4.521142489853227 7.234804788686919 3.843197127569895 -0.14020585492934565 -1.291721714009401 0.02077451354319003
Ni 5.522058304045589 7.287865123077322 6.579411432772193 -1.0471416691373385 0.04609062371047547 -0.024812173947673398
P 4.320369969855259 3.4921594504416698 11.446686656603706 -0.20254687906041247 -0.03499117136320425 -0.6698973291286141
P 8.82775169763569 0.9471278783704828 0.9358382326593402 -0.008484640432243451 1.0321300262198547 -0.07371687006817626
P 8.39895798403097 8.329499332378672 10.050658708571445 -0.6648489680714291 -2.076581293009224 -0.6710242436442057
Ni 7.524044547734501 4.130975317241999 1.4978339403244116 -0.9366654800619417 0.9810766591874652 1.0525582121672197
