# total energy = -381174.1856582844 ev
CRYSTAL
PRIMVEC
9.21763832032923 0.00000000000000 0.00000000000000
0.00000000000000 9.21763832032923 0.00000000000000
0.00000000000000 0.00000000000000 13.49094541496425
PRIMCOORD
 96 1
Ni 7.234832130777434 9.265938731723818 2.9087419100149927 -0.571525379515919 -0.12203818288138336 0.710498390479428
Ni 7.360099835369499 5.820367097292413 0.34171260026160194 -1.0622579559534866 0.4211857785866811 0.5106259729273851
Ni 7.903350566630565 4.37173227860336 9.532095272546812 -0.8375833917560994 1.132575570532127 1.008246791844354
Ni 6.541204848176049 9.16709799615791 11.724184239469546 -2.620440831178758 0.6858597659951413 1.8913965593763427
Ni 5.024543858781371 7.240325843208404 12.30738513691696 1.4630608000084415 -0.33258530653845303 -0.4012761841469476
Ni 4.80021419530403 2.6045635329394745 12.346764731292104 0.3786003398159867 0.3733475760574796 0.5861971225954807
Ni 4.761666031904176 2.4466193005491124 6.554373166261422 -0.712223857810967 -0.37439067261001324 0.9915940137790213
Ni 8.456206077007522 7.278625130373969 2.0381986518597865 -0.9449853127815468 -1.5333601597546367 -0.41726278938319106
Ni 4.256189182425175 5.503639827425752 6.0222370632709294 0.3486107354324319 1.688530863523931 0.039970369745350516
Ni 5.8865681756132515 6.7035458940388475 2.668657459143335 2.108699513700007 0.4426529473215215 -0.5021469889220965
Ni 3.707721267882349 0.27458883634623243 8.49296878386731 -0.5189368067859256 -0.3757991229217657 -1.150937360868766
Ni 4.162860594566849 0.13743314362963652 13.272972385419424 1.598575420109705 -0.24189272784788662 0.15263996692764034
Ni 8.476033217005869 6.6430505338300385 8.350908385807562 -0.17318950894421786 0.32777837206811294 0.6595656081853027
Ni 1.4185115767017928 3.286668767657117 8.365748783481825 -1.3165158902349454 1.7685006564803543 0.25058999851156843
Ni 4.685058239934739 8.750055168596221 2.6719629042402233 1.1507910650988888 2.1129009533758643 -0.9863181100920626
Ni 1.7251270973456798 5.95759007876865 7.849611735300783 -0.18401102503975406 -1.0331710658898594 -0.4775721277962098
Ni 0.6702393689250473 3.1856250165358357 10.599228633458287 -1.1893758673506225 0.09205294937320276 0.994180543559275
Ni 7.368755197739767 1.7477563993893532 13.382060369491219 -0.28056211939362646 0.0814548621423823 -0.5096836636187738
Ni 9.041636721161398 0.1391255020228008 1.3874361526774202 0.47999719229793464 1.111736779409905 -0.9306493557748489
Ni 5.597742696901865 0.6704956192699818 4.857873288205776 -0.6002204334577662 -0.45140138293811294 0.8368321154123717
Ni 4.938275981866203 8.079702422719997 9.76542042924795 1.6422435504216166 0.3387968346658037 0.9297425276898633
Ni 2.769006200336268 5.666745937268031 1.070295932614606 -1.112157668997407 -0.21156245229546145 0.6704886828557098
Ni 7.336170846324539 1.8975706747929455 6.354019501784406 -0.1905423984003686 0.7542541954091397 -0.7188511333194975
Ni 1.1088450177782903 0.920274260349106 9.911284946636995 -0.7873049552165214 0.05134467302056319 -0.6342561828862366
P 1.1350968516766125 3.941895369071561 1.1689449413037294 0.7042986894266193 -0.8789976930368281 -1.1958272794029212
Ni 3.699231823001606 5.608416722061365 3.2688556816288488 0.79756314260942 0.8463958478414069 0.4935764736442661
P 0.8501473898733176 5.030802635191821 5.742056807527673 -0.31027738706987207 0.40235219081994583 0.35071466914931215
Ni 8.151074596131062 3.4249333422620443 3.985494798263648 0.04654930851444886 0.7491256159333227 3.051362091885648
P 6.309703862095866 3.5844445731645953 8.10437527517633 0.5341363973444995 -0.8340581522116605 -1.130264405900447
P 8.992386879687123 0.480696150654475 11.848247198734885 1.2789052789710231 1.7504718240031012 0.12075571662453398
P 1.3937622178475109 7.923988858799928 1.7835835159609819 0.08938003052672994 -0.7001561280131555 -0.4466340434564566
Ni 2.6857248382325674 3.8763487430705186 6.228230078864165 -1.7902933268754138 -0.1536532386835031 -0.5559527218886425
Ni 2.506552384821195 7.158270426999533 5.544603012062038 0.4876472526440247 -0.2581660110866134 1.3793891327203986
Ni 0.049217579740200676 8.37215965092434 3.8492369035181535 1.3534078781652885 0.41907078912620727 0.08035057333461
Ni 1.5544440888150506 8.353991685821253 8.054081075281873 1.5611797530700662 0.2307601082698348 0.260836358829925
Ni 5.372896845679333 1.6226546122868148 1.4374464493120223 0.7216639201779442 -0.7872288505629474 -1.4171869202944625
Ni 4.889984774775855 7.731653617886167 4.694444561022752 -0.5206771865158001 -0.7330292245920923 1.0978687631785609
Ni 6.704928539784897 6.606834432921854 6.484355063917655 0.8838820177123229 1.1118740763187174 -0.8936164713912674
Ni 2.286324570390467 2.1344639792827214 4.794506633664338 1.3049135301093269 -0.9425551060734993 -0.7674449830678008
Ni 6.2230857149250305 2.113521505049228 3.445493284505797 0.38410764278746107 1.702637735238958 0.3369731511935035
Ni 8.449919647682151 8.004274488453856 12.915245982127077 -0.9160927981169127 -1.4480982651613383 -0.09635311941045342
Ni 1.3706628162501808 1.7724227994988724 2.632974137729295 -0.37257804488130675 -0.6256018496453484 -0.2570717495811702
Ni 5.744404540004465 5.7752836283328985 8.312055118579748 -0.39893468049796454 -0.028345383911912474 0.7665101299583573
Ni 8.363826905894816 4.522440664922731 7.155772447018338 0.5110702595536554 -0.43728962612707917 -0.9895268468373475
Ni 6.002295624557576 1.5127342754758974 9.237830465470468 -1.1450546768357441 -0.18115350098630092 0.6507356685984987
Ni 2.5692784135002973 4.504318788011179 10.34102507096657 0.6448704680669732 0.30965080922946675 -0.6780423268332516
Ni 1.2473676862558136 6.092766744540733 3.8910047879786407 0.3168792086571059 0.9032845906086507 -0.1706780553762738
Ni 0.4525565444308802 2.3996646510132793 6.2287693107051245 -0.056579696167257394 0.36651075564130425 0.840949737125171
Ni 8.780371980987928 0.08980468473356179 7.668968146815615 -1.3302124138854319 0.6178183490451876 0.43463316234083854
Ni 8.19623180619703 2.261031370876072 8.604903174648307 0.7263032187221686 -0.19393856856611116 0.0818415560578397
Ni 8.264377806200645 2.254302494911965 2.151873332753143 -0.09559464397787408 -0.19902935282545722 -1.689483714355503
Ni 8.715756336455891 5.964964189414245 11.531628697000247 0.22156918579918614 0.4653524458015663 0.31413789846654283
Ni 7.146545591073035 2.5871514141775607 10.952286302948139 0.6600160654591601 -0.39278048797111065 0.7551054876658415
Ni 3.6485532475897466 0.157070400278859 6.081286176029371 0.1213990066354877 0.13857191887034845 0.4230549705849359
Ni 0.6015919293975315 6.12710244723429 0.27076996879564436 -0.888988742811269 -0.17290025983857318 0.9685882969124672
Ni 4.9509225816234 3.789278931622642 9.752266859383868 1.882480230723319 -0.40224034783242985 3.3768562959052746
P 4.469724991445025 0.9872367155941031 11.028969679551695 0.0900433751423417 -0.7701958063400606 -0.7357263118082814
Ni 6.400313246653628 4.789447993761459 11.724063488407722 0.909003495370299 -0.39329393727241946 0.1735854588310559
P 8.882531066344354 1.3595739973668657 4.477658612735856 -0.033256190949968525 -0.384179633675977 -0.436931471456712
Ni 4.297410460934057 3.5086848039194023 4.387713819900028 0.3082256467471659 0.043870219020388956 -0.3409172234429161
P 3.725114951367649 7.18858723939124 8.139114710427734 0.9431294905197307 0.18396834472727672 -4.214973962898289
P 0.5419796189385324 5.480632602211492 9.759457539027155 1.5053539043496977 -0.031754409593461444 -0.2888027621358639
P 3.9119933504036686 1.5505358101728846 3.334610626255629 -0.3575000675022617 -0.25874245241537375 -0.14680459119278588
Ni 3.937000803130547 3.280419208884974 1.9045438181721874 -0.45726144126331575 2.41677526513287 0.8563087360797446
Ni 1.4815417874450258 8.662303251913626 13.045892178671274 0.689805895127083 0.4808752240275137 0.5566520619485124
Ni 6.915182869567456 6.735309875644752 10.251040642286023 -0.39434757534791437 -0.015412220790012168 0.9728288173563762
Ni 6.613876708588399 8.79920361604912 0.6767378039314789 -0.8870691571910528 -0.9036532868019792 0.23450671979646065
Ni 4.512587009572552 7.176613527230453 1.024465834952226 -0.7669976111177372 0.04453022120189105 -0.5733341505898836
Ni 2.9583549264385627 6.80335448162699 9.871985545715122 -1.4179767631856095 -1.416100372098503 2.1310909940213296
Ni 1.9531253808692053 4.002344641088835 3.250319932757312 0.028677313330034482 -0.36919678711389964 -0.14087974106791865
Ni 7.677417034087807 8.854048563975741 5.500231144779825 -0.3445789885652195 0.09926746484377097 -0.07448280169992333
Ni 8.560688007217312 4.039344241253114 12.720517842308821 0.022599225456754624 -1.0631298170354788 0.7014306238502049
Ni 8.975592342691778 4.894141929652311 2.4307041262482545 -0.8862037238669641 0.25558513773331465 -0.8440764556796109
Ni 2.079720425377477 6.376144599012687 12.08303058581619 0.4961097815890811 0.3535374833100879 -0.4787059842903368
Ni 3.213646636989101 2.217699253194888 9.478967570636785 0.16587600600194014 0.6849328833054978 0.9012801585841121
Ni 2.422275517780338 4.119832658949796 12.591558473574805 -0.3032536474538713 -1.2170370807113169 1.6550741265273816
Ni 3.2250119850216263 8.391931485092845 11.485084232369076 -1.0265111373711806 1.2515194307589026 -0.976181535878693
Ni 2.3720946948370565 1.778506440781489 11.733155766833743 0.9231345354550424 -0.4050824452669153 0.40277513728997727
Ni 0.1881651813436765 7.418438268214471 6.431268841380009 -0.2813218803777865 -1.3874271725335268 -2.0488185210736582
Ni 3.8073915908958877 4.40599424019046 8.084880891920868 -1.15288831394755 0.5432062208562516 -0.5384715343847436
Ni 2.710630896938068 8.173639374706585 3.4743500229896758 -1.2798054221877895 0.028979160841169447 0.07691377973891915
Ni 6.252655898613872 4.312499734842609 2.5385237632890076 -0.0006000954778441278 0.4528147183458718 0.4600983964914786
Ni 5.83319804981575 0.3654222095148549 7.256874269260952 0.30754636129195423 -1.5210458611636577 -0.48847283386911355
Ni 6.21155444940298 4.150223212447958 5.821018784320717 1.2439945831367674 -0.4994465592717979 0.1427425053082703
Ni 2.9657843429140014 1.639476802197081 0.823101917316763 -1.5375132626910617 -0.08069458693759006 -0.5764624118062202
Ni 0.5594627135154101 2.0088091338817633 13.304972338565987 0.8017059611332 0.15175679299173866 0.5607331739964214
Ni 1.4325223869284254 9.297831760266021 5.604327777708383 -1.3589514336913369 0.40231079605904907 0.3942794411141403
Ni 7.887625275678832 9.014251117751316 10.14841514443126 2.332633085966312 1.1441663606935197 -1.929051650724955
P 6.617158187825688 3.69287165256978 0.568684038877728 0.016537849754023132 -0.3053292990359774 -1.295512291400085
Ni 0.7736373048699348 7.826033016511491 10.250298622402308 -0.06411842774646376 -0.8906064809203502 1.0348466538200694
P 4.451096144426588 5.390631581781991 11.429353469401152 -2.228331658243059 -0.45496158948554544 -0.7054127484264044
Ni 8.187539573273535 6.1627654898440545 4.3560106747069485 -1.161306362807916 -0.08917537071509157 0.4582047790131915
P 5.906533580186203 5.85414974168755 4.551818199970954 0.11028309922798425 -0.8510785980290568 0.2956897190636843
P 2.3874881508097383 1.7904893705805827 7.393806895130519 0.9582082392297241 -1.7966174693212285 -1.6918907811350992
P 6.870744635289433 8.188913001381275 8.585543368912125 -0.6910073716343519 -0.9208465107518142 -2.312006925075528
Ni 4.639587630166331 4.8098466273348395 0.09481815820873646 1.3022483245723377 0.13548556663554084 -0.1708965991449831
