# total energy = -381169.12657262705 ev
CRYSTAL
PRIMVEC
9.26574534454334 0.00000000000000 0.00000000000000

0.00000000000000 9.26574534454334 0.00000000000000

0.00000000000000 0.00000000000000 13.56135490762808

PRIMCOORD
 96 1
Ni 0.26811360535927087 0.5210202695685682 10.409262406100247 0.11574643633540066 -2.5685333436761892 1.4131644293986307
Ni 7.812246347586839 0.9566418712094942 3.66779060033162 -0.04529486728205748 0.7670302641278853 0.24998758904087914
Ni 8.469817758463835 4.225596805227698 1.9110117816768646 -0.3112955439217413 0.47122227431878205 0.4421428404543224
Ni 2.8874008092224686 1.617817656999565 2.898183357002279 1.2880866883599753 0.1888200163926232 0.973348180194956
Ni 1.2054456634097686 0.3721549527859059 8.446161384195008 -0.22274957926053252 1.9572569095145773 -1.2408804629878178
Ni 4.99169789054391 5.266028810984603 8.320650378385116 -0.9528534026757138 0.42943027798366046 -0.2199131382530019
Ni 0.9146522933339548 2.200188279201697 11.877644902982562 0.6424757425825516 0.5125895244116592 0.5323641359354251
Ni 1.3496299256780717 3.582303907823839 3.1672272431874435 -1.0063171789218088 0.9949762999876928 -0.4026278130788356
Ni 6.867260783936855 8.985984630655876 1.4550249984897974 -0.1373005083570926 0.7591326065473636 0.1610659862078065
Ni 4.996210308494213 2.588691712955805 9.144692948647176 -1.1670952015755514 0.8998148868924953 2.0993586959150554
Ni 5.442763636413922 2.2930217811402698 1.9621512830142604 -1.5501132108432594 -1.6157434472485592 -1.6715024472867344
Ni 6.675469122431064 5.183517349285534 12.663470906846216 0.37619687258081663 0.7908397078426573 1.7384105219631931
Ni 2.001160070633922 4.339741521305279 12.726070281943233 -0.3812475476308466 0.8204953259255611 1.176745837291438
Ni 0.3781850998127172 6.359581334419305 3.763059140129206 -0.5631849779710236 -1.4343163808858976 -0.14480247316109257
Ni 9.102112216222912 7.789684257835325 1.6041052805629055 0.35581033850466465 -0.44857702611544037 0.44407553870066097
Ni 2.0012063993603113 7.016022324372405 0.15249378263346036 1.668049712851443 -0.537720515151332 1.2022270122816778
Ni 1.0573141936531103 1.3400862080419074 4.280980944476868 -0.7759378510301604 0.3662608444140273 0.26425104093842877
Ni 7.319197509862982 6.3454696043611705 1.297779741677866 -0.32069883951351225 0.503787609849313 0.044292908380104364
Ni 4.673614120901305 6.53918854088475 5.105592431498988 1.323071431965276 -0.9758449784748807 -1.427315266977716
Ni 5.774254939473546 8.841976417547851 5.135861768172601 0.26661979828092147 0.11492522598568594 -0.053289712562075965
Ni 2.791352093672489 9.229896109349456 1.4751909665124652 -0.36110038325901034 -1.2820217131128178 -0.8871460331755753
Ni 8.676147374310538 5.940426815286138 10.401871121092123 -0.10306395577172571 -0.22154913119452813 -0.2918564613605232
Ni 6.144773561643386 5.937749014900844 10.497695605606378 0.1056512568829277 0.45915711562413175 -1.0443101132258144
Ni 8.356367973282092 0.871605493922215 12.507827697392822 0.283344310124454 1.7111995087660399 -0.5646163111009115
P 6.063346192141823 4.6667482036504335 1.2409918420191055 0.43796865447197475 -1.5330128037175468 -0.781317370174519
Ni 7.034924444739177 5.6831633976472045 3.9233945229912934 0.2270268664796477 0.05977609161736802 0.13929079931424398
P 7.881155695218056 0.39694267455315496 6.244691652421387 -2.375724517839147 -1.7155104774365681 -0.5574195362421561
Ni 9.15239741584569 1.9000707896528035 6.67201021971885 0.3022527169931827 -0.22963319375424324 -0.7770855914813585
P 6.067172944941566 0.3480816199795774 9.57066890945388 0.399007442717429 1.2860935691893465 -0.46630272552997754
P 4.966615518076826 0.31000959920750415 3.0178078348371673 -0.895035206115665 1.258331825695046 -0.21580965760758963
P 6.178547203181075 0.2082457719701597 12.910667092240788 -0.48260660489632373 -0.47538489033690384 0.30881545781236497
Ni 6.574676345298836 4.904738871111481 6.352748773851434 -1.700790397617574 -0.017368058964802348 -0.28810727873073605
Ni 7.957996520807096 7.913048390464344 4.026894750893703 0.2832396662257896 0.30266255083709165 -0.05755080183127508
Ni 3.7648298240517994 7.2417729423214405 2.775521567865318 -2.971979281780946 0.1765661387259346 -0.2600696558672295
Ni 5.795899720442555 7.4838868664311216 12.130753560438917 -1.7326365955938936 -0.48080066203583643 0.673472190964066
Ni 3.042787357531667 8.586019469993094 5.098554171385949 0.38992347813828976 -0.057761889400816654 0.16583461124104343
Ni 0.05093102206864474 6.134405192677495 13.18913609452256 -1.2252638394964832 -1.2143405077157603 -0.5665639217455856
Ni 8.685505777041147 3.9505616881458896 11.875868659612802 0.06426909439171512 0.1751720865918854 -0.026467964383541515
Ni 7.960303691381275 -0.0010044067881167047 8.692164141597795 0.7060418973699711 -0.3498530924799652 -1.5393891395575359
Ni 5.18566700218999 1.5844887712352127 11.166202449060268 0.23004199915688772 -1.1997024460876111 0.2707068238661015
Ni 0.3286763696442193 7.477067277906639 8.14014902750036 -0.6023639621633303 0.42841494934526864 -0.10594076309888853
Ni 4.9179425581323875 7.356621855040135 7.08583508216821 -0.23815357252042854 0.7238210757302631 1.6724558123389388
Ni 6.87718439712941 2.55119324181643 5.559016309542208 0.9068160008006769 -0.3735013280265245 1.0342301032819932
Ni 4.781096766124126 1.5382527022988441 4.840522623463484 -0.9385799234758353 1.1277205564326707 -0.5231212771809184
Ni 6.889452243877256 4.256108904427591 8.785235773190008 1.100012034773809 -0.9869025218406229 0.8031869165541007
Ni 2.880775801348821 4.031905665939953 9.24733887483497 0.7842553697569203 0.061759183485667835 0.5078188424958932
Ni 0.998198738780559 4.212504307150126 5.530334195034687 -0.1989730456662251 -0.040355778109227275 -0.099063576363081
Ni 2.4517439977494866 8.087420450847816 9.81051457911955 -2.679659250520443 -1.648590318575251 0.7567569072263355
Ni 2.2778815533562966 1.4291022229260142 6.398410366580577 1.1421305612104138 -0.29998628955650913 -0.2007720465481768
Ni 6.435569711442784 3.7111162986762225 11.02740251137291 -1.0818649315511368 -0.9698756482653232 -0.584250026171439
Ni 6.574491030393279 2.26237069576121 12.928270155119609 0.49766118523660097 1.125727437262042 0.3917309636606737
Ni 1.4344485579513218 3.1536242025450623 7.724805509399963 0.40361640224435 -0.8488841614808993 0.8474186326789662
Ni 4.6694167382904475 8.074198232336354 9.641688993859388 1.152572325369028 -0.8333189600527907 -0.22358338801573752
Ni 7.462316211424335 8.156718959780703 10.779608685407919 0.6736151442998335 0.27749582176347687 -1.102761829604804
Ni 3.437508106367199 7.884407971810575 11.951730095925976 -0.1805829731948116 -0.21546410134271282 0.5647145272416727
Ni 3.1832560559435605 2.8954434761236247 11.376470933224576 1.196974248523171 0.47097441997403405 -0.43509621802018617
P 8.796750314846767 3.2203283028001564 4.2280781718131015 -1.1628757641775649 -0.8315952924934645 0.10101092989743894
Ni 6.633467499086664 3.2458276338047427 3.4307246542492997 1.2499461727345118 1.693853818398741 0.24297799049226537
P 0.3398156486172258 7.7584401647584835 11.515651693042852 0.14021382534914562 -0.6134094213442145 -0.1841110409527281
Ni 8.739284162633668 6.047594425169512 6.119710647241385 1.8460569548992787 0.5357878169049933 -0.2875560342129564
P 0.02226651247715178 3.6541968254345165 9.511798996831192 -0.1117573697806656 1.1144055844913192 -0.2702843916167022
P 1.8476637343614006 6.7459165837784 6.170619431521364 -0.7016391403165851 0.27525973334410664 0.8666918790862815
P 4.873902470826864 4.260334084274281 4.761662791978407 1.457265276372587 -0.2783928796564496 2.3868460816736055
Ni 4.577018726379934 0.645761291945874 7.293581430467895 0.5789072738022869 -1.7270177067452193 -0.44618872838892193
Ni 1.1153362905828779 5.3799511491755165 8.048365334501765 0.4455855475872842 0.1604934015337881 0.5370057484724945
Ni 2.516576417458459 0.7780668687679997 10.82196148049835 1.6022078746559696 0.45225936006303397 0.04451273770039431
Ni 4.734777305480256 7.848771915472042 0.7140340828765042 0.07985460753479795 1.2646677952154026 -0.6284352053290855
Ni 1.4014717705075268 8.356312378810426 3.3268037615112767 0.19347165623202164 0.8656870919708509 -0.026411914334625478
Ni 7.885714441894748 8.134027149595298 13.137481417747717 0.632185159289821 -2.684019327261352 -0.03842925051047575
Ni 2.787349291712467 8.293889052873688 7.62763841839495 0.34169292526667605 -1.0942283382124962 -1.9392620155990536
Ni 8.494075479601191 4.0518640812683975 7.194867886576012 0.7158406286279477 -0.7615802967569077 0.6365835454678326
Ni 4.009019275103714 0.8060114299514053 13.138254180903889 0.5564923964421965 -0.7509685826793324 -0.33084929768395277
Ni 8.006261787959309 2.0724414490562637 10.219104295486936 -1.2811336540809097 0.8762882645254649 -0.13977802336330766
Ni 1.8294658106357438 5.8209635614190836 10.853464087868442 -0.23609026223349663 0.3778326084120267 0.4094108974389401
Ni 5.819805343259354 7.702299014120116 2.9179963001298614 1.866176351356973 -1.870221210850308 1.497922387772317
Ni 4.746674522416989 2.9063121953345186 6.990417363871652 -0.7533517381995284 2.2320075644327497 -2.47312767578067
Ni 0.7202356461909554 2.718773510911252 0.8441075416612007 0.8474643983152371 -0.6017119304016282 -0.21702501807192945
Ni 4.767216679697937 5.008496686732614 2.849484452971063 -0.5715179233167512 0.7502047079301145 -0.03168961779379703
Ni 4.301890951845346 5.083502894756642 11.776178506168636 -0.7502461026910111 1.1214918019141393 -1.218452987222237
Ni 4.083117440090517 5.681551157968863 0.5927630821057456 -0.2988979415883368 -0.1757323299707296 -0.17895829310719502
Ni 0.624951354626397 8.67946451112 5.943697623369211 -0.14602554693491623 -0.10356506377786034 -0.14886995836224684
Ni 7.889930355996161 1.7744736124118266 1.2303186300335738 0.22282311281094527 0.6702382574078005 0.8587561691789727
Ni 6.599517808388697 1.8423544623172046 7.867538755957757 2.3665549355247375 -0.7151310041554328 -0.5833874210608276
Ni 6.93822712701975 7.230811565657768 6.05976961446458 0.3125600124564617 0.6716374517481724 0.6059624781478661
Ni 3.17339730296795 4.848505063020334 6.641429554003903 -0.02667879484276696 0.42928603909631236 -0.023212433560721314
Ni 4.690542637523899 3.485680716066634 13.352468945982025 -0.2531531312530544 -0.34257841319542287 0.40219175398268153
Ni 3.0706494535821003 3.6339326405119037 1.7103305641515247 0.3709662203094966 0.38692094386654 -1.0315934369900943
Ni 7.1778022369233065 6.66964096865131 8.503769302310857 0.13870304513157403 0.5320293783038257 -0.6906479314124041
P 2.645425871291954 2.313258168827049 13.480542856935768 -0.5472328255171414 0.7762618100284825 0.06286012985933045
Ni 2.6124120208670485 5.913602482706821 4.4042264755663325 -0.28776172246585924 -0.8613265010093102 -0.7984977386085473
P 1.0761514538029375 5.641995691377809 1.820842181505668 -0.10213270220670796 -0.33546854162351897 -0.62954000835749
Ni 3.0813884523591044 3.2018894696972753 4.70720059438438 -0.4136845851136295 -0.07407451051791114 0.48435032706030773
P 3.163825788095952 1.4750139907776587 8.614783123059059 -1.573813896894309 0.9466423887689955 0.4982921339523805
P 0.45238426142304705 0.5470570137992687 1.7160669870530287 0.5986152937541755 0.6813634207866847 0.6220835520794448
P 3.361510463598442 6.153455564968713 9.370082202530375 0.23456534094853798 -0.0714895233995543 0.21444208783610164
Ni 1.235012656591322 9.143150202058418 13.046660435683489 0.2998338231390449 0.430990937602561 -0.27452645472250786
