# total energy = -340887.0776788857 ev
CRYSTAL
PRIMVEC
9.10561509821896 0.00000000000000 0.00000000000000
0.00000000000000 9.10561509821896 0.00000000000000
0.00000000000000 0.00000000000000 13.32698810592527
PRIMCOORD
 96 1
Ni 5.993589090612616 1.888067522168098 11.016075247285839 2.7066326937854934 1.300243121216851 -0.8862109229558156
Ni 4.950704770958325 0.38818967648403746 6.025624465995983 -0.6999607241728978 0.07846904004118098 -1.3284218976439122
Ni 2.693786988421456 1.4785060562569956 4.8489313099100935 1.1261406135400607 2.144178423332907 0.1491314395537496
Ni 3.6624150161505145 4.667283392360558 4.693578587924223 -1.544907241162288 1.3067205014110785 1.2842907116526527
Ni 3.5807194366099644 3.274515808791237 2.8746982617016172 -0.9012174236669769 -1.2934878047708884 -1.4974737302706727
Ni 4.931792408195761 5.158786289422508 2.183080348910662 0.9289174606854066 -1.048068294716666 0.24599749404487956
Ni 5.441288000885456 4.67246448740721 11.423867492164314 -0.005346866134210147 0.16237673459943003 -0.10916492646314102
Ni 5.46946987991778 7.946215424521965 12.31838856005736 1.111369368768157 0.035352154247048795 0.46052982760194233
Ni 1.8927660196093512 6.8295574105478405 0.12866325328420966 0.1315273533187412 -0.6260232534534832 0.33960493238939576
Ni 3.006428286183916 1.751920363754109 0.18621893637804204 -1.0578503138040942 -0.7080843817212966 1.0439403885912213
Ni 8.278251682652389 -0.0577050151830505 6.623540135048642 -0.6595987754160834 0.075873768510179 -0.0035182975659036183
Ni 8.63419018067291 2.422084536581233 1.4203102484148686 1.142538852392426 0.7829294518566451 -1.1862509485683959
Ni 6.881313727323196 1.1985721282793835 4.752710453008522 -0.15243402156442137 -1.5181104326844177 -1.4237126372281221
Ni 1.1902678072204245 7.7062278304102 2.4393323928859267 -1.218601082764327 -1.192693875980262 1.1964512861401653
Ni 7.961485541206038 3.9626544660157137 3.508622996609277 -0.10590990986095307 0.5833905063846211 -0.21268885259042078
Ni 7.75990543199196 4.271161814479087 12.664370067860805 0.047373604187957115 -1.0194323761475281 -0.9104903643284707
Ni 8.15182932126797 7.527593871490617 8.803754946857051 0.5214415754856504 -0.3436485063311501 0.16963110216899818
Ni 6.860425446063051 1.262001843736302 0.16326732271443178 -0.6093416790327442 -0.3277076667311775 -0.22015739305332407
Ni 1.9483466947671217 6.671420191434963 9.128400177132697 -1.5765521217610783 -1.177396069280927 -1.3927773811018465
Ni 0.31132189412052685 4.974661644539598 1.0408947427339157 0.38874128490473053 -0.5546365741803803 0.9821104997686182
Ni 6.600086801987719 1.967231740684097 6.8484324402881 -0.1968007206052546 1.3771412172264863 1.8067075065673788
Ni 2.9502830628839796 4.528413655002897 0.18635643116750508 0.4139599502622032 0.7732808730232876 0.30510998393631966
Ni 6.190006316010432 5.673763462460333 4.424613284011985 -0.5694358439767419 0.37822135921001315 0.7154547060434387
Ni 5.042179781219623 2.834550693739932 8.972434647244121 1.123779826617368 1.1114657851367051 0.5416383621484995
P 0.28845860492432 5.678061312832951 12.00707030818291 0.8598288334178612 -0.28144529332952817 1.3102981914600078
P 4.167649180928376 6.0571007566063 12.566829807317298 0.6022027539951177 1.3551192044294404 0.5269198249914022
P 2.621916367677635 8.791708217952444 1.4273734741225819 0.9611025300583834 0.21286831559107858 -2.006204543057874
P 6.663862530822095 7.960156121387388 5.675311417043692 0.17732821370293977 -0.15586978671884769 -1.5972009083596814
P 4.8355187387260505 1.389061598184456 12.516147953135098 -0.6010868952231196 -2.055919136674182 2.2955066134276594
P 4.206074877056455 5.932973010251331 7.933995688928628 -1.0084005438133987 0.35032540413069346 2.165759749048109
P 4.739754983707329 1.411142715035307 3.4710140741643 0.012751386128397393 0.2333435527262949 1.734067157392833
P 0.504230725983237 5.568001741956154 3.5498432060410776 0.68870829118753 0.07624040782097838 -1.005697543059939
Ni 0.9669343833025603 -0.055348481970266906 4.760466616032668 -1.1891411256319973 -0.34309057694515105 -0.4929959185504477
Ni 2.3471999572074607 6.968490887211875 4.858619684478879 -0.6767842860564345 -1.0680380529703735 -0.9363129818185294
Ni 6.122515496175996 5.811749955143959 9.269280434325685 0.2142142880960117 -0.7779170862437184 -1.1753157897131306
Ni 8.851441053639693 2.1757685399080917 10.153752545288175 -0.6172244242149305 1.0452884179786837 0.4572853525227157
Ni 2.2991132033561854 5.348957062795713 6.779411877100698 0.37977430551942987 1.084270712779152 1.3013949754331071
Ni 0.8392800321820926 0.19828569763608228 9.02543661217832 -0.7244137150089395 -1.3000849983724319 0.6371684714370253
Ni 1.521083912914554 1.0194828885999874 11.312947440651472 0.29870819417503397 0.25313719041345434 0.7729646273344495
Ni 4.405724595848932 7.335756770536501 1.3165289992158693 -1.2685612167325377 -0.507674346498229 -0.24056526728571473
Ni 5.931634484817486 7.922112861097552 7.661072174090591 0.9257614315549283 0.40127284171283795 2.5354342471293756
Ni 5.229090744352578 3.179207334532327 4.654424442580446 1.0206868173799197 -1.7320737811118878 0.3050696176166875
Ni 0.9767502364840933 7.647924576308759 6.857774801479429 0.3443439897362779 -0.9959993419355686 0.5230839961850797
Ni 5.534820880181102 4.5706090758222135 7.047418359732772 -0.8094514094065737 -1.5160967446884988 0.057775002026939214
Ni 0.7809585668502576 7.632126333943304 11.274658328751336 -0.46333490115090525 0.40439261828874223 -0.2200967150187177
Ni 4.5497481114076574 0.05828049006345206 10.286049849597196 0.47960741305868365 1.432597341312262 -0.20693086706072103
Ni 8.479731630099307 7.009111036602245 4.574822243973507 -0.2623862198155481 1.1076669802159052 0.5047808270005177
Ni 7.310916652281194 6.0367952347187135 6.799069989747832 0.2332527927847015 0.8695853985839928 -0.5323363680212831
Ni 2.571107034882687 5.654459558244331 2.2469835563577845 -1.1807822121443405 -0.1591911377825968 1.3067639530545043
Ni 2.495066042378994 5.739597060329055 11.269034700806147 -2.3546769531402285 -0.6708874609560252 1.807150250531752
Ni 1.20886147345112 3.47632355838522 4.053403758745873 0.8087119601373878 -0.5505732027442841 -1.7997079353210943
Ni 1.4417831101706116 1.1691609911955696 2.577519209103871 0.16739321397741494 0.993917005485243 -0.3213264457951821
Ni 1.4364563252808187 3.1525278820073814 8.04986100005454 -0.27464806790203666 0.8802662753366066 0.6800621854767578
Ni 3.7901485861231894 2.6143951295255516 6.892278709142492 0.922607973527611 -0.18812067633275342 0.3151930792039346
Ni 4.50970161577465 7.014592616950373 6.154736626109366 -0.40004642550490455 -1.0963453845554991 -2.7870282614254256
Ni 0.6639696228091309 -0.2297337608392921 0.21791649343762848 0.6888910966222974 1.7506278899649916 -0.5160476581635887
P 0.07937911103463006 5.740999325069274 7.834323803867686 1.977760685894884 1.432407851009275 0.5560465671540294
P 8.657964941950258 1.6183683056710452 8.008280208260969 -0.3792950518901661 0.9231669313548746 -0.7000741098223104
P 1.9779217329244678 3.012146612527147 10.445347124086075 -1.2335636176114302 0.7919352548996812 -1.4280179494716956
P 4.182345643855086 6.472781195929268 3.6954674887512997 0.1689405038598768 1.2758047856688286 -0.28414880830362027
P 7.0154940728548 3.7602366402035834 10.27682677196494 0.6232305211996945 0.4452225078209106 -0.9420228877191132
P 6.340021326368275 7.934141378771767 10.152393076939376 0.40307672769079617 -0.818817424002506 -0.2814419508954185
P 2.8887564210030723 8.678024612227548 6.048573347975034 -1.3303096015849283 0.306672186217117 -1.050233677799101
P 6.93266029141472 4.114863929635847 1.41043520873456 0.15616777757524072 0.07842353151522623 0.5222041646832877
Ni 4.960675419598193 3.491584569454097 0.3597983683022011 1.8172477439770705 -1.1010913838809167 0.2629091821985537
Ni 1.4557784407272125 1.074180319083724 6.9355513242395235 0.8629236702931009 -0.22427655742802022 -0.2689157934039498
Ni 6.972178661366347 0.7536480951922134 9.14114075391526 -0.4952458909268891 -0.5287802752389087 -0.4645525756080902
Ni 2.905701970883251 1.5096108377673076 9.181482271480624 0.5113523095704484 -0.4449126898899757 -0.32966710445039354
Ni 6.581802726673696 2.170997197545269 2.550959040137996 -0.6438780222467169 0.21974318833404088 -0.48179645029020246
Ni 4.148454544094729 6.8837813490413735 10.234461076141454 1.2432178528717428 -0.5972508093064811 -0.2929674350365148
Ni 8.376246313394185 7.067250389630155 0.4829017329475945 -0.05485448594603456 0.40262524197567434 -1.3915815610215325
Ni 8.137014485343709 3.950079611429724 8.00709465716242 -2.0096583059344293 -1.8966259260960818 -0.31221702729474615
Ni 3.2217123462683155 8.663164248227304 12.42517739395567 -0.39987339026215 -0.174221549753158 0.1946142544768971
Ni 0.2219175007548507 4.704552675358715 9.876031281803245 0.46631815214894523 0.4003513583398331 1.4316164654562313
Ni 8.76256114370932 2.2988309292851024 5.780021438992706 0.5502533575110201 0.6640737804683016 -0.1790038016331498
Ni 3.7907495567261402 2.931033792359155 11.530390442098899 -0.5628821020186242 0.8441381621554817 -0.7040374653454325
Ni 1.2467863607434064 3.4515836018970703 12.496197550240163 -1.8690559868976133 -0.7286979442065903 -1.2341434013743002
Ni 3.499488243444422 8.164258486010821 8.011306004190674 -0.16484216542078708 0.7644352497071996 1.1295732933706935
Ni 6.121586723425981 8.091076656678743 3.4363107535284385 -1.2897051978000047 0.8235058306171108 1.2422673160330153
Ni 3.3103372989731947 8.811403663621883 3.5648091951775966 1.26217948157591 -1.3469011873950223 -0.9178894850060192
Ni 3.3413328131011517 4.541024932049671 9.587581782494121 0.7837172378652631 -0.45345286615050295 -1.7035000832392535
Ni 7.495960964298923 6.362949265432375 11.171854112062894 0.2643225176063125 -0.039687034176976804 0.6418635629198495
Ni 8.253712049698557 8.993124426092988 2.1207906564763115 -0.6700857909903363 0.5014887865128073 0.7359721092705002
Ni 4.918097562940635 0.5926690135765935 1.5480629401794554 -1.0583748188489968 0.29095451837154407 -1.0020625174105129
Ni 6.273805292661311 5.883720737654938 13.595793462459598 -1.134049583974492 0.3416636146906374 -0.7627938574490346
Ni 7.772899144876977 9.017818854505157 11.474096797271262 0.22914545548454726 -0.3287880442795499 -0.12388063540676085
Ni 0.11308809849106306 4.729338159922846 5.767760728130986 -0.2920431234500325 0.6794821446035717 0.021703196005046492
Ni 7.265015246077014 6.364196734714258 2.414250975827919 1.1254631278570617 -1.2976982433078101 -0.05895693815018233
P 8.667835428822968 1.791192882095437 3.5749246230990854 -0.16598682054819155 -0.995764085996311 0.19183926283492125
P 1.7697946863843033 3.0862754258396325 1.3383897601789716 -0.3501958205313646 0.5995054096686127 1.5049597542350728
P 4.93553481604141 0.9195578674365903 8.103261790934335 -0.032111792932880176 0.17444112196313183 0.4991593670486823
P 8.787592479883749 1.5337225068069174 12.467144263833562 0.2438819903637735 0.4423282169922511 0.597126882134107
P 6.397040688727049 8.163120284111292 1.2310582316149632 1.9532963822049327 -0.6704097499886583 -1.0258228530549043
P 2.1400381058780966 3.423283349867196 5.945676254011588 -1.029858970797491 -0.7313119847906696 -0.38404156543621604
P 6.975083352613944 3.945208107299742 5.5790641538580505 1.7276368283864567 -0.10436750507449769 0.7188238796259879
P 2.488619266820065 8.428303115471016 10.171050482476446 0.4963350102260097 0.7287390818571708 0.6044488697168171
