# total energy = -340854.9056366118 ev
CRYSTAL
PRIMVEC
9.42358093585604 0.00000000000000 0.00000000000000

0.00000000000000 9.42358093585604 0.00000000000000

0.00000000000000 0.00000000000000 13.79236324978043

PRIMCOORD
 96 1
Ni 0.27204558604132534 3.959788671932997 12.248652590243005 -0.5135693718264253 -1.4684832565755934 -0.9748895565401469
Ni 9.339352881445167 3.3393589561245136 9.854712497883229 -1.7046064289295546 -0.1866309791611044 -1.07824790362384
Ni 7.465247664067722 7.9089098503471265 0.3484265358809696 -0.6938576965989534 -0.6314865905608995 -0.4720177736368839
Ni 0.03378824912711985 1.050013072302385 2.0342354149210475 0.6082569306089975 3.0554236635495315 0.2671936685065205
Ni 0.640645181441588 8.936673848269612 0.3548911123420502 0.5296367097019331 -1.435005179422806 -0.5267303346884155
Ni 5.3590679211698244 5.724749975939838 9.106201240633897 -0.615475559844624 -0.26690879027625003 1.1923223515734562
Ni 8.196592926446057 3.5529632631847354 6.134442980339859 -1.9965299960825873 -1.1677927418632081 0.5528673980950994
Ni 6.342173569458111 6.382440530417582 7.0676762117112695 -0.8581298484488834 0.9928523116661546 0.8194527435936597
Ni 4.207138822006527 6.468572059359675 5.262945511813681 0.2979273501449514 1.2008869533140156 0.11804860210601605
Ni 0.6071688528405057 0.4870851044645539 5.964825121599441 1.5225191032750747 -1.3499608001569525 1.1911046771162712
Ni 7.84416984992785 1.476213363272194 7.423974264673785 -0.2634750820043527 0.6105498404082323 2.506841265983031
Ni 7.356028362050342 2.1265441011083865 11.929828348876892 -0.24544547819615148 1.0836464489315918 -0.12277866059183373
Ni 1.8584809203330268 5.0922203823237355 8.533569811597854 -1.1916070706739865 0.21395203557356055 -0.5062556117738314
Ni 3.21862403831203 1.467364620856808 6.715998540438067 0.07243157559784946 -0.9098897546299943 1.2732809908057103
Ni 7.17453019493604 8.545623513859322 8.301526383894196 -0.6381668307945525 -0.3316723078058804 0.5789296423997901
Ni 8.18998699627227 7.916825658258653 10.851431451063172 1.208745530126486 1.2549929911298 -0.7061162022513323
Ni 8.527812946058386 3.699028766314106 1.7309280417776982 2.610361592565885 0.016298222939391285 0.5279138134735554
Ni 6.192583647091941 8.877390101160781 11.96847445393067 -0.04825934922702011 0.1145012510743899 -0.38392509446300976
Ni 2.744165589824447 0.9921145915780721 2.6617469517360934 0.3478764283695686 3.0653157258522628 0.9673248568190115
Ni 0.889225108815659 4.804857707973604 0.40751709958243526 0.9692251591655179 -0.7730142496254622 0.12985356516074412
Ni 5.788359146657467 3.21836960162916 9.63277963007038 -0.6093630191889828 -1.3306700702481407 1.2608358230638221
Ni 3.9186453179547494 0.5208318898359466 11.070192341562905 0.7699818905570416 -2.100985432885201 -0.4111245376959371
Ni 5.55662387004751 4.341226953879289 5.846651533061187 0.20405534528513886 -0.19672101640725476 0.23223977813915483
Ni 0.6924409512093476 6.7575555896154995 1.2978843463967573 -0.33262618707871744 1.0817003809488146 0.838262420100995
P 4.320410263788141 3.153525941820566 1.6809990833757407 -3.3135248828364805 -1.3084500825076757 -0.2029975934445859
P 5.806603199177368 0.1956825410052905 9.760855517362721 -0.2114218129525391 -1.0814962353578084 2.097167087580375
P 2.0557353146236066 2.8131556252057446 12.607585476410357 1.3017934964231066 2.379375227217857 3.0833779826706125
P 0.5367897816423516 6.0281704320533525 5.378580387671739 -0.47908907866136846 1.4378058820963946 0.8478451786934237
P 3.922857658593384 8.683000475447708 5.974244933014158 -1.0256143365885242 0.47710238724864285 1.078116520252298
P 6.828741319334161 4.19864817566333 4.046472422712728 -1.9669929058554187 -0.45040250935995335 -0.3390449461208677
P 8.023378086896317 0.9600084516321519 5.541909890912916 -0.4705651003507573 -0.033145119293400985 -2.519289261938397
P 3.3166763970256494 5.680440298796981 10.159081908588043 -0.6464678944610801 1.3585251447871958 -0.6723871854300033
Ni 2.526622225970155 9.074663342613055 9.252413751624482 0.20440372976349314 0.9723912155983253 0.8393618238127608
Ni 7.835424766901783 1.041060670497682 9.816576208553279 0.1720433111549166 -0.1497996692653678 0.5620698905299739
Ni 4.3976930503148495 4.9965521895644205 0.6762446428075122 -0.6431537424861826 -0.4985384456352317 0.08634330058293517
Ni 5.512069179802627 1.5676409446503328 5.610375032841033 0.943494330058317 0.24436227243430172 0.557139285997576
Ni 6.010567183031052 8.562491723575553 5.828487580978487 1.1966333202439843 0.28812244823938765 1.3701128496247952
Ni 0.9369216209149489 1.6611605609765179 8.670651815105725 0.03373338769670319 -0.7403535261676475 -1.3636884341556903
Ni 4.364710517350153 8.035619318416643 8.172265010131296 0.3245218128040282 -0.5539485469744202 -1.2968001569735732
Ni 6.7677990219962485 6.479267823621084 4.900964097242307 0.5660700128283025 -1.7700235208827837 -0.7900118126247233
Ni 4.993602608759292 2.629885824892197 3.6565764769562024 -0.5737570970599152 1.8657562331004192 1.2481821388555536
Ni 1.6125631545482495 1.5452410929768803 11.177538235707889 -0.93884526132208 -1.3906878455626694 -2.9582971563081633
Ni 8.416831434422607 0.30605717403452043 12.677471694330208 -0.849449547066066 -2.0119345035631158 -0.767033349451679
Ni 5.272672531964013 5.642727128247062 2.861377030758216 0.577308047635967 -0.04550826884444421 0.5165407957499233
Ni 1.222332671671654 8.806100712052801 3.5260316114819337 1.2525093054759977 -0.13038166975007223 0.1271896451753358
Ni 5.809901452473838 3.5037250532588673 13.149928574245877 -0.4086184834446318 0.10669718164893882 -0.7215171101874348
Ni 2.503223474726915 0.6855051957059143 13.502019940718268 1.7935748258401625 0.2429913602287041 -0.014932967160748475
Ni 5.257151894308913 1.123997605532623 2.013629813040875 0.5197456758404662 -0.33267529514909805 -2.4391479764011152
Ni 1.912214178322941 4.051791091742806 10.571542618682843 0.5378058757762867 -1.549540626169241 -1.0748221657717425
Ni 0.371703722931283 1.7700500376642518 13.472835110834934 -0.07543462409023137 1.7797263499928446 1.1970858344003705
Ni 6.9088134857915975 4.446007749317706 8.127039360930105 2.0376051688563424 -1.04845190330833 -1.254035255202221
Ni 2.655593353442966 5.161351771417739 12.278706274280436 1.3494213827137147 -0.38084208466231184 1.9300106722041146
Ni 6.33375831176169 3.4946689920648457 1.676640677233977 -0.7220259315030534 -1.7523057918880467 0.7732307365116424
Ni 3.937388820259544 2.640270610985653 11.530319408298285 0.2516906877749149 2.1845925654838956 0.4138087693963196
Ni 5.041766530468597 1.0423234303311872 13.321547059200126 0.2398816109551288 0.1204754663799538 0.1390578573678315
Ni 1.8934424052756051 7.3091931652404725 6.592928459291682 1.8297427911202875 -3.023988584968702 -2.2944694304123967
P 1.0506067578957496 4.693715995463425 2.9717987816916813 -0.14269056902441232 -0.8647980044976783 -2.0001593653050587
P 4.989672975546069 4.7933138214359605 11.460667837541521 0.10863939297697418 -0.4843271871318562 0.5960747867205088
P 7.335984405588653 1.4280023236586548 1.3724211014646328 0.9112853494259403 0.38084619842736994 -0.4189178084881107
P 3.0423182642444564 7.351307148045967 3.5753800773037128 0.22248912651029423 0.21992625087912449 1.309830250684654
P 0.7828734024500372 9.01619002345707 10.965617922545036 -0.7890052257370799 -0.2187432863146168 -0.3640525239087989
P 7.022480717968788 5.383738855827417 1.3375906042958285 -0.15648196638154985 2.83851434511986 0.817983615247301
P 4.0419717205001735 8.357745582511564 12.766735621545864 0.3550048118842338 0.6214541460255619 -0.3698884138642856
P 6.321724399019999 8.129817432563817 3.747825952656332 0.5615880657975489 -0.8842113760272836 -2.434144352538937
Ni 5.359539100212178 6.624277885695584 13.331257116904933 0.7615299031349466 1.0074749466753357 -0.9114954085542174
Ni 8.728440982292211 8.510256814940321 2.1964058177180372 -1.8467606658345228 -2.146819203389864 1.1406465204657195
Ni 7.2531888242664175 0.6180549734350251 3.5376584255310313 -0.03524905301028123 0.693926602163676 0.24085785882546906
Ni 4.661675820583434 0.03911445702187599 3.8817915779780825 -1.1488825352222665 -0.9071996093923408 1.2309652607566348
Ni 3.1966765185192365 2.794920996266691 8.946030521692654 0.8921182895791862 -0.255177874992567 -0.5215721875262437
Ni 3.3356272181090794 4.35527751292225 4.798418575180812 1.8269575150656665 -0.09805776080638597 -2.863422935436082
Ni 3.7985229328973245 5.355675432064884 7.438718399267089 0.6027223739440135 -0.34063954430149723 -0.839845705427715
Ni 2.8756905077068096 6.789284786327538 0.08910561105742419 -0.16095080078618088 1.8488699988680417 0.5656154417893872
Ni 2.753419546216256 5.757185941215406 2.2895739344786272 0.21273641799890455 -1.2612559413203763 -0.09854524196576576
Ni 8.520811225489023 7.382725366590051 6.8550114356615 1.707362137297821 -0.6793227362075719 0.09835343766993385
Ni 8.364068805259938 6.160439812822633 3.140562864007356 -0.6578352557577574 3.4878497909367225 -3.610911015765981
Ni 1.8702698199726941 4.05430718782897 6.196122201700011 -0.6649297007106936 0.00041780426370895786 0.7915398192334755
Ni 6.744786637567738 6.26310972615131 11.325585517889396 -0.21847409181363017 -1.6150564484838636 0.1410635749439506
Ni 5.243242688978657 7.999668357485124 1.636780814967099 -0.5107103051110753 -0.02413160294088102 0.7490749652010454
Ni 7.970285632404003 4.93999185732039 13.361159081290726 -0.40070154259040025 0.9113910217658692 -1.1590255371935394
Ni 0.8745196109038278 7.32815340990475 9.413715300267373 -0.8275722873770005 0.10917341110357326 -0.8706210389373586
Ni 0.4306755495140757 2.2521887045421862 4.662811362075503 -0.24809088623879852 0.9761450262138027 -1.4817216096427384
Ni 9.238746732321996 5.6207984556159625 10.736954733291219 -0.43854252469757377 0.6916385774604475 -0.3424681128698037
Ni 5.360651082752129 0.8198487066196315 7.855633636028294 0.09312304250892994 -0.3669578704810519 -0.02471035826248648
Ni 4.882206459566241 7.48423617947454 10.427233671023364 -1.1011417775028778 1.610908744864077 1.0630136031725885
Ni 2.2670214207954524 7.511922660003191 11.412187283515758 0.8681692349627563 -0.3287201671560919 0.23654946125810225
Ni 2.003839654898868 2.9929858185101175 1.4937958804166314 0.30144487637990663 0.28416012115753 -0.3145708722389034
Ni 8.792851157381842 8.23320353803687 4.673749312364682 -1.5204159408891427 -0.5580841664093485 0.02592906116093599
Ni 8.845029524531991 4.580039339705386 4.3311050856914655 2.3505315635132873 -2.5714250634016875 0.8773658138603598
P 5.155499727711717 2.8614420534660607 7.434690760813059 -0.6728618110735768 1.427342777781542 0.2572614969944731
P 1.2054550383745766 8.731560187552587 7.667436245289821 -2.0929427650863826 3.137398916971758 2.2920765047001876
P 2.7046902096561287 8.642959680428564 1.7590508340995679 -0.4046188753669354 -1.6591423830594845 -2.200409220801178
P 2.61262182478039 2.1367404155849012 4.8782758839949345 0.128431745112553 0.6956209591469632 -1.7625886618712936
P 0.33301332704752457 3.722597142012593 7.404181917820714 -1.1025509991455786 -1.3154098016549602 4.13024608643159
P 9.034255027940878 7.1537040812640456 12.894066103593202 0.2207140368877425 -0.5704141487296112 -0.048770741645799885
P 7.515362267012367 4.099050349690793 10.918075957171638 0.5192139717067122 -0.6306463540477913 0.5285892422740252
P 7.76439923805752 6.357468041172883 8.956236259750016 0.2604247252138031 1.0911327300063078 0.1122538498011099
