# total energy = -340862.36085564207 ev
CRYSTAL
PRIMVEC
9.29523382704057 0.00000000000000 0.00000000000000

0.00000000000000 9.29523382704057 0.00000000000000

0.00000000000000 0.00000000000000 13.60451428250760

PRIMCOORD
 96 1
Ni 2.5643969527228085 6.293003333118313 13.188569259874367 2.0696814805655968 -1.430773914950278 -0.19858532330950315
Ni 5.295680530896208 2.743497515225982 12.78018967490534 0.17647897832876702 -0.1505799990748181 -0.871463589443312
Ni 3.489077503753181 9.25406508780606 2.138303440934066 1.0259742910311043 1.4448792440034086 -0.0344466117136439
Ni 4.102209707605908 5.345149764529273 4.928969619457867 -0.6356188675617183 -0.17375540875001688 -0.864581260501182
Ni 8.676784600248473 0.8548352356522795 11.98301928041981 -1.2938017364668815 -0.36371185273992845 -0.9094141005451563
Ni 7.905633423873742 8.33880990372494 4.774231864424114 0.028639003892931322 -0.9372892296888696 0.21907624417400337
Ni 1.589429187495728 0.10232379137157135 3.767361927691577 -0.07478156388726476 0.17134937041168555 -0.8614630265871744
Ni 7.032522829287609 7.504776471520131 6.783387328639315 -1.13931957412418 1.4080710740361233 0.4930892495952024
Ni 4.286673619941152 1.8530327193634621 7.413576286290741 -0.8657639679553735 -0.8854696739144169 -2.6726334540219128
Ni 7.106038832445051 8.655637943631557 1.0173233565265518 -0.19916022197636668 -0.41113533632921456 -0.9387205628187576
Ni 4.092440417010577 5.919149034598609 1.8989177108903808 -1.070086707969286 1.5784264559656558 0.6304062130125272
Ni 3.00783537055426 4.080551813136716 3.333296823500784 -0.5467589712045163 1.5236365047089695 -1.7705084309390027
Ni 9.052312040830174 2.5147325191825107 0.6916127913174637 -0.24004179068207693 -0.10054813132840747 -0.4370381722379053
Ni 5.219664109879446 5.211949065926902 12.200010933487025 0.07335948672875753 -1.0758536923600504 -0.2675443669777199
Ni 2.890092645558012 7.403737281442827 5.7529409612064955 1.6215477126351625 -0.746024865520812 -0.0706657419466783
Ni 0.9981500780194262 3.0864079808324063 8.539852794847846 1.4743129758834932 2.3506927716815 0.0774889355160988
Ni 2.5319472919537316 5.404416174458701 8.984910442385964 0.3415674554324053 1.9211503936000074 -1.4895277359507184
Ni 2.737966851187712 -0.06275026351185516 7.859899015132403 1.9381466710476878 3.4112085481328998 -0.27563897106039625
Ni 1.6551464895975256 5.454526779215532 6.903352544007917 1.3532556688581403 -2.0601190336881423 -1.1919014619859536
Ni 0.7383482967258977 3.7302237510554357 5.255817921269113 0.7228162886148326 1.189192033474591 -0.9454103161341074
Ni 7.3984111125454675 4.034986577648312 13.233437352836937 0.003579232710826093 0.2202422394576465 -0.09637754489048564
Ni 6.449786039561173 5.538063044277605 5.461532596838463 1.3781035811397557 -1.1976882438710599 0.25747387011559525
Ni 1.4004292011257344 0.9597421724629016 12.941933247562025 0.43681422915255735 -0.2285924111945547 1.4827281965303818
Ni 8.900809027116283 8.689918765435154 2.6789737211284095 0.986566478657443 1.1083850893288525 -1.3006604112599278
P 8.758898694557846 5.824068089308753 4.8531251602641445 -0.7835097498401474 -0.8998609096390825 -0.22651470272991955
P 6.3296451442760615 2.3277310080532367 3.2375475509094955 -2.1358555052895087 1.219496597995403 -0.00327738519969113
P 0.27722197872902754 1.486400817411382 7.61316726191318 -0.7644882144323222 -2.2614196990462796 -1.8993224990916384
P 1.724981580218573 7.601205225693263 7.7839997140599815 -1.4085647258430902 -4.308546691350128 0.9485051530093471
P 5.121748118317871 8.940592627257116 7.066783201577115 -1.4937284042956276 -0.47168815821160703 -1.4286072463162622
P 4.719608423716729 5.839470291512808 6.814038361691746 1.2393167180451237 -0.589008881012663 0.5539786288814073
P 2.755200214426288 4.360263984968016 0.9385192949298289 -0.5737843507534247 0.37409782395994284 0.16409731683496254
P 0.9712868526906857 0.9904722150015923 1.5083189784235516 -0.5398722713870121 -1.3193749569502957 1.2387852710216858
Ni 8.318109418324559 6.562602290708206 2.7806672956566287 -1.2180683501893088 -1.3430008238993514 0.11223045276234221
Ni 1.1312857099860525 -0.5765601069475611 6.1056922907075695 -1.5563442793546358 3.3282732447902483 -1.2226302585283784
Ni 8.248413756208677 4.303321383458028 6.623167244782418 0.9208123150797691 0.4216850868206028 0.6099574582398721
Ni 6.107609897415292 0.10879885115150237 3.0917350792531333 0.048524687073264815 0.4441747832826866 1.5957718892226387
Ni 5.526787925826476 7.61124407806525 5.057287531809307 -1.4057897342011145 1.1517017498386164 -1.2575244993024022
Ni 0.9130475660826497 4.124592630301966 12.986488091149655 0.6459788706398036 0.49194870823285597 0.04236663789166897
Ni 5.505910830986216 1.2187073827254313 1.0745727007479058 0.21042396781564401 0.7323869630224032 -0.12372765476866432
Ni 1.52317276184062 6.124648060746635 4.117855444932322 0.014041565694730657 -0.36603844399057606 0.7485003236444979
Ni 8.513969287148743 3.0890943033652802 11.076618735940132 3.7023582132343846 1.4034582578544603 1.0320156121291775
Ni 6.243859432663969 7.33810363644413 9.443573523458229 1.305855839417938 0.919584356209939 -0.10610891324563661
Ni 6.909305211655157 5.652868475431679 7.955144486058357 0.372640522688126 -0.7647121575176701 0.49911360141241146
Ni 8.243570939462561 4.0083371426941605 2.475164568463001 -1.4917226867195081 -0.414727424555847 1.7743679138944086
Ni 2.057871783920367 8.244054291613805 0.6360914310368063 -0.4659684821190104 0.7897385043586787 0.20806318089295134
Ni 1.8902787207102663 7.868275879722805 9.980543371125453 4.420456527548258 -1.7245918709125458 -2.2417651580401454
Ni 7.986018604719053 2.7516215494603484 8.709623731308646 -0.6369936364220578 0.44395238285923544 -1.689379070456839
Ni 2.8981516131566343 1.8014627629192226 9.352314778256666 0.25887717822102513 -0.3017809195630867 0.9700695094436841
Ni 5.065502659333716 7.3712783254400716 11.43517865696644 -0.9719219892713906 -0.09283199363107238 -0.8741167107954428
Ni 4.510735227743674 2.8698011504394514 4.432677573411276 2.7500308582654704 -0.25805699631257495 2.216618483571189
Ni 6.924205471240615 1.7552096801386645 10.452253242187826 -2.3373343480967232 -1.7365413299649384 1.1079914534348596
Ni 4.855411787748874 3.767785790347283 1.2615574804565597 0.2982351111933574 -0.3532685459194174 0.4024236674878295
Ni 3.1763486618984595 8.726700005098069 11.996800393870465 -0.1817350845213838 0.38337153595238493 -0.5380218484418346
Ni 2.1421423724429833 1.931075501321976 5.611522346509613 -0.3325565101830466 -1.811229048586816 -0.3629883443103426
Ni 2.801220916364902 2.522568401172866 12.129962052491388 2.6735960750454986 -0.02671710427987012 1.8537101005691623
Ni 1.270463243843226 6.361137395976328 1.8426768995230642 0.2556442731060242 -0.6466429865863638 -1.3189844063800962
P 4.5622772984868805 1.5630307238508756 11.021194046089724 -0.4453466921036007 -0.24947054019514453 -0.9590644165824322
P 6.009870515293594 7.4625296344546905 2.419658080556228 -0.40964589626788156 -2.411541784648073 0.40396658649491723
P 3.014871862448328 6.053883446757811 10.97189119713949 0.9032503949366056 0.5235318823557757 1.2368983384116183
P 3.5923475499131485 0.9574183640434604 0.055424689850408645 0.11277681218411545 -0.5802455329977362 0.16185351510610832
P 7.643916824442593 9.181748169793048 10.020581660669055 0.09240570472693117 -2.3674453085494904 -0.3416057648695085
P 1.4088692733051453 2.772684548974164 10.729553300879745 -1.8107433671996493 0.23560380951538132 -0.915693762906281
P 6.8529296193995135 7.05530544703181 12.691678600778928 0.3046916654519785 1.098748851790669 -0.7305614797778902
P 6.625772698782295 3.858953442258801 10.965034103255404 -2.5996586043260845 1.8938774168166672 0.14593221589016156
Ni 0.5293895846030077 0.5920626976753374 9.58893796485132 0.043916498877292105 1.6872453119432875 0.5975030345266032
Ni 0.7622138091935591 4.871548313413474 10.214976600665624 0.16835712055258104 0.3795357071460625 2.940705411368329
Ni 5.953327608831751 3.5436777063763722 7.018500969284701 0.004380902676515036 0.24475925076240426 -0.6173036141922982
Ni 3.785502505737103 0.20126225863770075 4.560151478544776 1.4874852515993928 -0.33829906909377866 1.1371660181162866
Ni 1.0961869076188122 3.078479146505273 2.726072670173644 -0.13628877926312657 -1.2176276631074643 -0.4785792289044855
Ni 4.960429337840262 5.110640314072942 8.914861561390328 -0.16919170063873443 -0.1868559506877169 0.5745461686201138
Ni 9.07823644755746 7.326029127896713 9.773251294400986 -2.038437177839335 -0.7995626895379521 -0.09024135008576072
Ni 9.294183316359293 6.849759944715395 6.680332931900672 -2.213260365732234 -0.3901618194013409 0.21465214696437868
Ni 6.076229188519157 5.234898997877304 3.1909793597072613 -0.2423735241390471 0.10860468308429683 -0.4611479208019154
Ni 6.032151190419197 0.1694865023102615 12.207126434867353 0.9266422914979847 0.7539001545038305 -0.7073796423447882
Ni 6.257012188318007 0.8062769349196357 5.638118798631801 -0.1910152242717291 0.44629877160422493 -0.5208335095880062
Ni 4.153454330871425 7.311454201489977 8.154328330445708 -0.7102682767464928 -0.205049333767292 0.2949222447700405
Ni 4.642132651012559 9.178020781088264 9.461735480541211 -0.724424770752533 0.9951429074725443 1.6867004951834113
Ni 5.323835793706157 2.6439455625371204 9.089338674662182 0.2387832356846275 1.3217655686696592 2.1746516522210997
Ni 8.208276937188089 1.6462602462015823 2.937268745042772 2.0708515896142985 -1.3999170774704213 -1.4598453783949374
Ni 8.525067796159993 8.759000942128303 7.977714242951337 0.607413865882412 0.9321894465684591 -0.7040143254169812
Ni 3.4176529281732355 3.9604295083189602 10.390256822127236 1.0280311735601328 -0.5813511073570891 0.8850901790878112
Ni 4.769031181181405 8.253321639590537 0.06862578071957035 -0.4699557489015325 -1.1092968025098444 1.8909605002801884
Ni 7.828259898740027 2.922625963430189 4.837207072590972 -0.8414400464980284 -0.5394909767881935 0.32039673489206116
Ni 0.5067333820368235 6.530505848818883 12.445246154084128 -0.3178125191046527 -1.9931181421875608 -2.275992968874764
Ni 9.075921934371696 8.151826983063023 13.496548237319749 -0.6606588412494815 2.5134597997408132 1.1094793508342955
Ni 7.800662349950743 5.820740395652112 11.098575936933747 -0.8817739702303847 -0.5566127240701446 0.3355996678847446
Ni 6.23745501665999 5.931455923987969 0.7365375852054691 0.5282765961296128 0.0586445491160861 1.0456146909698507
Ni 6.473098485625007 0.6148295135222869 8.23092105595049 1.3533081193626306 1.318953810252477 0.3478509744482719
P 7.280686978016576 1.7566969175271068 13.267747919388302 -1.2130341301995111 0.29276354655582487 1.2819790328003404
P 3.151669816483994 3.5542463870679906 6.386966061796734 0.4542483654686048 1.2105417027949603 0.24811531171883072
P 8.860681503329372 5.138572491274626 8.63392799585377 -0.3588372982564465 -0.012504560224913948 -1.4405011695403707
P 3.057007156709636 1.899295097377698 3.3693753434976603 -1.51995854163675 -0.8818631875100812 -0.6365665761869681
P 8.742464721415558 5.21145641854198 0.9630865975401615 0.8811247666821598 0.9426970309680023 -1.791020177739109
P 0.9452230174582329 8.77219087871705 11.412255681193704 -0.9055101375050598 -0.38332294210263657 3.518751365611585
P 9.106568319807286 0.77673203467486 4.800271532049005 -0.6249112513362269 1.1011464054885682 0.1352881059127541
P 3.016972585259503 7.548343231767815 3.3513091273215565 -0.10546279502120547 -0.8351968938017937 0.692447189404672
