# total energy = -381164.9244284146 ev
CRYSTAL
PRIMVEC
9.25675321518569 0.00000000000000 0.00000000000000
0.00000000000000 9.25675321518569 0.00000000000000
0.00000000000000 0.00000000000000 13.54819401737528
PRIMCOORD
 96 1
Ni 5.000942278281468 5.63455776229268 13.265889707642204 0.9145727619279604 1.1931535892255 -0.16994580519593958
Ni 1.1551409463144078 0.6175328014019524 3.8019345053197653 -1.6478907214050653 -1.9998688306478332 1.0684034067295922
Ni 5.804095192929581 7.312945926962617 6.07589104794556 1.4838294000143606 1.3053483036539004 -2.7121353687712775
Ni 5.658625320013451 1.8786580151656722 5.563335379269835 -0.26684245581468885 2.2229480253336424 0.05061036595769994
Ni 8.619971676001036 0.5813749986276798 10.33177116483919 0.47613616668063163 -0.007357468806335716 0.8775437341991209
Ni 4.4923855268885795 2.116343661164238 2.3606913922749735 0.4918450927754562 -0.2370022325248047 0.6044092747281332
Ni 1.4846072980058422 1.1055710341625864 12.632633385646212 -0.5013671733332784 1.0418264275720122 1.8726575882059424
Ni 6.146095188141756 9.247579527335024 2.3808239043083996 -1.6888203697398916 0.11373789054580412 -0.3365157519411108
Ni 6.275162094795882 8.198761645628613 13.733803759447085 -0.5329421199260822 -0.41286543164644385 -0.5143725844540109
Ni 3.95599371931632 0.5931847640662034 0.6675220444632937 0.8192344569352665 -0.28941468468824993 -0.1574093632918257
Ni 3.7878355448718777 6.633703907564604 1.727611874260699 -0.6247330738871499 0.02974843490702619 -0.24146746738500993
Ni 7.114268237977641 4.250432517771062 12.604642816016954 0.7784649883273883 0.015136341420806191 1.1783784877988546
Ni 6.3386726769198125 4.4490546662382195 10.443245612474728 -1.043803348792725 0.5778014423326179 -0.9061161465201749
Ni 5.631614114848369 9.437722490082095 7.130874852804974 0.07941006379821162 -1.884910951651999 0.3606370704693467
Ni 8.889167309107876 7.058320423029815 -0.01654366890714013 -1.956467580844063 1.5087464749710147 0.559398514345398
Ni 6.921477843881285 2.09925569518249 1.8912740437878417 0.2627716281794249 -0.1960972667803268 0.2429363386210526
Ni 7.90866426431658 2.1810853914331156 6.195954836661524 0.350740380180925 0.139408812949347 0.9688976006227701
Ni 3.9603166229530897 6.145169512844803 5.610131042556689 -1.4196510655642391 -1.6232189296899981 0.6471155553474081
Ni 0.30966893411550517 5.709750366664154 4.961050301359289 1.1783682033862093 0.9757141093239713 0.4787252675640465
Ni 7.507578414899909 0.8141647479806626 8.2050840079068 -1.936907399323948 -0.3374398064172769 0.2510674523686192
Ni 9.54898866077582 7.689010773102654 9.26163960942044 -0.28475096066399347 0.09555762009235157 0.8604458981765697
Ni 3.233781852633759 4.289329393749017 1.3053539794521236 0.4402312252539063 -0.5372680009949456 -1.0086617678945855
Ni 2.811599863199534 4.329485188130829 11.1386610306611 -0.5192761924032153 0.17321624841709524 -0.4559062127870019
Ni 6.200256449766464 2.2006356537047584 9.601604970329912 0.2497127381129377 -0.7921885085610679 0.837830474769899
P 5.085373122116532 2.093192521987449 7.741491934063392 -0.7845240500372748 0.4823484661389305 1.048224617788872
Ni 6.216113267603264 6.035939827804375 2.106987860937936 -0.285193961738683 -0.21690289067176838 -3.1348769218808528
P 4.092391974322313 7.842756183173542 12.249775008501839 1.916241129223848 -0.35445793824182825 -1.1883343134599855
Ni 8.774291004756035 5.782489931498703 2.7991384223519558 0.20858562905532463 -2.6533892610803207 -1.04625695253954
P 8.042498398750013 4.420997447987581 1.2429495793080518 -1.3905855156568503 -0.646883384731944 0.09607878270314421
P 7.964306606416411 5.822303226020642 8.708020058896592 -0.20057124339128038 -0.7921648544119841 0.5493562996180474
P 0.6277254120966996 8.22213494687667 12.022544864982354 -0.8599532748108675 -0.22618945818001693 -0.40635616977301636
Ni 7.5572686648403335 6.652624710634319 11.762244045803936 -0.6018530839651829 -0.08677190347992153 -1.0146421538477366
Ni 0.060228137520935844 3.901184484983746 6.9234254647060745 1.0341151749706836 0.7692568394655591 1.7750726532709171
Ni 6.977805185700862 8.035861306870862 9.575226927067945 -0.1848898281002816 -0.8844895693893348 -0.11716825638359175
Ni 1.4194952976181836 4.209452872374961 2.7471265787667725 -0.024098178599784303 1.2472038341026843 0.7598867111045687
Ni 0.9962210113335541 5.245940759125961 9.264634169006081 0.004417155231089168 1.363130247659375 0.057657245502152316
Ni 6.262572910757324 0.1784535350971513 11.197798722682224 -0.4232220922904195 0.02818494707464823 0.6493213047494752
Ni 6.721467182468697 3.845912413002695 7.903257394907079 -0.3604576074686889 -0.1565470152915304 -0.3690425209242225
Ni 2.0039018828433837 1.9124081364925707 1.4158536909999713 1.4331562991395252 1.8160542378896014 -1.867965839157228
Ni 2.311855540633635 4.233418605813069 5.617853025883869 -0.04960557884226941 -0.5459493308190275 -1.4252969509961066
Ni 1.1714328315407767 6.412930349241365 1.258337079769298 2.6052818640501325 -1.0571090647626955 0.17022425566830685
Ni 0.6819764642252113 3.198809839914883 11.782023875549221 0.22676255707466753 -1.0629277283270018 0.5679628589756411
Ni 2.7416743512677213 5.9210542666995645 12.862831244167726 0.4771764350196879 -0.6719524118854299 0.838006338226131
Ni 0.009988962129417476 2.4215943470873875 2.573642068663664 -0.6349709495650742 0.012273418050714347 0.11117450069400207
Ni 4.585980556163475 9.229112305160815 9.451531714162037 0.09170662177737754 0.010632540013181688 0.04377611664468589
Ni 2.5139026876995194 8.016588747188305 4.782092273225298 0.6083062957896943 -0.10391139137368556 0.07035695245700786
Ni 6.42008581928681 -0.16194226482540455 4.737370122603618 -1.0933917012438137 -0.2916831690074525 -0.1353140740546831
Ni 3.396821042686053 0.4241897791533157 6.294504080125711 -0.39028137569834076 0.046147187980023756 -0.3537184889726424
Ni 0.6855227262878374 5.877140230612125 11.854818055226293 0.47614490843137997 0.7254249298822733 -0.22807819056229753
Ni 4.02853889233851 1.1477910844566026 11.976508255439 -0.40864882246193496 -1.509103601200117 0.07530324071868966
Ni 0.9807714906274122 7.559582853082716 3.0960876522120326 -0.24157905326220974 0.622647652113031 0.9377342876460882
Ni 2.052222133344319 9.335805639887592 10.868618404657548 0.7775375914171125 -1.1900404975178152 -2.905020299261894
Ni 4.759470620318366 3.4005607708857424 12.436063459312399 -1.368258570024876 0.19954871566403698 -1.4212114680728232
Ni 2.696834639883328 6.812692482983394 10.50270914220038 0.29487545069250504 -0.3543558654463252 2.0516853010984923
Ni 2.532962342063777 1.0138551257405046 8.546254598052904 1.2261562694037655 1.4621454872830237 -0.06971263400478962
Ni 6.894133395609299 5.714813810538486 4.142536730833542 -1.0000328885749938 0.478850223177685 1.0073142527277554
P 2.896428747412287 5.414719136019363 3.683632276693903 -1.3807384476594415 1.667550918838154 0.5011239469742209
Ni 9.504000841343913 3.468070270292509 4.694490065822874 -1.286062973061727 -0.9192814802575393 -1.2921834841371682
P 1.902244221732029 5.285281959246454 7.347903128876741 0.3461491612658168 1.098407152180534 -0.20086357782071856
Ni 2.479643444959297 8.133075726556843 -0.09020890903864258 -1.2064528774375674 0.4469831992657592 0.7724612053354697
P 0.005628105805472918 0.0011228441352037252 5.82520799510248 0.28759074410563373 0.7384431965188122 0.06325787951838138
P 8.190291716661495 0.30294297740784626 1.4729058365770622 -3.1135750750792828 -0.42802594143696604 1.3419829241577985
P 2.5277878171538113 2.9626885851681672 13.008284454928512 1.6346438836974877 0.7560254283769496 0.1579644644643473
Ni 5.715156310398357 6.118398983256929 7.786729685825474 0.6048255363299455 -1.897583404913345 3.0003750593148197
Ni 2.948201766770856 8.903348654657192 2.576582013406786 1.050029789318411 0.34722568215944716 0.11561736695670409
Ni 5.330510454255568 6.621077696514168 10.826673279926727 -0.8910176003158398 0.6075316224071989 0.1290701500275003
Ni 3.836322416926264 2.4313787349761786 10.169315150223976 0.2733476039230583 0.43224460750400395 -1.2502194810005565
Ni 8.597126009672243 2.9454617678918757 9.168212127374291 -0.30574556063778957 -1.292281186057297 -1.4439862998754935
Ni 1.29586210495717 7.698017593742004 6.761889571336031 -0.7262281425098589 -0.4259747153348922 0.36645470559238824
Ni 0.8731700684343239 9.370981301171799 1.1375049805568633 0.4457714383458452 -2.4415115915372856 0.7985463324582956
Ni 8.128188160988932 1.1556963514925795 4.199330613002783 0.3799756228969585 -0.3032197088921423 -0.9411664532560888
Ni 5.6117861499876405 3.6867332889386946 0.9266046749509232 0.7315901781527206 0.9902827511667655 1.3577309310206747
Ni 6.071735691537539 1.5566248361087687 13.0871482875277 0.09218690384790575 0.7163558777014696 1.1083845751082202
Ni 7.693537325304753 7.622065935627028 2.791280364756124 0.18161038601806143 2.8004180524687707 -0.7524611080644589
Ni 4.739364952868551 7.315093493651546 3.7953770215161517 0.7149715957594333 1.0162182400856046 -0.7310384194143088
Ni 8.663894968841445 4.516129098255418 10.646874738623103 -2.4702380129377004 2.060530667304264 0.44016463368202907
Ni 4.12637351447345 3.9510598699835615 7.1335037706483195 1.6125275114144229 -0.17555826628671053 -1.0129665659175264
Ni 3.842913225040568 5.291974591643424 9.060382063382857 -0.4324775494504165 0.22605473237436555 0.4730372160403337
Ni 0.7740422779095412 4.1372501992126445 0.46477230984702256 0.9142256630011868 1.0721286780999795 -0.22114366822599332
Ni 6.964197758835656 3.3408732277382267 3.8162278575800137 0.8196520040886595 -0.4471824597607589 -0.31055763731445224
Ni 4.736337994647515 4.716510029786788 3.288593863992224 1.477111878784869 -1.329989242131032 0.21453104800548214
Ni 7.610328372861668 5.2986857375463305 6.22639752015241 -0.22214562712794644 0.4795246235368903 1.255650936428773
Ni 8.023966379305019 7.574264063292388 5.083106143314295 1.7941034446501232 -0.24421674799537293 0.7773180192071387
Ni 7.879172249355664 7.56852487645128 7.511795791552826 0.36445901531859815 0.7343541140511031 -1.4796654984446582
Ni 0.3464987771553656 0.8557081296326065 8.051095145232813 1.3135202979417313 -0.7158701963143026 -0.9862139804140306
Ni 2.541469298042773 8.073804737292956 8.749803190450447 0.2957164585365617 -0.7218464685023955 -1.6209740995198791
Ni 2.424667589073271 2.2405877995212404 3.5041586474195094 1.7358810706731203 1.7968560676945957 2.4362246321067333
Ni 8.707994139988278 2.262841033659986 0.3509040658935639 -0.008162738316450459 1.06361189887822 -1.1038959432092472
P 7.521232125529963 2.363147208837789 11.487933131006136 -0.1726621756858381 -0.33212816439637644 0.19659528946266785
Ni 2.2956006824191446 3.446298387308179 8.536188804873841 -0.49852816122258653 -1.170849269301345 0.06313369523569128
P 5.860126318654133 4.1370928344121625 5.373172977341527 -0.9340241857843528 0.9298767392748826 1.384454720168764
Ni 8.083866827770834 0.4283534666390093 12.862126805266747 0.9661007546039232 -2.5367416530868896 -1.7031558125259574
P 4.238759752276486 7.657843285854254 7.5015939241051095 -0.6643506882787719 0.8311587191766782 0.31445722947917454
P 1.1007204956065537 2.0785390820366865 9.95331622508242 1.5858965390904558 -0.8402681376771141 -0.3468803830048865
P 4.49727309245649 0.6574321837265082 4.28285522072213 -1.8536645920432078 -0.9679478351149912 -1.827138263617905
Ni 1.2787556254694823 1.95771068552544 6.020871685320577 0.36397796191712156 -1.155038013300701 0.4733066676516364
