# total energy = -381172.88500869443 ev
CRYSTAL
PRIMVEC
9.21385558858296 0.00000000000000 0.00000000000000
0.00000000000000 9.21385558858296 0.00000000000000
0.00000000000000 0.00000000000000 13.48540900468689
PRIMCOORD
 96 1
Ni 7.012481332923663 2.617942047623027 11.636532236601248 -1.309659015214112 0.352531924863709 0.15922173391021613
Ni 4.383003537903752 7.415688874325451 8.751329403600447 -0.07905319467942515 -1.181683126692055 0.6314863334505834
Ni 0.30653115996264635 7.711103517327761 4.060119626759006 0.5663685179053277 1.0003979852238964 -0.8445060870178618
Ni 4.8908620528948425 4.448431127572501 6.642508169206029 -1.993274722370083 -0.15702575470016183 0.7951437345346499
Ni 8.443429986059177 1.0145192287349014 0.06785175511612859 -0.6715024688322049 -1.343413743067054 -1.541156515870604
Ni 2.6341584337400525 4.581930683509762 5.401418384849039 2.0526854602282327 -2.4786511767020603 0.2563760090657262
Ni 6.600281068311525 3.9111159157540634 5.233889295476545 -0.03827626987237925 0.7336766283681041 -0.569264351395884
Ni 3.170810247944612 6.268342701122914 0.8806833670628266 0.4339636470776398 -0.8865891322308408 -0.645917678384565
Ni 6.319175543286341 6.310109109230003 6.137061841649847 0.8324890079523275 -0.0680226478968764 -0.16560398328747608
Ni 1.8962667961366577 6.426129980812721 12.157474426754941 2.2443018084190705 -0.30173361126491904 1.0804924766836423
Ni 5.352549936731154 6.406228052396371 1.9892060376842844 -1.8018329520838967 0.11974732996467764 0.8513490780816242
Ni 6.9655828071647665 4.071003954554484 7.809117750621557 -0.4981432670793421 -0.3194945347927659 -0.39391383024460547
Ni 9.095761759183766 7.149491367901032 8.872051184385953 1.0125515898672948 2.313578640438022 -0.10951896736845008
Ni 1.3819401544102534 3.123045619745373 9.583230932789423 -1.1336613473971378 -1.7182980674840342 -1.5799333795284856
Ni 5.54140633800426 3.741636253119652 10.251095423934512 -0.265839211361155 -1.3538863604636038 -0.23419638764489345
Ni 5.513156656279942 6.9955001967795285 13.101533457811367 0.5623725093720572 0.01016382790687927 0.9717129585843781
Ni 3.4953130335443365 0.9244537887951726 0.7153563892141784 0.6696407330331177 0.07162836297026373 -0.5989773050792846
Ni 7.581934473592205 6.584451664135929 1.8378048814136316 0.3620925719689506 -2.182207610191487 -1.004495809442354
Ni 0.9663860463057308 5.076364610675566 8.656391676741013 0.02183072272184627 0.20415741808064194 -1.0457337330462182
Ni 9.035493928734072 2.0076162428549824 2.0489597349832236 -1.2297326739011143 2.5975726683313325 -0.934646392749384
Ni 3.2006631405691355 5.350089837246355 9.989816273708541 -0.28484069216432234 -0.2519585967243209 0.4441729835104737
Ni 0.3059138316275096 8.166535193110969 11.496540597903728 0.3299278143109479 1.9631722465577481 0.25033957306365917
Ni 9.056363312003993 2.639318192959106 7.609128247447767 0.36727154506672877 0.0892447905004463 -0.10021980145471127
Ni 3.921988265537069 2.8434143116399175 8.509171768208944 0.4826248597287688 0.7426528637247856 -0.3716020541212826
P 2.1949892133526117 3.605833233245313 7.285545926037299 -0.3408529458638839 2.3821633314859554 0.7577208138015016
Ni 2.9990547629403674 2.7084589664944234 10.885867430773974 2.2644587429829195 -0.5964717650486114 1.5861119975353717
P 5.044724230035869 1.5128874723052332 10.939094032660808 -0.138155143047904 0.03550847731925497 -0.892789604614598
Ni 7.835601136198925 8.282933832779367 5.750245749624303 -1.0265916129001287 -0.019429055258889116 -0.12058191005083106
P 3.3366135821354472 4.447408389584438 12.350625406192334 -0.5848434367810638 0.1870935206198197 0.24165567213641606
P 0.9494601932960856 4.839679084212982 4.152588961663469 -0.4840955307370243 1.0857154156454785 -4.142589438488291
P 5.543663732662597 2.2372255281028637 2.71237393380188 1.1081973987980784 0.318321083309955 -1.6529177423060113
Ni 5.4880581132215465 0.2906556865083085 12.842155126026272 0.37754053109290464 0.11819901164095127 -1.6629159911693037
Ni 4.710574537467664 5.556010299365332 4.4958603714225 1.0394414722796033 -0.31612716098242977 -0.05396848379665544
Ni 0.211191708992585 6.026847541959714 10.81467749572023 -1.0918210143225842 -1.5302933479038547 -0.7947380144557991
Ni 4.042901694522139 0.7390608758978552 3.0793664151849356 -0.014741162864916548 -0.17223691522296145 0.31934669636099194
Ni 2.536841689326404 6.69489815299092 4.802545402776143 -0.21886207128066823 2.301943884412571 -1.195407161146367
Ni 8.512644470440481 3.1490563345228524 4.1685961932550075 0.9187680309562305 -0.138523067910284 -0.015208846529954455
Ni 8.222113170984775 3.7156255383421732 9.702388200868866 1.0179064264213051 0.035924738921067165 1.0331777507580786
Ni 6.644627356028141 2.5822936397328164 0.7586651967735341 -0.9760648077951706 -1.8948091846023174 1.8201602896381748
Ni 4.171674542460518 3.2193672677382046 3.8030604224657596 -0.24784483166626345 0.5890770152464371 1.049558248998631
Ni 2.5562184279650992 6.145807633526142 7.093446247540787 0.13920389602739253 -1.0668165218584464 1.3579890697780677
Ni 8.736762297662368 8.454090417159971 1.7473450884478754 0.7778648928495442 1.785739388956144 1.2869150366493771
Ni 2.5546705001993835 8.409983689692812 7.6091964299803045 -0.780382002844443 0.766959301680634 0.19494721233628362
Ni 5.80973224510654 8.737877174207915 1.4874811864648434 0.39979779982920827 0.29480963045157615 0.9601494221164948
Ni 4.053681905747662 7.450508035198314 11.430610853096697 -2.2103218519292 2.244210534256845 -1.259466196409805
Ni 6.450196572027306 4.489386716373738 2.66254540191502 -2.4598564125930604 -1.2046050255955512 0.9163398811307121
Ni 2.3455896855587364 9.299176052539204 4.8232323517022495 -0.5503752278008649 -1.6837015604560874 -0.3040671444941021
Ni 5.0342296483385445 0.31807335705855416 7.235218924554456 -0.10046688446851085 0.9431577726545047 1.4227417886744207
Ni 7.800155433135176 0.6725552651065546 11.036701934916106 1.1469567789544632 -0.31986425942735885 -0.4357487640025205
Ni 7.348612004477755 7.625138243196031 11.29359897534818 -1.1345609763932718 -1.1061595424324433 0.6763927070449706
Ni 7.378999300735681 1.7932558888705536 5.6756715653542065 1.38320310714985 -1.9170538549331306 -0.054280358610119414
Ni 2.6306848101229394 8.175159362091387 2.245280280798036 0.990427761385062 -1.9615156847909312 0.8218150731782492
Ni 8.057166725378531 5.855792309992341 4.4499560206988455 0.13440158954274273 -0.7556418197852857 0.0800132445998493
Ni 1.743077230465258 2.3143455007162173 4.394543892228511 -0.12794374973254094 0.6642002787438367 -0.03267126498077599
Ni 0.8375118459541209 0.5279990822713213 9.16186564586444 0.0074130046346194915 0.03271291685198882 1.1205428077373087
Ni 4.294882221526917 4.065890264614172 1.1222061677932729 0.3506280229727768 0.44596581374483835 0.0677529391752575
P 8.629771004712996 8.96386541414671 7.752370534453291 -1.0447099197673944 0.1267949808400784 0.08951244233953616
Ni 7.264001167141026 1.1320235310930968 3.24158187394738 -0.7283333617783199 -0.8576505948196197 -0.014318473505201148
P 9.366805753731796 0.7945937058784934 3.8116781417471537 0.6884738065792207 -0.7305082579424516 1.2349211600805892
Ni 2.1387017685861864 1.6182479127871563 7.372271343268265 0.8259368086561065 -1.4423526209268127 -0.20255176415641887
P 4.713043850808211 7.573282663044543 3.920140887459533 -0.7038556883519298 0.7200945188082953 -0.71455739104015
P 1.9071022904966701 7.7223536351964475 10.152598384599505 1.1928663970023843 -0.019734245204133756 -0.8313389535082844
P 0.6219536907224118 1.6721397550590207 11.429814775960045 -0.685879049268851 0.4740445742589255 -0.5889021802314697
Ni 7.183941974543961 1.7608415443479994 8.862691749716818 -0.8178609736265077 -0.7270154142978448 -0.44357905868021674
Ni 8.992502077812457 6.051227404269742 13.359306735925108 -0.7892903610776665 -0.13747148671731807 -0.5667081606329337
Ni 8.476323451080644 5.768435743642615 7.09917818720181 -2.537013161580721 1.212280539862938 0.9775377927962714
Ni 2.338301525661823 0.4282268453007481 11.832664819758797 0.8333133036258358 -0.8160252059693495 -0.34364413545577593
Ni 1.0972596533547239 6.170150640413177 1.9589440498645356 -1.1767970022443475 1.654768422361505 1.9021530265618984
Ni 6.7058534274756605 7.963793511225159 7.992221941750994 0.6753745501931013 -0.4224343062818015 -0.5951625593188847
Ni 8.436058901460529 3.3961995872597672 -0.3649000147426144 2.068546595630205 1.2992565889338656 1.0909838631332696
Ni 8.522051817159506 4.497798966671945 2.3038739536582633 3.0571470739985416 -0.2354217754115623 -1.238653373429512
Ni 3.482994108408846 0.6174674643585596 9.320534691549359 0.20780504213555825 -0.31719416879436335 0.9312437948257382
Ni 5.487256507771443 5.94836391869561 10.868659633778428 0.40062055284081977 -0.439862786170894 1.0659881124198802
Ni 5.650489176208501 0.022323329707005114 4.862650147979093 0.09609832308716998 0.271939410721622 0.5367998031092756
Ni 0.6358352857928155 7.409285244580376 6.429249792369099 1.1431376623186893 0.28533742929508277 0.08801426052745487
Ni 1.3667188647140456 2.085758953456398 13.455269043543755 0.29996109274552857 0.19275406133970674 -0.12963810671582834
Ni 7.039606924246688 7.879459089560879 3.52393956196876 -0.7426369228851856 0.2637188225840426 0.8111804762825384
Ni 2.5140834656280786 2.8227476331964585 2.090373252415152 0.5431260024376194 1.223275091201229 -0.06575159247451257
Ni 4.707368115667253 2.6477765125360544 12.767081550774618 -0.10160228362453469 0.310421111736588 -0.3701799769627754
Ni 1.6406467961112974 0.8859619850210333 2.0844938910621553 -0.3441413868071686 -2.0412227110042713 0.8684173464178204
Ni 0.4027735687960421 4.426400798478292 6.005173789082964 -0.37660362110093204 -2.2164099671048088 1.539447246488981
Ni 3.944470073562945 1.5569665582051473 5.455697209062333 0.20603432338838065 0.9432030240701433 1.163199466065571
Ni 1.4357951412591246 4.436158271715752 0.6895032313699958 0.6546676566630532 -1.0758184682467407 -0.9104240298669095
Ni 6.430838261100107 4.667665611247786 0.005938330029785701 0.22504634571450918 1.6537456375239457 -0.676295519345474
Ni 1.1813637286252963 8.255577895062636 0.18671510119719986 0.8626421344969402 0.26844528152543445 0.1736289104744816
Ni 7.244974555020766 5.933833668180526 9.508494584658155 0.04808322866047203 -0.4828529165791749 -1.4736252057878494
Ni 4.352975582020011 7.489768274541862 6.429411956230269 0.2055185600942267 -0.21053966745790192 -2.0862141881132974
Ni 5.825322089032681 8.925849045329183 9.88670677818593 -0.5109931264588168 0.6132032188706794 1.074601565120504
P 5.144491860078569 5.162735294460222 8.702984302489066 -0.4356613464950368 1.1238914124945678 -0.19276408864203576
Ni 1.1014611715759532 4.056013011251984 11.745009724482825 0.45488239950817794 -0.31086822657633556 0.365972366639331
P 3.3882664574604724 8.134323553414877 13.379495215255227 0.5887425147251537 0.6269617061073525 0.16699135055330597
Ni 0.4287170224265581 0.6948638526443625 6.186579866597987 -0.11407881882499063 0.3393339381161962 -1.4282359790197725
P 5.8213969864839 2.351219351420953 6.841027141002389 -1.62481069965715 0.42674681761422634 0.911472782846398
P 7.522154977497172 7.879551228118362 0.051852815994763365 -0.3637357639993284 0.7916953709747334 -0.6501900805076738
P 7.727439683569514 4.941925241451977 11.48317682152638 -1.2229842994336872 -0.5495936124398341 1.0849317434019186
Ni 2.9606698398929088 4.992923933018871 3.014002401120851 -1.1577708388508319 0.7070500269195114 -0.9508520559749689
