# total energy = -381163.33313988405 ev
CRYSTAL
PRIMVEC
9.31155234090026 0.00000000000000 0.00000000000000
0.00000000000000 9.31155234090026 0.00000000000000
0.00000000000000 0.00000000000000 13.62839807704279
PRIMCOORD
 96 1
Ni 1.782650157740382 3.968099451125641 8.267367989561475 1.0987691635056431 -0.875890257756098 0.7529200499787484
Ni 9.159420300677581 4.187870711921109 9.910856996018563 -0.42109167621097804 0.7302961419316455 -0.2594425638061919
Ni 4.283500355526289 7.507662635649762 5.958921468781358 1.0506021168821131 -0.20436979120176413 0.9039515347686884
Ni 3.8369834811544097 6.682333184730079 3.6850375683647965 0.15748983882077394 -0.11642803578345753 -0.037128529421181215
Ni 6.58120041363019 4.188801867165561 10.688984325286505 0.32250658214621236 -0.4294878706944733 -1.693306173425387
Ni 6.0699868728738124 5.865263080828681 6.5107901786657365 -0.2915492145327495 -0.9130390988922533 0.3321163373218345
Ni 7.869760975559659 7.013265758608181 0.2839958314710294 -1.2509974968171618 -1.8905735492544147 0.39337672679421287
Ni 6.122587832632884 3.0036460951324426 7.083305393785341 0.4048235351785738 -0.24307183575765237 -1.7342070254048068
Ni 7.195688382548695 7.50607036018175 10.22439186530933 -2.0168746211772106 -0.12009365756050285 -3.957898099552061
Ni 3.451690064105223 0.9595182331976045 5.926936286134445 0.051953253138839556 0.3786245081857028 -0.6193424989991979
Ni 1.0230323324216488 2.7329499540179154 11.272116572503347 0.8862983404632995 -0.04229207589999168 0.8806899931375866
Ni 5.46169108633091 6.118593176634186 10.911291121812615 -0.7114039330128329 0.810535900720004 0.5435857156828574
Ni 7.7772041442611695 6.643299156882668 8.010227606495672 -1.174213043567255 0.4305962732673036 0.5164526069114912
Ni 5.28032997936907 2.305074807639957 11.643599094966827 -1.0719013925805216 -0.21409550312996029 -0.5255283439605143
Ni 8.840276152194237 0.16595979921861018 10.580951693825229 -0.08973895652804545 0.5600819135656676 -0.6802393344845704
Ni 1.9755762128383105 5.584221804948298 5.9476377295290925 0.45863415324112633 2.1741646852823524 -0.9099393769210071
Ni 3.0602510224426562 8.561897980312985 12.418455275861012 0.08308468443632143 0.7415146363552843 -1.8259275311392555
Ni 2.0643618653967715 4.907551288805314 0.41589210953711087 1.5989492585093559 -0.10681005307771926 0.18643917486527248
Ni 7.219209364023542 2.33273011840017 1.110598171609878 0.20878848909475012 0.7636389790581494 0.7703385025655121
Ni 4.610186861489692 2.8716641507838716 4.109479545356462 -1.3029132118498463 -1.079243948988522 -0.3893804611506262
Ni -0.2883406018416407 8.642657074664273 8.448816625116292 -0.00662958950137568 0.6821789747094444 -0.32936268583609724
Ni 0.8332898971045 7.31200829568559 11.990060544856648 1.343715333467873 0.24934121370613183 1.4981622716972651
Ni 5.915219559693511 2.4623096822180557 9.230704890416574 -0.6462303245289773 -0.8479739909618041 0.6819694298017996
Ni 2.7754013216124642 0.6843879308089988 3.244144871669404 0.6425359063965256 0.014506421146291146 -0.24303146943802015
P 1.0788550893265227 1.8746203612348673 6.852904064719213 -0.8087129885786524 -2.0586306220680743 2.0105833888518596
Ni 8.655264916674147 2.035272575560103 8.232724358691652 -0.09410391836496051 2.1535223264416525 -0.05893122711856947
P 7.241957486645495 0.7215838582038628 8.934055590328692 -1.1503033268291931 -1.6312443710976359 0.8514470371120691
Ni 9.344235993596335 5.803294699310427 1.421714830730805 -1.3665976373826851 -1.8508862579671221 0.10261529827008134
P 0.793652480658684 8.800124738053483 3.267530835633806 0.8889787155089399 2.2143204315656315 0.0054324838694809665
P 3.2609615353842 2.8210372401430375 10.188059118826073 -0.6510277459176207 -1.3918654108105386 -0.7038448897186524
P 9.161524711530042 5.456839767507317 5.7691194395285645 -0.7774943968840029 0.2858171971449787 0.7092694031683333
Ni 5.641394736957626 7.75120628983608 13.069715496538155 -0.2549647305404964 -1.6294083463301614 -0.8856054281613328
Ni 0.3037474965163369 0.33239914338811294 12.749216517174135 1.402970005364132 -0.1265730946372594 0.08436098004558373
Ni 7.768190561494878 0.8573164958770849 6.507015275304729 -0.018440980314006948 -1.2365630665593865 -0.3719594374607013
Ni 0.5515884321557993 5.797270124878825 8.175690168813746 0.6990819211123702 0.7193216451980128 -1.6681903521943657
Ni 3.3784081463668816 4.194947491778942 11.810574784557135 0.8114730678222927 -1.8550115929894053 1.6478837794265295
Ni 8.748995003580646 3.2493034717236657 5.703389190822725 0.9394643829633175 -1.3827526498759928 -1.4157920968294648
Ni 5.914232535134391 6.623670404329628 1.9581691966985324 1.263587160556714 0.2750296196111715 1.66736322830738
Ni 5.197811001605769 9.317698069129467 4.188006660586799 -0.7764299601752306 -0.6278952736652154 1.772788742332747
Ni 5.496628031102734 0.4984846485647241 7.44732005118832 0.47709004595346866 -0.5505055827311423 0.07953399097058561
Ni 5.024439206641323 0.5129389714243464 13.190109213869524 -0.4049628889699154 1.4543205919219664 0.25350280128298924
Ni 7.999983036496216 2.3123936878613467 10.693372859953607 -0.41901988128361384 0.28565084677044356 -0.5800904954771107
Ni 2.0336896116445353 5.283039641130424 10.348847281817 -1.2711914552665333 0.7619317665590555 -0.21801617834060513
Ni 0.6461565587823047 7.108010804731132 4.362000467254537 0.2791068750043387 -2.2110049940391536 0.03611551477563458
Ni 2.75190827479495 2.7323819493187997 1.674043934648524 -0.6901105708516954 0.18815564333574694 -0.7933367632328983
Ni 3.810231390981315 0.6176511032839075 10.066711898524384 -1.1499408012834518 1.237954033369642 0.17614782024159342
Ni 2.5011854136739102 9.060131216961706 0.8487833892169303 -0.4546854530060234 0.43867416517943164 1.544080117275302
Ni 6.420827545878289 4.016947855249572 4.7474931515260375 1.0857110447701044 1.2766905307078917 3.419790890485272
Ni 8.713145526669258 1.9391680427802527 3.134327215604515 -0.6341433114574562 -0.15444385290559853 1.2278737663155046
Ni 7.583942873275238 1.4706572815344259 12.732766728625652 -0.9230792567370748 -1.6519936878298451 -0.8858530253957646
Ni 9.10661448676473 8.621287061804107 1.4269339558759562 -0.056114583605380776 -0.14382519684948777 0.10832854660477471
Ni 3.8728515811706856 6.992668604600912 1.0187154967083711 -2.155422371677843 1.278008735298683 -0.23413468116902258
Ni 8.094476670703166 4.338215037690266 7.513295193723449 -0.7442657167378601 1.004866048297579 1.2120054318246805
Ni 7.864406832904062 5.743533155721522 11.787528692256956 -0.6445097422934448 -0.2114398106746681 0.39520092448714517
Ni 8.798951482445474 7.857935303955123 6.282664593017048 0.3857932580200001 -1.2616261801756015 0.8259208678165066
Ni 2.1620959198544125 3.2232963057461324 3.9185191589795703 0.6349318687970226 -0.18731309282979353 -0.8372347501674291
P 7.400551847880494 4.816791587128614 1.1222469237179677 -0.18872848512008142 0.5681901444950989 -1.0960023993937833
Ni 4.821512544217985 1.7602093163490982 1.5481992345161337 0.48405105065233417 -1.6030277994541036 2.544743440345443
P 1.3900471720222503 7.120469661901894 0.6578518686526169 1.7955969984765139 0.8623765395403793 -1.5185205236386428
Ni 3.3599154032120726 8.956083929946685 8.027944697331854 -0.6512349768324204 -0.7165880483169336 -0.4349995445413218
P 6.463837606619508 7.90322669504525 5.931432834809902 0.39006257481931533 1.120620969273412 -0.005575180094932334
P 7.097889147223943 1.9997769376416081 4.887674848957249 -0.7365837747125701 -0.3427776736904226 -1.651309260168311
P 0.7285042039806272 3.3720576675997216 2.3291610003481864 0.16401221332032398 1.2839459267187243 -0.7634780280002529
Ni 5.67769116838635 9.156626834944227 10.927372172884294 1.0164239283385075 -0.21757574836907692 0.22621414077036525
Ni 3.4690281747569123 6.395770158250096 12.229238943256977 -0.4191407231321943 -0.11268913756631561 0.7352100342934951
Ni 8.152469019327611 8.727885714188927 4.3565494844535175 -0.9658888957034333 1.4812503264332746 -1.5204213402057816
Ni 4.01785107583669 4.845787761440838 1.8651821716771058 0.4296380231190923 -1.2461219138924151 1.1379412057194143
Ni 6.309731413662767 3.9606222745126938 2.6792064667739024 -0.5821900583186168 0.0029264296181756052 -2.115461772124505
Ni 2.6263140554233173 1.606447650832804 12.934399085259203 0.29557299098016193 0.9855084697065738 -0.20566459875378776
Ni 8.778717478983541 5.157547848835681 3.6317224125332306 -0.32240348090944476 -1.8423913331222337 -0.2138738740374575
Ni -0.09322726307449504 6.758287518019997 10.024204661615167 1.007449235643723 -0.06657948769244663 0.6049736318720356
Ni 0.5491935008670698 4.979818247327203 12.476798670012615 0.27364713744134805 0.13332815397290587 -1.7141552489602543
Ni 6.638662003765299 3.6899261333981674 12.855831930353354 0.6714042526914437 0.5527460420258867 1.3695379509579317
Ni 4.1236023769490595 4.620047795528435 9.291010228668238 0.32605213340562555 0.09001843544167723 0.14919674557404627
Ni 1.3220076583101712 1.718651857789223 9.17074035498438 1.9950942920773251 -0.81211944315704 0.06756370598258686
Ni 7.859490333213357 8.072873869031888 12.011524604396504 0.635666432970202 2.09806003170829 2.7153777869679754
Ni 5.38740352092856 7.424240437299343 8.702372991646198 -0.5518273868663593 -0.3024838591673823 -0.795551768606346
Ni 3.4087358726786703 7.210149223495028 10.052170047071783 0.32128762213744666 0.6142969661554905 -0.1374768860339568
Ni 2.3120491604208993 8.324499950740046 5.388001322595499 -0.9084633065961129 -0.05741324781214629 -0.1906786668679168
Ni 1.9666371224915753 3.4255711594983556 6.043881004440367 1.6325535768273627 -0.294397482614822 -0.20734918554506224
Ni 1.7242946585705996 5.382068001377853 2.764493769078958 1.773292421442043 -0.08630087738077395 1.2461162574654603
Ni 4.171147163730758 4.372500173790974 6.913945015613994 -0.3237803066523134 1.236541983513464 0.38464603178943435
Ni 9.15954135085936 3.0383874973029323 -0.2096468098225463 0.06541169263659058 0.48427010864167563 0.09054088360405052
Ni 1.637948632752602 8.700891523652276 10.15327953929056 0.5119238658032023 0.045208735326154395 -0.10385199889065985
Ni 6.660357920961021 0.816508617288993 2.699757994174193 0.5119562617030344 -0.736105806634887 -0.3077677332741409
Ni 5.36575416149506 5.517141381138003 13.71766452916603 0.31649842827891944 -1.6754647743685918 -1.9404346957509162
Ni 2.7832137141134137 6.483624655564106 7.857697859367788 1.0086723094175467 0.45254012452824643 0.8723683606457685
Ni 3.83255118219082 2.342693479515802 7.722695247406216 -0.9074230382570566 -0.8764047354986714 1.7714031748391301
P 4.470904660024621 3.0400915114002784 0.07079014630418907 -0.7779839349259118 2.032941444832086 -2.2211587946437037
Ni 0.6804174848466571 1.4423874083128752 1.1520736885082414 0.978542579911702 0.4278865876456243 0.7535864799181538
P 4.358895995669537 8.750596590601102 2.2711314055139624 0.16685096832069976 -0.09003591894317398 -0.07132214458375459
Ni 6.984008860827511 6.3966826903896585 4.281470437093385 -0.7071202180358144 0.8864592915211958 0.04278984147201663
P 6.211019646198453 5.143105630994237 8.741159332198585 0.05906389604169183 0.25870080054416095 -0.6110674034745992
P 3.88286150004854 4.857734483227151 4.9501888874487525 0.12449872860673399 0.04487449191518723 -2.207533747661101
P 7.186581684257959 -0.2831549982852896 0.31777162565302264 -0.5465769371006974 1.2050053463577635 0.7429588250009785
Ni 1.143384147767019 1.0844792670030103 4.817243197422173 -1.1131524288105088 0.3473904898720856 0.8459623598484141
