# total energy = -340873.79818518576 ev
CRYSTAL
PRIMVEC
9.16059766438247 0.00000000000000 0.00000000000000
0.00000000000000 9.16059766438247 0.00000000000000
0.00000000000000 0.00000000000000 13.40746064922401
PRIMCOORD
 96 1
Ni 4.993295272970982 1.840996172541673 6.902656986644264 -0.33742900778399953 0.44525336105884605 -0.03495157637452045
Ni 6.896546867933989 6.890510034005847 6.204852116017984 1.981764664847955 1.0055553610551198 -1.1112703812964475
Ni 0.43905096187378057 5.590291429415711 3.182676558682897 1.23097554516928 -0.4059273097657138 -0.738089155613503
Ni 1.501513579911855 4.747919501196722 5.755527543749041 0.6890366210612262 0.49630441409839043 0.12671656219365918
Ni 7.848974217720064 4.67457059488012 1.5333979564980378 0.24535651802677103 0.958831988856652 1.7380667654705293
Ni 7.23158657064704 4.198402722975915 8.930843562126531 -0.5976657853567126 0.1144868528966867 0.6374410083721215
Ni 6.612934761082235 6.609572821701919 8.80715991926218 1.3873608380719655 0.04867406816693553 0.42900861706520954
Ni -0.04571504709408896 7.816554862224317 3.85626722123291 0.27998516384423394 -1.2239651752897178 1.0328360511479437
Ni 1.3975133134684452 0.3386077555431143 5.217473421513492 -0.5366601922076177 -1.3182796670035877 1.7884333908485393
Ni 8.307764435661163 4.443622764588144 12.69494784134994 -1.4815992251322614 1.0295643223752073 -0.1621219382761466
Ni 3.4273826907604237 5.894698093197487 11.957859579321452 1.0253150601805503 0.03401286661033497 0.2849990721190575
Ni 7.11557676053171 6.82815384500908 3.1105038731195176 -0.8563452457446349 -0.16277885513385515 0.2492142012099643
Ni 1.6964144579925373 0.8701926636359395 1.5834881050854213 -0.07338776886353168 2.874477907698662 -0.1163159356856255
Ni 2.4388625857742228 8.51865055684444 3.382836535941344 -0.6582692579713825 1.032948151245776 -2.5324715649566256
Ni 1.3941605346858954 4.597365076903809 12.128509606934802 0.8894893365967713 -0.416506885053773 -0.5682698486930987
Ni 4.0637510964056975 3.912097400380801 8.259626410457827 -0.007268508636955224 0.5379953660792735 -2.3840109262176554
Ni 6.1776323158145185 4.9542894476810995 6.975204340656296 -2.4075825428900086 -1.4373058025315246 -0.40346265027530515
Ni 8.726156417451865 3.3652463561100543 10.769141022566185 1.9279861855749185 -0.10954853505480487 -1.62561828316011
Ni 2.8172044341296587 2.4882382077358165 6.26612460629897 -0.8577683513444065 0.3183776475795033 0.8310255360329237
Ni 0.6110118710275195 0.8876161205878786 7.3139980563340705 -0.6471564358876725 0.761106699554599 0.138878908587806
Ni 5.7748866350090475 1.1849049999050614 1.5305957296412565 -1.1314987925281803 1.0368726831111625 0.8937784508904285
Ni 7.408532677105325 1.902527907739452 9.291866384344567 -1.8143585953547334 -0.5758245211119051 -0.08037191349084868
Ni 4.878714516107231 2.469697157856361 4.009098970130582 0.5291194037458823 -0.707996964213813 0.09796340132036677
Ni 7.776413122811384 9.294067675987863 10.92716133403882 0.43735158971326615 -0.3756484562765144 1.6645851513416108
P 4.988055411048527 2.7000678704890455 9.779013232671957 1.0760462679868308 -1.0673106878860457 -0.46828118941258706
P 0.782675976813623 5.8916018111524 8.335981824961404 -0.16541012210911513 1.2343331487876033 -0.195609785620947
P 0.8542248256691019 8.821728933950068 11.183980524543028 0.5013370914262915 -0.13444144164174265 -1.475949997266284
P 4.322629589287822 4.056990575253998 5.855454092365675 -0.2910859017430858 -1.8932384976810879 0.7894741949536984
P 0.5554510134539647 8.246553321385212 1.8198214508043398 -1.1950544057926387 -0.13381692068386633 1.4028501919568164
P 2.4275400869347923 2.354814101266314 13.057003062936264 0.920314549507744 -0.938195543553223 0.39009548493977975
P 4.422809886462589 4.111999964842008 -0.24996156701618466 -1.6877165951527513 0.6521675159490188 0.5456487688594731
P 3.107247280613517 0.3916503647906502 7.107643682865897 -0.23307950043163086 -0.19899078627803793 0.41283714951166967
Ni 4.006772178297884 0.2168148600577742 4.850108717461689 0.6500412136346353 0.16097008405989052 1.2258996733082692
Ni 0.8096356160405195 3.162027655257363 7.928998451629137 0.49202172756263657 0.6062712676375365 0.9591868010929094
Ni 3.0132870293222234 1.9425780411747189 9.016812107926304 -2.055616517832098 0.8666895650934364 -0.5031780012897721
Ni 1.772978734125191 8.757824603930759 8.988938241042309 1.083940583133243 -1.0466940400769584 -0.01942442727319881
Ni 7.592459159061705 9.019753575869137 1.291832993394654 1.098696915506811 -1.6638549580438056 2.2466178581467564
Ni 6.940728430961961 0.6696717588254915 7.190058832792032 1.23317512392376 -0.6578938769098347 0.13687859032832556
Ni 2.4441940536743427 5.366168244459799 9.499869665410717 -0.4530214350400391 -0.8320874016385347 0.3274148180811071
Ni 2.9219375483943906 5.424576215819192 1.112064506764502 0.4878809659213856 0.4885494527433199 -0.5441516154886564
Ni 2.0965218866412476 7.04594705690832 4.8958549105881835 -1.5031964916870628 -1.434024046456459 0.8201417992408843
Ni 2.5273447996011313 7.936036538893161 1.0762942046057575 -0.10976785015446257 -2.2489164243729465 -0.6060352403673305
Ni 4.699533223793913 8.127740368353324 2.448591140602277 0.5344729547483118 -0.5557894568379009 0.8793473630667631
Ni 6.505737446018307 3.2664676303935662 11.244984609309455 -0.17607017292612256 0.530234234076616 -0.1826030889486339
Ni 8.863226441832447 0.7676828264491441 3.510354805030765 -0.1321899266034046 2.830631085717041 -1.006985408633427
Ni 4.473733649446727 0.27368293493261286 9.143244846180393 0.31080060656319375 0.006786941014846375 -0.13985644200972688
Ni 5.950577739573318 7.594520293559174 11.104300729109978 -0.7984501732000635 -0.255449897707031 -2.042889557183733
Ni 2.276994823239646 1.9549448481595335 4.121386829373371 0.30266332216804004 1.3809271666314797 -2.828923101886999
Ni 3.5564097103019923 3.214545362252877 11.330229467885673 -0.6497501647567777 0.8905447744444792 0.4062700378171132
Ni 5.9132941066635425 5.515907375551491 12.433073832998161 -1.6324728441880982 -1.1889552348734362 0.7124801967961472
Ni 3.78215432106258 0.43896576831455186 0.16125858278310257 -0.36316035111183265 1.2402785677377608 0.0982415946824179
Ni 8.383586703374727 8.175549528096841 8.772152694897386 1.2850658992557804 0.16636965780890703 0.5265004780657965
Ni 8.060400814171565 2.2285535822502376 1.485399172380753 1.5672874086297008 -0.3350869899143842 -0.020271862875158635
Ni 2.778317696610741 7.216325014768002 7.120970520496643 0.9167898241839373 -0.023647978436243146 1.5752233756473257
Ni 7.850586482926973 4.308284093185437 4.259912472739054 0.9589618295662967 0.2369929765534241 -0.3847936131108921
Ni 6.406867114324153 0.2717060779345958 4.011177509763808 0.36986141728109206 -0.16046769050217524 -1.2950525781548472
P 6.477376235333131 8.87815821619189 9.240971935273283 -0.04173388940367651 -0.2844038617372199 -0.2754011440179773
P 4.0223726762942835 8.187284253835767 11.797814775742415 -0.8861769843940867 0.613202447539731 0.4149989330496789
P 6.466997278063653 3.0882207190524347 2.5883241507535883 -0.21666069275397526 1.024672284390229 1.420952557984482
P 8.929622454444253 6.175644466099182 5.327240284250932 0.27429556965862434 -0.6840923896820734 -0.8085366109017882
P 7.20690792026401 5.437016307586139 10.744243433896534 0.5262073723054099 -0.02346800121495313 -0.6024580645390334
P 8.224320550605844 0.03690713234157082 5.553477735171359 0.9825483586369853 0.2833885330988281 -0.374781994511161
P 7.81519909375487 2.7280901390568593 7.304987692370911 0.544156757694979 0.4053069025728955 -0.8400994733097339
P 0.8388139520464692 3.377732250865834 3.1379087173978677 -0.3482476956660583 -0.8925270949818306 1.074161392259292
Ni 5.640225847841063 4.781822873530648 4.324603698106509 1.6041089483334243 -0.6062977500000978 -0.8248744288298633
Ni 0.3547670500032723 1.200432213119329 9.707618281858956 1.3486932462984385 1.5895009686122625 0.6525066444559924
Ni 7.6914027755379895 6.823775079276679 12.424452794440082 3.1142317348266753 1.694202459987411 0.7013843439933017
Ni 0.17209740206046029 -0.46671505106892314 13.200597265046168 -0.5971826750727071 1.426939628805852 -0.7841412127765592
Ni 7.255056022124889 2.0848879274777548 5.0223407803093165 -1.0582370077195515 0.709626786507752 1.044642813974885
Ni 1.3954613395687427 6.999557789818614 12.251724227193508 0.9652162951164409 -0.08516290712158882 1.3613315038877394
Ni 0.33567086789916484 2.489887115333792 12.88588401271727 -0.7763996211579274 -3.081325728127274 -0.9106333176642382
Ni 5.143089367649273 8.29513197134112 6.92878759177329 -1.2133771153612265 -0.2671157640807335 0.26003391753328764
Ni 4.734957255357083 7.3449672892033755 0.2598605089626964 -0.9831391981434486 -0.9422578865480546 -0.4549798443179906
Ni 4.793209496554444 4.9921410376524 10.139928875896125 1.58900834524656 0.8704315486343719 0.6286545204287431
Ni 8.516653546531336 4.8994724306461865 7.0666032888120665 0.37598295679779764 0.30530487355594516 -1.0411111466725425
Ni 0.2362838784909794 2.7534375130768467 5.442181968666684 1.106138973607153 -0.4716051115794975 0.11534611557318844
Ni 3.635877895926636 7.319482506216891 9.839910138444516 -0.02594371644895532 0.5263215292857709 0.21129351490479095
Ni 5.554226156008884 5.222978940771177 1.949699489878419 -1.8297523042019843 -0.7607457166707544 -0.055982686013206814
Ni 1.2355081419673706 3.7845543976774105 1.0332311505650789 -0.5410560072824682 -0.1853546835518421 2.017697888409454
Ni 4.16621238242433 6.107562903498334 5.274052937558686 -1.1309940849776199 1.5254056807942502 0.7154323374459356
Ni 3.4441740664664726 3.0207345953064118 1.676361909481604 0.7412071324171944 -1.0743303137369884 -1.0125675307068946
Ni 5.153275952365654 1.5583825708464702 12.02206804118661 -0.43601744428287487 0.9991389160058147 -0.6150089046208504
Ni 0.47711965801214734 7.74754807924905 6.9132081631517535 -0.3401101541605885 -1.4732187143780497 -1.1049848053980518
Ni 3.2913478139274606 4.232562592047303 3.728118703017152 -1.305929887188983 1.4545872153197916 0.35435895077011875
Ni 2.847168749423977 0.8669388193092682 11.191569163732822 -0.4810168918117006 -1.0187515480304197 0.2975252296105263
Ni 0.15000387236714438 6.2317256456258745 10.60728608486848 -0.8496390373690528 -0.3614240851470163 -2.2316692072567244
Ni 6.292533693600098 3.361820292545372 0.2712810261982288 -0.15525966393867455 -1.2803872628331885 0.2656980577976004
Ni 6.2609479525011045 9.039421379273875 12.900699447485078 -0.1850816323961135 -1.9500817319223767 0.05657841061567675
P 7.496648467021572 1.5448065649564737 12.728882359716275 -0.12447764556081144 1.20288701446318 -0.08605456569792276
P 5.506160499527904 7.713095071049132 4.687623530637648 0.02851404827929283 -1.2058967478237812 0.28429638962507814
P 3.1585649493016152 6.3631893841733405 3.017148221280815 0.26830849883725405 0.32103256870384705 0.6327695710383812
P 1.6820048377057863 3.385601204347283 10.214916613153159 -1.1237446025040583 -0.45588872928550517 -1.2291804009420702
P 0.3435645549945834 5.705980618609212 0.6015416450564813 1.1850844390641202 1.3462499269642685 -0.6980169701829656
P 6.616507394211181 6.711237135714864 0.8814812682636338 1.4309338375669096 1.0214897728971892 1.0367847513830466
P 4.690922261893375 6.257219589210127 8.258231251417985 -2.2207160506793304 -0.9298407438306243 -1.348952413497096
P 3.869610547939637 0.9808710058511493 2.6684060964285896 -0.7738074349507189 0.2309254302031055 -0.14411007507975826
