# total energy = -381174.32567758934 ev
CRYSTAL
PRIMVEC
9.18783076605418 0.00000000000000 0.00000000000000

0.00000000000000 9.18783076605418 0.00000000000000

0.00000000000000 0.00000000000000 13.44731904628609

PRIMCOORD
 96 1
Ni 2.402277807912503 8.103620838091004 8.446637476104963 -1.4658797575144755 0.3852368712958978 -0.11857464981281514
Ni 2.1796474794777803 1.6754652636032643 13.028193412696554 -0.28667286027705463 0.3255955054841812 -0.30532955614629353
Ni 3.1662367521995214 5.769966938522314 11.940452554203018 -0.7920159875389455 1.1789909245718728 -1.7130972400093851
Ni 3.9237458392556714 1.3912764687200816 1.2885620329269596 -0.1594608465042157 0.3436472207795694 0.3004483167945922
Ni 4.244373571144017 6.651254482293935 0.752242622434022 -1.718499384861563 0.37471771693212885 0.13238378778176554
Ni 0.7655815152086302 4.121964101219714 8.190143559642019 0.16833732305823912 -1.0616696875501845 -1.4735493582445913
Ni 0.3190198614960355 0.590976897217601 11.863225161085722 0.7031686895872341 -0.8591400348809526 -0.6275322338988418
Ni 5.199852848732252 2.2930620630359586 10.32904760337865 0.8604770085248213 -0.06855666602347549 -0.0099869360093828
Ni 7.753757428555045 6.074911043212522 11.245253498155849 -0.4791726395141102 -0.8850791233442176 0.7065710304005638
Ni 0.16259244798584738 4.364329890241196 10.343421964685906 -0.2570280408274283 0.615507955744456 1.441207451578776
Ni 5.411816105592846 2.928308685460816 3.044473186781386 -1.1306773250681494 0.2612729321467113 0.8177406459985594
Ni 8.88911605780417 0.4772150136546839 5.44012656867757 -0.29985953417065775 -0.08843437878400899 -0.7781711112360534
Ni 3.0492572902858206 4.504021669925135 0.26056780064551915 -1.4124645751181286 -0.7446603810731175 1.696239545022098
Ni 0.8982501170189565 4.3994182161168185 1.5107256195563716 -0.5170737854352578 -0.0014254195926169 -0.6822206265806574
Ni 8.838298165576344 6.37377280390439 9.046091984813906 0.1464037562099414 1.2462620390147052 1.5291875164341857
Ni 0.5728548197216395 8.093844986105756 3.6368273398378856 1.4292379379217255 0.9004064977299074 -1.316844477218958
Ni 2.889039896565186 1.26000992989185 10.88935644012486 1.2932060118644118 -1.5723347412456212 -0.8134924122451668
Ni 8.570500460863915 1.718317306516043 0.42983520771715855 0.44635379321187646 0.7557657469576597 0.35666034520978573
Ni 3.0949667485815056 0.06177346168948923 5.584806421709995 -1.0729172354395458 1.0359468288627836 0.6508151156861824
Ni 8.355835981744239 2.556605802081874 11.650891634643354 0.488943602857945 0.8703682994966041 0.018757226002845115
Ni 4.3956695811450315 6.281820993125854 8.56465148776823 -1.1559186161334414 0.03808497979717958 -1.1532387553084333
Ni 6.630986127520009 1.22991978397861 1.7375014972540113 0.37525584882378593 -0.5705882124136301 -0.07595090160501758
Ni 0.9607714681366405 2.357018553326665 5.169324443289224 0.8081614869505566 0.49326459883080215 -0.5689213662341686
Ni 9.048019591718516 7.669670400952611 13.130419974673497 -1.8984246698677176 -0.6395606258182857 -1.5980812540821059
P 6.900437641778814 8.615337075232347 5.808932529001107 2.4705437171035776 -1.4393526577582243 1.2436287151569163
Ni 6.764972264268949 5.128215331881709 8.942709593720664 0.8621387124979603 -0.7659357455121261 0.6573932831243323
P 9.102025661238523 3.8624262564083542 3.548357716937554 1.0237173766761274 -0.17579557910849722 1.6975865459682957
Ni 3.827668692442007 3.1659243659518723 12.034194154423965 0.16197152874121137 -0.13583060867978541 0.45434786716094655
P 7.057420919053201 2.8878454785594694 7.67968329897284 -0.5924968395612634 0.7384362545402766 -0.3607262877490433
P 2.95551385249871 4.682118582408263 7.532610016013574 -0.6671015115510317 1.9197964506752743 0.5043339692710862
P 4.756126559608613 3.37362446931514 1.1079485735840957 -0.6297266704469994 0.5584600616915285 -1.6210581745932533
Ni 0.36451156820144764 -0.06445814585310716 9.399770181703506 -1.4734205459762109 -0.5641087753368736 1.0429266026147264
Ni 5.748770612836254 5.806635571297807 6.482549370468064 -0.8565866723314796 -0.008564087519927186 -1.4928200335487452
Ni 7.208138095712983 8.844444824390376 3.6863672047995952 1.335381616791197 0.44641344280521833 -0.8089253616997746
Ni 9.018122390252353 8.179668513731885 7.191128664528501 -0.0852734645575241 -1.4218678707098997 0.05677818533130867
Ni 0.5990915893918219 5.676600201798545 12.506436714042543 1.9053769328158348 -1.66917894135988 0.03875500928101068
Ni 7.49021368950913 0.6842306236223679 7.6620803339178245 -1.0960941877766412 -0.8699471527987857 -2.2035531657467984
Ni 6.404533661466994 2.8259930015249872 13.0965453612483 -0.9003273077525397 -0.2427980132709754 0.948910873088198
Ni 5.690363572356723 1.0545792207394433 5.612856869182705 -0.8933709310393647 1.8526220097113062 0.43396441840858807
Ni 2.5934949427968843 8.154264161533378 12.578568536190838 0.3035935472917933 0.40376295512454335 0.37407468403149124
Ni 5.076956423774849 1.5804722808255582 7.863252483488311 0.20276979370449594 1.274286292141773 0.8034694807915259
Ni 5.94390176364706 7.032338140933157 9.986167864043807 1.4193942123584264 -0.7546701999006358 0.8137387239280179
Ni 5.022481774883369 4.066001023736494 8.017762396707784 -0.627624536502332 -1.7616743775871402 -0.4112104125415241
Ni 3.1055051905242497 2.754456550813388 6.780904881682125 -0.2648315960322471 -1.316847048322119 -0.6440451439522005
Ni 5.014672118692146 8.010832934708466 5.032014149352066 1.9603468612938109 -0.962431276172136 1.28150620692898
Ni 5.878208773332658 5.06723569877448 1.7491599357728844 1.2940043393959908 -0.8871681446627624 0.1090422848423477
Ni 8.396014365890377 3.7185264502119684 6.031459034947642 -1.961304340111074 -1.1354606053894059 0.4875850319475216
Ni 2.445809750305459 0.6820025746501661 3.3503461811668087 -0.05132976062222773 -0.3368551375584005 -0.4626283620021839
Ni 3.3566269823107144 4.7678134804030075 4.973531768659867 0.6795664767872618 0.3440416280045107 0.6092645459379056
Ni 5.211401952064449 -0.46849208708062895 0.6632805318021023 0.03860665662860448 1.1022833473064886 -0.19426355600569767
Ni 7.059322800031534 4.844504304200813 4.244794373795262 -0.5161654146883755 -0.33178517923466083 -0.46752502797285295
Ni 6.59358246827946 6.8595058555059945 0.19464970847619403 1.3756821161824566 0.6660710134039884 0.1998359078871526
Ni 3.013213430005625 3.4911276375851936 9.773376783626944 -0.5329616603101079 -0.03212259156615758 -1.3683002218960887
Ni 3.1739637179134252 7.353976534210956 3.9918102087029608 -1.9237132692311774 -0.13381923467671147 -1.9935354322306376
Ni 3.9972668614229216 8.24270622094127 10.072754900410514 -1.3409246580966132 0.5449527712337131 0.4286468628504166
Ni 3.4210704276345205 6.786196153447448 6.313637532448896 -0.3562865068101348 -0.3369366415286133 0.9803012144740213
P 2.798898088456851 1.1943812543931407 8.458404331027431 0.6705673586124451 -0.08473173312144117 0.8084229681420594
Ni 4.975495208104648 7.463991620368248 11.994417278484367 -0.02596582793614238 0.25129679477060596 0.6984908244955905
P 5.011254245629634 6.03090133361728 4.136059152470248 0.3425732709891003 -1.5752989660802676 0.5934378633182942
Ni 6.113481556966349 0.06355222573492533 9.787899987793374 1.1113266884556796 1.083860621824927 0.37815811007224553
P 6.738364306233913 3.853367055226536 11.243800902104281 -0.793906262583123 1.5504448831510653 -0.9486010551572631
P 2.929098838910751 8.500617819698693 1.5413183398150936 0.26564123641773607 -0.29502740288933704 -0.0022705412017315733
P 7.92269407371741 8.562718368165132 1.2787025716813114 -1.104537433447988 0.887125207239969 0.740662315657318
Ni 7.079453337343263 0.6289786842440902 12.395308062790692 -0.5787352670007968 -1.6580267813978025 -0.46862006080924457
Ni 8.290988271864652 6.576033711426241 2.098507908000222 0.2533140823109508 -0.5374140396545066 -0.007607380033612705
Ni 7.865839776645309 4.795606668612946 13.574262030465382 -0.0779159957511884 0.17972653873178726 -0.7798163601489603
Ni 2.3910686543203954 3.4388488802580683 3.3812071860852764 -0.7369465573686276 -1.3609898042776045 -0.09127673332881053
Ni 1.9832575958455656 5.862901847197863 9.383674020901855 1.2557244699791859 -0.25494853259058026 1.826880639081144
Ni 4.40828447285156 8.654651803282041 7.609784119712154 -0.06472829341632079 0.10409008304339493 -0.30004928158396066
Ni 0.8148576894260006 1.1032655362186063 7.617798664530511 0.6117014375141724 1.8604970415840085 -1.6335059134383028
Ni 5.023538375426887 0.43281482124988024 3.45812586808725 -1.4382509400536132 1.0777737922008988 -1.6986692375095132
Ni 1.538686026287111 2.1286458306336904 1.685836487025208 1.1689196563787998 1.3502271664444616 -1.5909891231220148
Ni 8.271776517634246 6.829121699006732 4.632318701834539 -0.7538867847673919 -0.5862642283879904 1.692536385138898
Ni 3.5400344610038736 5.215260841005994 2.5103450739373967 0.9493464179637199 0.3180120367099684 0.15751323585954163
Ni 9.23229991433893 1.3899166697597274 2.939422285612466 -1.9956218824460215 -0.9910070309272998 1.5297966107730945
Ni 7.966170889125486 1.8175458792986359 9.364847236782522 -0.17860528064315045 1.9590623381544323 2.1868677346713175
Ni 1.240697109522497 6.323368364063159 7.334302632090644 -0.09404632565414771 0.43821136661040017 -0.22623085294091358
Ni 7.2468831782522605 2.273611425204408 4.152639511955754 1.1705430509148356 -0.3421297556937785 0.7977806579368648
Ni 0.8906407555394618 0.04863670119277154 0.7752020928531349 1.4454292029696074 -0.30285769756703323 2.0247892480385965
Ni 6.36559563448064 7.634949588309516 7.756575336265454 1.7133744049301718 -0.022410249374400115 -0.2862931083401327
Ni 1.4533953928481471 5.613277671833949 3.408196439099061 -1.6984640634772428 1.1049341546657745 1.171773323777511
Ni 7.932754748457866 5.80360358712945 7.116039279641436 1.0718509989585605 -0.1533141101765295 -1.6642033425221594
Ni 5.278914132879866 5.110317437457589 12.796858533349404 0.9868665263963649 -1.241734583457997 -0.6786442220833087
Ni 1.0718339670066386 4.848096746048776 5.708104354873936 0.5826076054720095 -0.2543070423518395 -1.0986902306385915
Ni 7.8705439460216695 3.400912326830353 1.9579837108446068 -1.289089932813509 -0.22649619078715832 0.1694953479220823
Ni 5.32697567586373 3.58726909921455 5.61557371075417 0.6198914295241323 -1.089085617669292 -0.3079479676057471
Ni 1.4773940069322335 6.724407991228658 1.2460085945156096 1.169418193281773 0.4064196760211 -0.19072777493829735
Ni 0.9859920637188827 7.577148944663657 10.893229110812625 0.352379972666877 -1.3834697305476755 0.250693099748336
P 7.938487954885305 8.160539449978797 10.907443603863731 0.3144225195864972 1.1899715919530927 -0.5420736499137051
Ni 5.916898728887057 7.161335285550528 2.5651835609290803 -0.349604723914585 1.270282827409335 0.3851368553829238
P 1.4177925484469855 7.481154488327312 5.55109351410711 -0.3061116857279567 0.6606189891504816 -0.8895916665025906
Ni 4.815875023386872 4.778526491131202 10.367614442000152 0.9480778356639414 0.30192001624411224 0.9784572192867472
P 1.209835185820948 3.490291544981192 12.252067942846693 0.2517043146216697 0.32686305934269516 -0.30491406587542974
P 4.881448571900702 0.6189391415145031 12.047627681855952 -0.6772401426469304 -0.21452564868884347 -0.7817804258538665
P 3.7250865614125956 2.12867339412613 4.448857014939582 0.6602461791920952 -0.1799401974044901 1.0864425236194901
Ni 1.005598894674258 2.2350409114505814 10.016033826885204 -0.0893031545422075 -0.4689532757789472 -0.5373510476270552
