# total energy = -340873.93555777555 ev
CRYSTAL
PRIMVEC
9.24653483284364 0.00000000000000 0.00000000000000
0.00000000000000 9.24653483284364 0.00000000000000
0.00000000000000 0.00000000000000 13.53323838193225
PRIMCOORD
 96 1
Ni 4.878258962313146 7.027689892511751 11.730718703076622 0.08170503047997542 0.9742341823443349 0.4028016196525386
Ni 0.24332440619106388 0.3491343504409872 10.292866860255707 -0.19100879651382588 -1.1190682800743115 -0.05118295063171831
Ni 2.428593055028149 5.511211992386902 10.174734984054279 0.9065285514672453 0.22462597034763898 -0.3099122904209695
Ni 5.858955664030422 7.610221569642726 8.936268015206547 -0.8224532209828802 -0.6271419404389587 0.006907268642794556
Ni 0.5818529814944443 6.988392120641805 9.880616589577762 -0.586929372775815 0.5024686339275732 -0.416820816749766
Ni 3.932246011721559 9.249123587310656 13.078074712181968 0.8294571631045391 -1.1992908124714892 -0.7438471411432028
Ni 4.92765394992003 3.744892728514768 11.77005993365899 -1.0678745308093158 -0.3626196481170142 -0.22723204051191837
Ni 7.969135055031868 1.076851414582116 2.4522096289418034 0.984669004524414 0.4869186020081162 -0.06458713985276619
Ni 3.2971570321649892 3.3840837035413114 2.6955229392913975 -0.6319607019838408 -0.3824305121953543 0.7742586635555246
Ni 5.887018896412842 1.570070814420899 12.552755042972901 -0.989947993535166 -0.31372780751231777 1.0647251865470566
Ni 5.406430262779788 5.091345351193834 3.551716902497035 -0.9674374711374758 0.34207987629244957 0.5476789119156246
Ni 4.099404863454476 4.13918345512142 0.27201547826994804 -0.7481660802335309 0.5060632932573671 0.8609536910509237
Ni 1.851072999627412 7.22244040336465 4.365145643373613 0.3500027306839521 0.10715843755607352 -0.6262572238411601
Ni 0.19044162574904056 3.212532747893518 13.506740355660082 -0.5582476885704063 -1.1854371944178488 -0.5962352235577731
Ni 8.34270429769486 7.379834914604705 11.560835822263025 -0.3094050117672478 0.6398596451159431 0.5302617448804416
Ni 4.318677183954221 0.32543085910249114 5.403807945579243 1.1799928834738258 0.7034216861383047 -1.000720915780954
Ni 1.9886799269141286 1.240663020805169 12.412171656212083 -0.3382486754718175 0.7291237188900991 -0.5276361343321365
Ni 5.862700510526263 5.6719075164640325 6.6646866648877685 0.7526063753930716 0.2906274740494285 0.20181000089438794
Ni 4.970520884129224 5.527661577364935 9.95576687454148 -0.25638243682362943 -1.148959668317105 -0.6136174235899625
Ni 1.9271072532948403 4.535332735174155 1.1297813523503832 -0.9282263481556529 1.3269445417674373 -0.4004968827787619
Ni 6.227596503774195 -0.06452879071736402 1.4426433970286818 -0.5902021299898158 -0.6423482158657519 -1.0267006276741673
Ni 8.231782869141476 4.318399787917492 1.9032197559186477 0.05842574823706067 -0.0888418986350728 0.9335585590018438
Ni 5.579137035247285 2.721255120311839 9.937632570967047 -2.6180005971683817 -0.8932223212766424 -4.146056571101285
Ni 8.62598113040255 3.4565395483349355 5.817140985453887 -0.9415804008650558 1.2585557687803937 0.9287300272649489
P 6.721268983806301 4.831092389534653 11.471029780025455 0.09365011865699355 0.6569525960424879 -1.3206083151367642
P 8.185984783477512 8.290008297250901 3.0036341145139835 0.9666018626100581 -2.031210063963276 -0.524083898204504
P 3.0950092936659837 2.5300367856599566 5.5635547752107595 0.5448877223237326 -0.8029796856393009 -0.201044326372957
P 4.02304698107753 1.6093963258945183 11.315397658272087 -0.14285331985452174 0.5358657213307804 0.8425206811567167
P 2.204170414779801 2.442601554882965 0.7672765129390565 1.4742168166252612 -0.28287842623162895 -0.6342566971068688
P 9.094447557230545 5.391450876796419 0.19398859640534916 0.7215731602363508 0.2888819521132315 -0.0297062688151811
P 0.4232749138310123 4.412584988921557 3.761143512999811 -0.45197165361928615 0.18903573194785508 -0.1320595716731274
P 1.887596811130068 7.338438179390174 6.481229871343564 -0.9581388194443693 1.8510312681854186 0.10190875912135998
Ni 3.2475216346596074 6.201622988201799 2.5849704474668638 -1.3037570479073806 -0.9701217028378583 1.6572515937946752
Ni 7.19734530857523 4.613401226444263 9.24940005869393 0.1600264891996986 -0.04007192832022131 -0.22659929202392587
Ni 0.7651322415751411 0.7488407723380449 0.9064877139715231 -0.32404178784381615 -1.6732389703618666 -0.29612063595351584
Ni 2.0961246584738418 8.721701256143183 8.555943254395748 -1.017078531203371 -0.6405679840368774 -1.3186028546709614
Ni -0.20489210995571178 8.972735422848402 7.538027401777083 0.6177419872812975 -1.1494795453763171 0.5199693618154981
Ni 8.928897602510657 4.63686893115154 11.44279918536754 -0.21995427590358246 0.3633022760063356 0.011753283881186209
Ni 2.1049643455109406 3.6309384366264803 11.767082549531432 0.04156188260218649 -0.5291849668764951 -0.27474679826343007
Ni 3.4818195738155087 5.957209340239845 6.291819234197701 0.3612204537766424 0.018904035993354537 -0.03436022264742469
Ni 2.2810461030919744 3.880234254834865 7.0387727888325315 -0.5976323610156159 -0.49375979329966574 -0.48978281092978876
Ni 8.480579374483748 7.695409892522212 0.5851188575002008 0.9295031579855475 1.5411210346469781 0.22955194689434658
Ni 1.461988071976709 5.917643418867728 8.010823980738419 -0.1646357058369358 0.09588749262794455 -0.35725632692257187
Ni 3.3955124202545477 6.786965611838294 0.43408503738234283 -0.08428127584758388 0.43126450297892177 -1.662604887686788
Ni 1.4618031412855563 6.225784183000897 12.30701821591575 -1.250536498020343 0.6295423223503352 0.6955589955607763
Ni 2.3533632498672343 1.288735753970311 9.934222449022192 0.05972492666445842 1.6059524293000664 1.069610539663816
Ni 8.98474667123877 8.382741792329417 5.241869687257566 0.040647598318033225 -0.12708654393856825 -0.8893222148912878
Ni 6.767020836797477 9.281209062225647 10.862196335345292 -0.9844316917026271 -0.7423523017652313 -0.357986520220377
Ni 7.845878749378599 1.2658690740092808 8.75609928935104 -1.012106017689444 0.21344938490552914 0.7013136386563663
Ni 7.447917148552568 2.808311243171968 3.797656228660998 0.4509187868747396 0.38027644196682897 -0.8338329235747316
Ni 7.008272169940719 8.09784681607414 6.441333848687739 -2.810521716561676 0.994692964419319 -0.3512281184506209
Ni 5.178632637417904 2.7283009796447564 4.662200737225635 -2.218733473031663 -0.9846965153282398 -0.94604769260779
Ni 6.895076093886158 6.683441410931018 2.221358797868988 0.658236347850918 0.21486529141644933 0.11766550773498446
Ni 6.807872026473106 3.8605668758307763 13.462743494927945 -0.2000894186588554 -1.4418240021168525 -0.3683295540175979
Ni 4.564773701205663 8.174750243989987 3.1104389858823085 -2.041447168310252 -0.6027699393524973 -0.6378415862446499
Ni 6.8785525366316635 1.2248606932461719 5.674243191093291 0.9106500298347866 -0.5694713252003676 -1.2723209408852862
P 0.1461026432382715 2.4235629402287953 10.952666278764099 1.9080202839759526 0.07921723106111518 0.553933891686401
P 3.429290010993587 5.3568410979471945 12.16245604533478 0.4834632964696641 0.7714749301628004 -0.36517840998312595
P 8.838364782656857 4.684479337588799 7.750742079968554 0.26153415622789794 -0.18886809602173926 -0.587609172451659
P 4.98980915521645 7.1112600718436525 5.066032038188854 0.42836044195824935 0.09331099015001994 0.28242436941334587
P 4.945472022012592 4.195855465425161 7.961332829172135 -0.22193711066156613 -0.20874298056879534 1.4181662534885962
P 1.0708966463269993 8.539581511496014 12.735696804542245 -1.3357647111622286 -0.6930262018365936 0.02435271781275161
P 5.153084462435159 1.0860702095360777 3.1817454864304184 0.17913312812216245 -0.10716692219650575 0.14403885552219065
P 6.568016920048066 4.127246179007513 5.164337494991801 1.0675102054913617 1.6309031857081329 1.6815498042204071
Ni 0.7726755644672594 9.267801587117077 3.2317914300701593 0.23597430548092266 -0.4565824129184201 0.1575327762435674
Ni 6.628997815455667 2.716946235207981 7.360376507281618 -0.9112334131420824 2.094190778560871 0.6144890275616385
Ni 2.4732538169415235 8.180436862742932 11.125837227266388 0.02733545459015937 -0.18875651014453942 0.13215804492420463
Ni 0.9272887181123777 3.703717910129622 9.278252945127573 -1.3494794896451598 0.5357299670838644 0.4462131538689541
Ni 3.654988673010888 1.4069434517551107 7.576529047021618 -0.568758101183427 0.6007163992575782 0.06741998131587099
Ni 5.387678290696905 3.379340231313245 1.876695146886617 3.378229007883085 0.2380782391978029 1.696321820323259
Ni 0.2192871149550372 5.761395477912819 5.71013361497875 0.7644144237715932 0.11171391813723987 0.27619844310829206
Ni 3.1672062354919936 3.3539584939525384 9.038958178696726 1.8749430418060098 0.3611011545899588 0.759505159395434
Ni 8.32092870881163 0.7347398071376523 12.467536206529374 0.8341465981604087 0.06604906911027335 1.1811002576053917
Ni 1.0503878326781662 2.2994744464653403 4.7465670431829485 1.0862113814452905 0.6483769385583349 -1.2380831027483385
Ni 2.8166978500157422 0.9154170923938307 3.4622760983744922 1.3258271403335424 0.7085461518490636 -0.1514138078300231
Ni 7.037999778543513 6.096600848696186 13.283509593716213 -0.5295924867275589 -1.442367276214832 -0.11684918248127618
Ni 4.2900684060328995 8.170126976711169 7.269284272087082 -0.35634718484474115 -0.6895487848109544 -0.2225318068227716
Ni 1.9207918701919762 0.47664313733731145 5.916122363932996 -0.28432415753922 -1.5514890081448633 0.35726018357731376
Ni 1.1298433041319194 1.6171356753192585 8.013937288923973 -0.4846801995959007 1.245073675133559 -0.7871203500095412
Ni 4.349209241063529 1.5145546209368612 1.2004415201329148 -1.2474424324760516 0.16579681602457252 -0.13250334407876535
Ni 6.486647415940882 8.662976515167646 4.111221934619133 0.4671591599930019 0.4480828600878412 0.6804874459396345
Ni 7.318770800386086 6.137452038371816 4.5536233051826125 0.280993036283458 0.5693013752814067 0.7173300686892807
Ni 4.315681306757547 -0.017366841206149154 9.942355700819087 1.3056565789229384 0.1821166362305186 -0.6505816595191376
Ni 7.320740312246862 2.503517724548661 10.994267362392351 2.672775893137048 0.8672012146225323 1.3395033522690543
Ni 2.4169054353472985 4.594371858324651 4.684841801743459 -0.2931273576531468 -0.05736439685208185 -1.0876095473443976
Ni 0.9167106825784439 2.4410481370772823 2.4475133140399805 -0.9838917600387571 1.3561018800576838 0.8655762774245995
Ni 0.5423527105176854 6.294772577335409 2.171597647493622 0.11602540102840017 0.31375917497088546 1.1259323541839963
Ni 7.99081817856952 6.757219510166384 7.796498556227007 1.2368731416006375 -2.668635902826746 0.7116489591441034
P 7.283310340357558 1.9062378247982594 0.6539029034209882 0.49283625304413187 0.2819482011078757 -0.36484056702773293
P 3.501440720146809 7.348692586214591 9.172761081666431 1.1618876892326828 -2.426914667559717 1.2077885655298555
P 7.778332814435079 8.184708761708558 9.293978526449742 2.405142823100264 1.0249481637594349 1.4205674067309213
P 2.437589933152727 8.292754518014519 2.122661288000797 0.19881620837338662 -0.6022711453392079 0.2044009015500157
P 5.093767943247935 5.855210817534579 1.5474713593085845 -0.2579626368265557 -1.1017814679694056 -0.9936244139454887
P 9.002111663138008 1.3746637996144087 6.142966671581989 0.1218504923506095 -1.2282591746793814 0.9273092356580224
P 6.482717638753888 8.033768331589732 13.0148607786787 -0.6967818122242838 2.94978860461652 -1.000558679171477
P 5.662623995768167 0.716493620495072 7.354664922885367 0.3599364448578962 -0.7900799468584974 0.41655136513846325
