# total energy = -381172.3136867783 ev
CRYSTAL
PRIMVEC
9.13305867305954 0.00000000000000 0.00000000000000
0.00000000000000 9.13305867305954 0.00000000000000
0.00000000000000 0.00000000000000 13.36715455174071
PRIMCOORD
 96 1
Ni 6.8566987340669066 0.6666539315638007 8.025639850279227 0.417788579979674 1.0086496837097274 0.06009567974031586
Ni 4.460814271463204 2.614338097366724 2.5879883092629234 0.6576462796754029 -0.2118357605615061 -1.8498197643758207
Ni 4.1447465036533515 4.536965716199776 3.5290221614909685 -0.5238825808269751 1.719151416623265 -0.05139660930442116
Ni 3.3578878179638143 4.829908578987681 1.2665406363649834 0.14225836658300015 0.6534432973376488 -0.2932119469471531
Ni 0.5200473308987881 2.8101965445214114 0.5900367008256018 1.3979578968615216 0.13596867691954648 -0.08392029296373935
Ni 3.5411426438980094 0.052423757830165923 0.7881893723647735 0.6100682727861235 0.3909753164415718 0.20955082118207136
Ni 1.6391100727839507 0.3124830422090962 7.614800157338353 -0.6894649668478964 0.24033283955993448 0.06890993559783616
Ni 8.547218795148071 3.614946892508736 5.4827661118444695 -1.8831929405196277 -0.004028661543418868 0.08259051840872228
Ni 6.427965552216476 7.854056160256386 2.1345611628791814 -0.04705170207216412 1.3549327994502471 0.20718334939115932
Ni 8.139920902431333 8.521792359294555 12.032845227487465 -0.018609130460755047 1.176334460785632 0.08102523080413143
Ni 2.8589031473974176 5.141501147958372 7.22755389533871 -0.8570857234550853 1.814765858095481 -0.2666773909917343
Ni 8.50020180816032 0.1368908526546066 3.3679615818813526 0.05517510251024692 -1.034760007643534 3.3046733459831215
Ni 5.147127112213317 2.5995516750797836 9.493621059371335 0.4043000585749359 -1.8766494829741551 0.48789973497446304
Ni 4.928299022037223 5.491680890593254 12.52030580439008 -1.2010872422502799 1.0543196749430166 -1.9649360233263904
Ni 5.862848402477913 0.282642599010751 11.545826690633454 1.4230158682714138 1.017044849751958 -0.2137761721173286
Ni 1.8896024780118186 3.367623658703702 2.337139714739694 0.5777862728239661 1.282695599251391 0.41854422719877593
Ni 1.3150691445933085 0.6883184604747653 13.00646857362934 1.1359174904211664 -0.7030028534333311 0.4520058492913312
Ni 3.7337588551590195 1.0196146906201609 11.310256790269472 -1.3230855730326634 -0.6162281217399322 0.09366631660690966
Ni 7.611810907174972 1.5768226113899209 10.037169577316917 -0.09836680740637252 -0.31995116271421026 0.45117692563213263
Ni 2.101525975693207 5.028379080975021 12.424703684209101 -0.8446477548020486 -0.34580206233904315 1.3009702291908627
Ni 0.1878259218913375 6.841610920837737 13.1853349647835 0.433064532302138 -0.15366429442709664 -0.5927390374790567
Ni 0.2972828923560047 7.20721639987944 10.522557863165236 -0.8148216725795516 -1.1898394372506025 -1.5524886530539714
Ni 1.199234559129895 7.250123510382248 6.276199686604031 0.4126497160912119 -0.6955952481153505 0.24437152840568235
Ni 0.02091105155539162 4.809678853622903 7.294657218667208 0.43225566324759745 -0.7070587686702597 -0.6448835806930958
P 8.310334647614793 1.8837938525797653 6.894737924199771 0.4338757153495238 1.3241201849447646 1.00945443899921
Ni 7.371903717160546 8.228584637799843 9.71440636406015 0.3701768916389818 0.8212869685889211 0.38346666676935254
P 5.594281673775151 -0.30440667826323975 4.0307851085611865 0.7315441554061337 -0.13064340805189112 0.468990813885102
Ni 8.903773412864043 4.364944552657759 12.415828177613394 -0.10023959894905317 0.5975218035796807 -1.1023617659529077
P 6.789890408539439 3.8746454210628767 2.4505467331593347 -1.0986694047029855 0.549521364441002 0.8249883286999082
P 6.648748116987631 0.23125544336067635 0.24057116339321455 -0.594391228370499 -0.13001477332895675 0.10608885864097857
P 9.189957812098928 8.101863446180758 8.320412064755875 -0.2276387890320338 -0.7222141362544594 0.14413681455263563
Ni 7.3449794596547395 2.546178079128653 0.8258458873315954 -0.22838929404481315 -2.2425945959199765 -0.3737144724785951
Ni 2.6992481455456527 6.999457577036128 13.406186940801957 -0.09169942268852593 -0.217036073815523 -0.9481269437343219
Ni 5.315367189389185 7.397558479485448 10.747940749681868 -0.6951630456739382 -1.4722506940378257 -2.8294838594864755
Ni 4.663741706171994 1.5532227873074909 7.358498213372546 -1.1598935416207894 0.3823708626020125 -0.4584852863680878
Ni 7.8867159787234025 6.998526005032873 6.726071333175354 0.11413384043264213 -0.4777893860133385 -0.9661164383332072
Ni 8.542387407013548 1.7737678925484048 12.188986741597546 -1.3138383434027825 0.7932729998744984 0.2752877583685646
Ni 6.129625051645012 2.664551654953876 11.661653056343896 1.4079731150056782 0.4316635381895534 -1.069504610213571
Ni 4.746943872344958 4.201983383500329 8.03935405145654 -0.44603189109608343 0.6091156790648671 0.01114830330733564
Ni 8.522833528004075 0.591401179818603 1.2918620420416618 0.8713183221146993 -0.6826633705450307 -2.8810568464677604
Ni 4.9103160291508825 7.682738242246237 12.826867884543201 -0.7138570225390157 1.6110771521211416 2.1112803870533057
Ni 3.691554990188079 8.256093411072397 6.942058128741523 0.08437512111297081 -0.6824471407691666 -0.028925167674782447
Ni 0.8437695153353759 0.7859581660863921 10.686625959055943 0.28371300631778235 -1.3669185110572135 -0.33300285369184585
Ni 1.4554716583778278 4.390873306748324 5.11957998009357 1.3009116080387855 1.5607339237818993 -0.5116464437720996
Ni 2.8530945219653647 1.503118826426604 9.34132912956882 -0.44964763347179976 2.1918646736652767 -1.0419562682816572
Ni 6.99483624925528 6.973108702238212 13.371165313314926 0.24743474071203841 -0.03452323058785022 1.1550842931576042
Ni 1.3093975150440866 6.118610582665363 8.504571976822643 0.365326505525216 1.9691153515150601 1.6804072059755317
Ni 7.954866863902618 6.05265163161145 8.895507081293992 -0.3107964927981357 0.2008152410812864 1.679641788564417
Ni 2.585377167736157 4.15056426214426 9.297938880252559 -0.3545368711088797 -1.2275917162987116 0.14469345838705405
Ni 1.692584132382491 2.9123589408782475 6.939932865945864 0.21092199049798516 -0.8299467011464482 0.5190108545569706
Ni 6.1867888670211455 3.10980654027378 6.713038458188656 1.5189043893406229 -0.8162085256247492 -0.20611557024827729
Ni 8.814890484083001 7.355656005456737 2.1800492758145342 -2.100502322601195 -1.983889167390125 0.6550746622934848
Ni 6.249222457356862 3.906200139408386 4.610625662480587 0.1950343727334512 0.5303512192704544 -1.824963110343457
Ni 6.2987601685887125 1.1216035588587432 2.608292925710315 0.09716121713404557 0.5078101007451449 -0.35347269151042354
Ni 4.768333496184374 1.9376880328856554 -0.27599921199931154 -1.4479167452781514 -1.140647548906984 3.225040367540826
Ni 7.504871921036745 3.5308679526856506 8.646784662872308 0.19909517306638613 -0.3866972578915082 0.3896625111674193
P 7.4967343655965575 3.930868531376901 10.831098163866443 0.006867673654110752 0.485608624947441 -0.5383370656894083
Ni 5.985998568084526 7.31820133109062 8.031040227980442 -1.6367010233368329 -0.3267319330814695 2.2982502376110676
P 1.2019744767865237 1.446548659876073 2.7065682922182797 2.076771811753475 -3.0030842307158667 0.20115796913268583
Ni 6.8172439198114505 6.394556822923313 4.134153981992824 -0.11047130397939038 0.8016733081230516 0.501883965068697
P 3.391278281139265 5.816845185023114 5.196267535384957 -1.7563601644630784 1.1542988211418315 -0.5314171986411235
P 8.812022703602397 7.244625408951279 4.703166381333228 0.36128627401757135 -0.4565726427264072 -1.655529983117878
P 1.5758545071512453 7.912343341871738 11.854620890370843 1.4154910206492783 1.8061516340639088 0.6292864975857871
Ni 4.032537742555543 3.9125658814306203 5.792669978232792 0.7502311902926757 -2.5846220217079354 -0.4025483659911519
Ni 3.907022114705374 3.6268655343150713 11.315924766595153 -0.5125044208970206 -0.43890093647825706 0.15227949826442805
Ni 7.8335798423025125 4.816172458469114 0.7835534316897574 -0.10107752146931623 2.3859983889613297 2.5360811366847544
Ni 1.3554555308520182 3.137360978840611 11.337526277400015 1.9070306663691738 -2.7776671319255004 0.5328482746606952
Ni 0.2528688271420505 4.612587443522733 10.147114253124464 0.2535017728417247 1.3778400430657236 -1.2788911379036363
Ni 3.148503310644235 5.918249537494949 10.735228445060997 0.8852002223031141 1.7294486847842152 -1.361306564187075
Ni 5.5119288820757415 5.871013357094667 1.5142712045949691 -0.019435483016792335 -0.4713875962520526 1.2917050018388527
Ni 4.9987149058125855 1.5470123072857989 4.95255733966313 -1.8373386011896744 1.004529748004083 0.11140152910314363
Ni 4.708813351623539 9.271333366500807 9.064949069015237 0.7146144695303306 -1.5237082384871694 1.4157612435915294
Ni 0.848575330905103 5.443430940660019 1.4710152112438835 1.1865643660437564 -1.2615392768887501 0.09567254840366103
Ni 0.6327227913041087 2.443065844650852 9.154562642504713 -0.4944912721490516 0.4255705379179381 -1.5969980483202562
Ni 3.5648794638632704 0.5721222058806766 3.3265230672424977 0.041623846188373476 -1.3681140740272115 -1.0508733682656288
Ni 7.16958819739507 1.6444620452732326 4.94568653948619 1.0006162718822895 -0.109082908272296 -0.32304805647197915
Ni 2.7457354151197895 2.5434016292366017 4.311214767411267 -0.06055513587523765 -0.7380104798567677 0.7005626194229547
Ni 5.291950026483865 5.973349281569755 6.313615088817069 -0.6012802421808484 0.8457281323504209 -1.8229144553445444
Ni 5.840691601694641 3.971163587047056 0.24100955021827516 -1.7224953933948337 -0.6283292758788405 0.8713476326907381
Ni 5.596163083899368 4.946336813276697 10.003457630469756 0.3230226025506824 0.5392958300582519 0.6982527403428556
Ni 1.8642673727468568 6.431006860815334 3.479644278789088 0.5615597836627749 -0.5021732141743416 0.5795009415222278
Ni 1.7328791880526464 8.712052241370865 4.426052022847668 -0.562675642434773 0.7279153004042948 0.1469891963997662
Ni 8.627425318016453 5.092410956610437 3.6207208123171384 0.7271357419257929 -0.2758737127790217 -0.9007901063215713
Ni 0.5029018395094901 1.704694568424791 4.998928619389802 1.9871035605623648 0.1711881622434729 -0.1185885337698861
Ni 8.464354552152757 9.093193053525653 5.917840376458226 0.6066214518881037 -1.0209428992547835 0.6989402533281833
Ni 6.071292204735383 8.694069248484523 6.262391414920506 -0.7774982535387448 -0.08883547087716959 -2.52735018456966
Ni 1.6100578125648293 8.257198511193904 1.8040850814190035 0.8536245043793622 1.6814523594105946 0.312472594948978
Ni 2.5373098789800306 8.359927157199776 9.784771102705921 -0.22580842069151433 -0.9228105764567204 0.24035469393680545
P 2.9423427731006226 1.207143788098697 6.066108280529041 -0.34028087541049784 -0.35417974487977716 -0.4858873325301245
Ni 4.531403683356819 7.006225173648001 3.7067925855824777 -0.28535028481088925 -0.033142291079923565 1.4974457052462147
P 6.84210410601593 5.13497101087674 7.368283372630254 0.29277485940973447 -0.6910685638895905 -0.4418926721167293
Ni 8.60163355980872 2.4400428021697054 2.9117141469230536 -2.0344478541742834 2.4752886879877307 0.7114496986491038
P 2.9580972996262385 3.2339978745899116 -0.07980010174931616 -0.7161859277825086 -1.3555190109710202 -0.028241768454512654
P 3.598589584098661 7.062411751726603 1.904151440768518 -0.3269533050636563 0.6970517780562189 -0.4030759563598477
P 3.8363139730466385 6.880262025913916 8.803474160513716 0.3971765601562772 -0.21250733270723401 -0.04454744759307167
Ni 7.25355754051189 6.149032801712799 11.326391252043473 0.8758159528747368 -0.6910001725455003 -0.514744623081449
