# total energy = -381178.0491821312 ev
CRYSTAL
PRIMVEC
9.12144998573489 0.00000000000000 0.00000000000000
0.00000000000000 9.12144998573489 0.00000000000000
0.00000000000000 0.00000000000000 13.35016406442516
PRIMCOORD
 96 1
Ni 1.905023905043934 3.083679400885309 2.2202393174716755 -0.1833646497050068 1.2944339707342418 -0.34242260434384897
Ni 0.8622643285388178 0.8057058671207953 3.169956457785391 0.41684832755359175 -1.5837458112960403 -0.8433999984378765
Ni 4.85871352531636 8.599867025322894 13.11377241873622 -0.19667705054319676 -0.8918264693703802 -1.0775799310225378
Ni 4.96456794984885 8.757321491180699 2.6219324586943475 1.6523600700303285 0.2144397738432565 -1.3652336671556229
Ni 7.825483304552992 3.9196693933736455 3.0964640248771005 -2.393987063593761 -0.6267994694978754 0.00927036955833242
Ni 0.9622855859460566 5.037229418683473 11.731817138368989 -1.0320022423927389 -0.17040166178643557 -0.38103697428193734
Ni 5.422473849543419 5.024514117709902 10.536736647934278 -1.5465864286369235 0.8825054490797705 -2.0220132279553567
Ni 3.9844225652612923 6.577285875696908 0.5167757364832539 -0.03381309189470305 0.6362552155941366 0.7356700046490492
Ni 6.247910324652688 3.5323543934168558 8.684508606279962 -1.1345789741154009 -0.18727838293711616 1.0665902647802534
Ni 0.48617509680883825 5.159201444952188 3.3960014894473285 1.8467346976925938 -0.1753950012359689 0.35178347673345867
Ni 4.367550819775565 3.07509611665566 4.411027297939429 0.47827840983461495 0.5471248391843674 0.7677637998598004
Ni 8.46521618387967 8.40879089562823 9.760371748275237 -0.2830463192680609 2.6510521283067114 0.7609586040125088
Ni 0.8069089863449086 0.665397902532803 11.780638786095633 -0.8976703297456669 -0.8115987947668796 0.8968257223571844
Ni 4.503624607382258 1.2843822200771424 0.9669001273825915 -0.47676917227894017 0.45066064811734646 1.3544756573081707
Ni 5.284010242098078 6.213568066284327 7.953533864945658 0.39977106035633087 1.2983631305853187 0.8721593299587561
Ni 5.330648214750781 6.316950577930275 2.662196362250686 0.20153823529023998 -0.8763491996703875 0.6085891171374357
Ni 1.0228884981902495 7.414726178698011 3.191730270521411 -0.7430588409139526 1.20904146410035 -0.41788808167201574
Ni 7.768784372808575 1.1154347275143885 4.171699611128487 -0.05004883702727509 -0.5662245361282958 -0.6032185968541418
Ni 5.566784306288659 1.4651602329861815 12.164401893513608 1.1217514833334294 -0.2735633194782902 2.2514810997763286
Ni 3.2712620153196594 6.63449560862821 9.457722957189883 -0.5154460200238478 -0.12673327436420753 -0.15072526640343076
Ni 0.5122998410831598 6.507187534246483 9.68609122210718 0.7528195198451422 -1.2383682380889252 0.1335531254995184
Ni 3.9036430061350775 3.1095295895216792 13.189827979028712 -0.1114624642480661 0.6185133182296831 -0.2702725645421603
Ni 8.628690806582926 6.229941068613996 5.507850619351614 -0.07213024230734674 -0.3556344750484327 -0.4781187443282991
Ni 6.766537715438405 0.6255991929145214 0.8706989331372834 0.03125201603574618 -0.8851513713430497 0.4807194151759399
P -0.37316398279007695 4.012297715745677 6.023166923872334 -0.08678295922351505 0.2639805608858615 -0.25552086015428255
Ni 7.372867845722605 1.6048278718006126 8.051831168347155 0.2042021552756483 -0.8048262519297364 0.1822179376950733
P 2.263040808352869 1.9610022422568496 10.670718887109667 0.12398219398163163 0.4986585161528637 0.6360294727365756
Ni 3.2526725006968924 5.501201082472321 6.763566859249673 0.9214522626566131 0.6960888999223173 0.4188345047456851
P 4.120532838667049 4.6644996169022495 8.715053605110805 -1.129226708664552 -1.6466817886986285 0.8107801555203262
P 7.633823402073314 0.8405634874009251 11.525222686187714 0.6968630590841804 -1.0533801938478826 0.8073479899103256
P 9.04064284235723 9.335895049827469 7.817067854999035 0.7268858306985159 -1.406502958218055 0.005152233624900804
Ni 4.707124151657986 0.4279693015631064 4.929133853943519 0.6804653344524474 2.0615141142634563 0.14563448214408467
Ni 0.04188843375963369 4.262809212114507 1.185373443593911 0.27140822080850036 0.4941811971078005 -1.1270770093114009
Ni 6.251203168018153 1.398883778987641 10.060523086414708 0.3154013385599987 0.26615931370473517 -1.8897163434604425
Ni 9.286912864584949 8.757914385415477 5.509011779906803 0.13730745033562805 -1.8252976108647405 -0.3934518030065224
Ni 8.45348599948081 2.0435148768385725 1.893853777660695 -0.14168886723277532 0.48009463710774736 0.8041924750004794
Ni 4.415091815955085 2.7793513508980654 10.828157846502869 -0.6927572644459231 1.286376647647404 0.26383349378503596
Ni 5.081961008335116 7.27827841165092 11.17651695879974 0.9504769320237374 -0.8559716644553 0.16718495462135077
Ni 4.408214242831647 4.101377794158799 2.0929722896138943 0.27335094635716795 -0.5907870559590083 0.015539233286179689
Ni 1.9947880921894938 6.587200891592367 5.161614068415251 -1.4073429376208473 1.7766240569184368 0.690077917841547
Ni 3.1653984693374047 1.0957050316708923 12.36097004811228 -0.07906373620238641 -1.4097831716312237 -0.45218351251977607
Ni 7.621746602583351 5.385358670446245 12.82484776096854 0.7818225919457116 -1.6673861111255157 -0.1744308375504867
Ni 1.6240376450074563 4.305342532372586 9.267764205091535 1.0012161102498176 -0.3161366740641265 0.8862345771048995
Ni 2.027214846107029 1.0545672932269865 0.9940838719747263 0.3524617337474059 0.015566229869373192 0.2627960536594571
Ni 6.767568439261945 3.522129248229357 11.294238389477577 1.3874405422699654 -0.8138677933067145 0.6918797469369762
Ni 0.35793207382611286 2.6969208093642347 4.169349925668809 1.1350746828048968 2.023522979731663 1.0620715509742935
Ni 8.758872137640891 6.899218323732208 1.079273652062721 -0.8320979431614959 -0.5927752900336306 0.6098870100132529
Ni 5.147343560256607 1.1143857607913177 7.644931503598144 -0.7832582959509735 -0.02263162135658683 -0.4745824490402666
Ni 3.500484047935036 2.4389206027376558 8.824805625128235 0.2399158066271739 0.4000459112842723 -1.1724862906841356
Ni 1.0351386052257627 5.529413726598042 7.299869795391622 -1.7408931791757307 -1.2824590577605526 0.025926747168090836
Ni 8.833850454716035 2.2886082320464984 10.339902147002444 -1.2296930789124307 1.0195444762453603 1.3079440894055345
Ni 6.224805692395833 2.9596368055197493 0.7307923123389876 -0.016253228634068785 1.069266783171152 0.2809452137646581
Ni 4.254052620339308 0.1718617957629376 10.394584326203637 -0.26647144562851527 0.6808826244955242 0.16809718202297502
Ni 7.745278396762024 6.3909985071293045 3.3249782329906483 -0.8490083457635895 0.36594434161487294 -1.307361477429187
Ni 3.9085138603100322 7.405011834697399 4.160084356996676 0.05128528053753748 -0.8599306491030481 -0.22089118589555506
Ni 1.4327608434179435 2.9760098078494197 12.587709222101395 0.6852923235274456 -0.5039848134617836 0.5461079678840788
P 6.705478730705921 4.96062748355001 1.5178740033279057 0.17757272561357806 0.7501183188638951 -0.32077905793214434
Ni 2.4003368702281835 0.7334274991763367 6.898323509510179 0.655009356273188 0.9737004213280521 1.3244803964976608
P 3.8304616146638013 8.583995702730345 8.437424038588155 -0.7104395122170345 -0.243994861792554 -0.4771805487847459
Ni 4.549231856211422 3.5194384205484366 6.818315625034154 1.117397834350424 -0.2873981684788534 0.012763213202939308
P 2.8361688614894374 4.78641691447237 0.4989360050312383 -1.5542956243557233 -0.5158486547789052 0.6862377181598504
P 7.973351126706906 8.578705261866162 2.6355890932837522 0.3579932050885964 0.19407817946776898 -0.6521531177713156
P 4.161004711278048 5.2241370458351515 4.455964120210805 1.1291590886514102 0.6944266817285459 -0.5495545316717826
Ni 2.6937465448457254 5.760277620171268 2.5885835262054866 0.14332974527030798 -0.0555823652509946 -0.16928271769064393
Ni 4.318541270183745 7.873763138163544 6.435299564352002 -0.4940876089527297 0.005577751198093619 0.8088335733169166
Ni 5.354829178080004 4.970715806991021 12.816985071270391 0.6057627034322342 0.1340485770786982 1.0005676780325414
Ni 6.489291249805919 4.676092979554623 4.907640069715311 -0.8730340192542254 0.514352786959669 0.04194471986290196
Ni 2.858306620071114 7.505165353126243 11.856787385175734 -0.7342070469502775 0.731480906268366 -0.04248876529183005
Ni 6.097078031324878 8.35840400712177 9.009491267116957 -0.33181448981069955 -0.2536131016086084 -0.5304615195960736
Ni 7.837204367502086 7.53470060746801 12.263433473621252 -0.9469223819032596 2.9703327473164585 -1.3197788772569334
Ni 2.3226129967735227 8.943189273059073 4.785806689483036 0.5010069617803823 0.6013882285136224 -0.8358419835849605
Ni 2.1845324902183467 3.2649134862826394 6.950509147910462 -1.1117624904415175 0.0839953691760489 0.8584941737668377
Ni 3.3442792206951504 5.109571636776292 11.719935537904014 -0.7976348763876199 0.09573991130648674 -0.533173776320914
Ni 1.693643428170526 7.683161323856703 7.387967493664965 0.3124473981379973 0.4870314734368967 0.521898717627727
Ni 9.055474319676472 9.363715471613258 0.6097406403516447 -0.5177996078576889 -1.274556000863392 0.05800254465671301
Ni 3.4111850547275333 1.5295759112324925 3.067092956631119 -0.8411518258336481 -1.019999818615224 0.29188602904687794
Ni 7.092638666016692 5.037776705669423 7.238004474499838 1.2717249591725002 -0.09878615433197825 -1.1099868865983336
Ni 6.4138112529936535 7.261321636536236 0.7560268031161639 -0.3111698169771544 -0.8877834096492582 0.7788820212601489
Ni 8.199070522612203 2.4054813678961127 12.961607481597623 0.631783552976028 -0.11923182378083981 -0.8418668496228018
Ni 6.416073372535579 2.3275933083456675 5.639910056916364 -0.058639406909763526 0.15776957484472182 0.6644100807617976
Ni 1.8304469317584853 8.828450556454662 9.968967446535137 0.8783754860717969 -1.2941074406327584 -1.0265962408858191
Ni 2.249075868761379 4.4722924274366225 4.824348463323586 -0.5763464550536461 -2.8119887880255057 -0.6180428063511678
Ni 7.085870550290443 9.152645124031888 6.369283071671788 -0.6906381612203912 -0.27131900352880367 0.13621087483733962
Ni 8.154521361955876 7.227435450656167 7.616001001375853 0.17585420026057455 0.5645828867598148 0.7341080594785679
Ni -0.04564282248325046 1.7401263361772095 6.298834466550354 -0.0004687121063024186 1.4941726909218975 0.2705422732637792
Ni 7.136448989241986 6.519273455186211 10.131292766567897 0.6178939394781295 -1.1026872676131267 -0.49677004088089927
Ni 5.825705779341587 1.9474568893545878 2.9736956960438277 0.6834359870449972 0.0619648717385707 -0.10031184694788531
Ni 1.6858172242714415 7.574752893389781 0.724487566260844 1.768992508515108 0.3940009906417731 0.12116863579223648
P 2.966331949647871 8.511480177091974 2.1870901447326863 -1.1519290353580742 -0.13667547317858397 0.3823713768226447
Ni 6.500246110974683 8.125360087054508 4.321928976626776 -0.051438261175634 -0.2923046046415353 -0.24495979680898458
P 8.416790407072865 4.504792152952284 10.149168071673998 0.2048989242323568 0.66104347828241 -0.1754914176045171
Ni 1.2694960140593035 1.7317710881917068 8.886469361980195 -0.2903158563462806 -0.41899005648694293 -2.9637147277793083
P 6.374807933794952 7.0132911745037125 6.172368301982014 0.9451208099181466 -0.6843507855497827 0.6017522967212604
P 2.5138715554635036 2.133297306883664 5.196404189967114 -0.14206321985305856 -0.7327173497786285 -1.2508296037807296
P 0.7021299807398113 7.072188375641694 12.197737143827819 0.8280057753699932 0.38814607452289285 -0.41453587737033126
Ni 8.768996946880964 3.3778005485845854 8.175106649787407 0.26791434872262887 1.7646139198314383 -0.2796959147385893
