# total energy = -381162.80625946395 ev
CRYSTAL
PRIMVEC
9.26476640740026 0.00000000000000 0.00000000000000

0.00000000000000 9.26476640740026 0.00000000000000

0.00000000000000 0.00000000000000 13.55992213417533

PRIMCOORD
 96 1
Ni 8.183781162409533 1.5350976577785935 9.828896067047294 0.38393923553039677 -0.7120603356499092 0.30970711638869886
Ni 4.372830722102632 0.6290970877788176 0.8489240507320333 0.8959425484212828 -0.24280881190425282 0.3144299757856649
Ni 0.8522074839087512 7.61046815899961 0.30035631163276305 -0.20876226384250499 -1.139397992770599 0.09824570844747597
Ni 3.4253323373685536 8.02110113094794 13.170630565137744 0.8899035413160545 0.2772099150919419 -1.7654222746653467
Ni 6.134850300866978 8.809004651398324 9.627056647865517 0.3506455064742735 0.12941262096858358 1.3324819266458987
Ni 5.843686490357069 1.842363632117892 9.370787653147904 -0.1885881028874752 0.3018842779101704 -0.03882597172826217
Ni 4.403867689207612 4.821606736908039 2.124555442942887 0.25042261969576873 0.7473872930859773 -0.2623913620218707
Ni 2.947205542924767 5.549261482109562 0.035644335385966626 0.21823343655773383 0.842213177218627 1.5474374637833093
Ni 8.196399774110125 7.573279387071434 2.9747487666580192 0.6469443198768665 -0.5407616159705009 -0.2274564978178986
Ni 8.629407156672942 7.912295715520812 11.551819258502295 0.4283193043076688 0.16983010555368172 -0.22230374997236552
Ni -0.2823289293662349 2.874458597937215 8.118393221294067 0.7776761738775059 -0.44042020133626086 -1.4449435215824404
Ni 8.318926308427544 4.946421668501557 2.905186121847775 -0.2622725770558193 -1.8966356962880948 0.35546915311516203
Ni 2.6951019871356325 1.25060447900468 6.729599194065197 0.5875641781463364 4.358791960658925 0.1975705088917436
Ni 1.8046189742117167 4.951359788939453 9.91181479895561 0.8956268169530769 0.5670719717302557 0.5741910992735402
Ni 4.320179055219767 2.3400205539220655 4.775818408900208 -0.7303110543299809 -0.14296516284203767 1.3453634105942571
Ni 3.4259438119443533 0.6211553301064627 3.144247666116408 -0.5045805380642536 0.06913747822760996 -2.5784380043844113
Ni 4.547100976205518 2.8252441593516475 7.371092539153406 0.5353422447271425 0.6266806845318239 -0.4267565878062392
Ni 7.283199554218624 4.122135410791097 0.4838450082041427 -0.7056839998099201 2.478104303059655 1.360998803138669
Ni 1.110456359184672 7.919985471549807 4.6647218167670905 -0.43475786084416096 -0.8828756879349956 -1.7608189715653801
Ni 1.8174692050698082 0.8353400503829822 4.637398167995149 -0.5071488130120622 0.4719606951467033 0.40940344123977235
Ni 2.7547948764064936 4.323996138935365 11.801146163831323 1.5140907700020634 -0.9284541478957428 -0.5983101038089308
Ni 9.069918999938752 8.361303349483716 8.7088868073307 0.17054795755631275 0.6542020298805443 1.4486628794155567
Ni 8.43120601121717 7.048819496361379 6.941039690563659 -0.2954783743838266 -1.7161252282024317 -1.0085473538039083
Ni 8.334593028240834 3.007491377238828 4.555429074632583 -0.2798782059527244 0.7825772107235491 1.278758983201146
P 7.831664454411964 4.524059502417433 6.886949205474404 0.2191009267643517 -0.3256086181103038 0.051851694563968764
Ni 7.9634279607304785 2.5569457920701235 2.2211832495453034 -0.9920056473951431 -0.24363773556345136 -0.033299899703710396
P 9.235999200632444 1.151221330904645 5.968834027060756 -3.880811541680704 4.513233242461363 -2.182313796752048
Ni 8.709825328156889 5.587589820292636 12.002877185247389 0.2357663032351746 -0.06745263432601932 0.8323082594000892
P 6.571322706025992 7.475656544568398 8.11433895956119 1.363711831194458 -0.23780261693891305 -2.2239242732039832
P 0.9968795891130463 7.007452314831905 9.951721853316204 -3.385602160418705 -0.9965744977127483 2.205259349804628
P 2.474489372000177 3.4796794564843183 5.875378476439457 0.5529409316455123 -0.9127213105415185 1.865748262680619
Ni 5.125398423884839 4.094202140396615 9.376021319630771 -2.8189893877130547 0.2120352781668219 -0.0543592914771709
Ni 6.589722531897778 1.8397787623201936 5.586239943842727 0.3507815178315055 -1.8802390000976261 -0.32925778482711676
Ni 5.640834432218701 5.165144271311813 7.326954266023605 2.4557498466238545 0.8389501901966391 2.3750467750458326
Ni 5.879856137992244 7.631360207006096 5.9959399538246485 -0.5540125674431362 -1.0075775336914712 0.929474104519825
Ni 4.143147900759483 8.987036400619006 5.023544362612595 0.10976733593383033 -0.2047865670242086 0.9460736607497191
Ni 7.223367693453263 4.005297442981874 9.009605371325792 1.366163120948428 0.33870453206231343 -1.3115148374759285
Ni 5.919852134109318 7.280216299470027 11.824848215456596 0.08595917777063906 0.6781035190884902 0.6740558313816779
Ni 0.7924247264047803 1.834275491137997 1.3853632842679815 0.52294052862868 -0.33914676180605463 0.11047156108970652
Ni 0.9757744514816601 4.839867591285326 4.937127254949403 -1.1012497638356518 0.20596310383081307 0.6522364215137412
Ni 1.2071619898240085 1.0678754932698997 8.727857342806566 -0.05453952580877704 0.6031982851391676 -0.19173410471562466
Ni 3.4067564809370663 7.758528389239813 1.8324336555975584 0.08764787832697163 -1.829530160888849 1.849006781556222
Ni 0.9019231463511486 8.98006003159511 6.713422912105408 0.9524469112659145 -3.899606305789703 2.5051533367576466
Ni 7.734625292185828 6.497362076653139 9.472961348857499 1.5322844101919544 -0.6216966010536713 0.7912762811594437
Ni 5.17009165651601 7.428647120362228 3.4945549652555887 -1.9387431669811064 1.9725670575090868 1.478073728477506
Ni 5.9741714589261825 2.087222140660431 13.280113234981402 -0.27790308450422463 -0.28541919037561164 0.2743973853438113
Ni 7.67109678966677 6.567060913527994 0.42512028701163124 -0.50402955065679 1.1825130787925184 -0.33873127153519084
Ni 0.8381324509458005 0.5625927423242011 12.928070645114234 -0.24141604532178423 0.14919546002246564 -1.1994103687684892
Ni 1.6999734388532854 6.697758971722008 6.377475074254588 1.4537562347780641 -0.9715679483660816 1.3951404820173843
Ni 1.9104226053576472 4.444540013264586 1.8455599764913897 -0.048343167190078036 -1.25590881807585 -1.2675605433821653
Ni 1.0945116963823824 3.4090726725120644 12.91598846338241 -0.4117400597927489 0.1866363784777431 1.0111595946157748
Ni 0.7025194342296394 5.09411130808976 8.000909499273734 -1.381997259767207 0.5567536205233831 -1.3206929044307707
Ni 3.3569768916071987 2.5230552769447456 10.001866474438291 -0.32042116037209334 0.12778794088096704 0.8448801825278287
Ni 5.269335833121544 0.6203539278215132 7.0281210819705615 -1.916304892582248 -0.17054924310789338 0.3465245423273645
Ni 4.548777898905818 7.85540078567255 8.2491783682913 0.48438863649741093 -1.7746430219326663 -0.7277492071400757
Ni 6.945248673893746 0.4429558886157495 11.615672954318482 1.069172937905765 0.5352599694259814 1.3212963423427244
P 3.09508047783897 8.637245148962736 6.873822884580573 0.5900915725538806 -3.313284741801217 0.5613294128195236
Ni 5.206622630036885 2.05842724700005 2.6880644706541577 1.0670489495842268 -1.4097723729979463 -1.5097412347841161
P 6.068143983507022 3.8433215337590796 3.11118820052814 2.2772849482133104 2.2261711602566305 0.9732178252646788
Ni 8.222665386570608 2.514772575872551 13.177084401342318 2.384505606465887 -3.023311613506335 -0.8491153036550989
P 3.258937134620663 6.808102338354936 4.448685069707203 -0.7571101768006961 0.5086976455564207 -0.8559544380641194
P 6.1670083046942565 0.15014758208759155 3.994943140165 -0.5445956450046106 0.6141283017881101 0.4610964987386898
P 8.594932961270663 6.2310926931913135 4.656910692299566 0.19065784093231034 1.30850690388754 0.8015465527372002
Ni 3.275910186482252 1.642467034429223 12.627202918381709 -3.05589263276615 -0.15573917467825435 -0.6647003583087069
Ni 1.0067280356899397 6.2242367661293185 2.829901557370654 0.900535567108604 1.5336735772299974 0.4537282312990767
Ni 3.039047171256607 4.30028760197368 4.068017131402942 0.8307134041091436 1.1425601925486646 -1.534276243811003
Ni 4.1422399536620835 6.152823947488965 10.356404065870048 0.25878281873500597 -1.8421938723994464 -0.019040818681534948
Ni 2.421874764182512 7.4688840004031025 8.664261207493519 -0.6971602786096252 1.0601887321292838 -0.8605577411640857
Ni 3.948726779954111 3.1118589696082593 0.4973076401146639 -0.10366276569798923 1.1446623264933318 0.07732438491377651
Ni 7.3452734884285835 0.5821349138807783 7.708218855277585 1.9269369183747973 -0.10476422629228407 -0.31974444602004287
Ni 7.211462468757771 3.219969527562889 11.230531060367955 -1.412736854942909 -1.8387563074728073 1.3501330640687588
Ni 2.387845277562634 3.2845171543749463 8.168632343032414 -1.5354211560487234 0.3994116201343831 -1.3339081175694638
Ni 4.716609140430207 0.8057483868208015 11.323443695684075 1.5166222781746654 0.3046659544203656 -0.7843265893144878
Ni 6.471411466246857 6.198619687309836 2.5427021403605123 -0.24781217865611518 -2.6090726985511323 -2.5056264197393237
Ni 6.732881700765285 8.986165512586808 1.9446281225372248 -0.9150494444540628 0.3686491421405458 -0.8584964877596828
Ni 3.3855679604089803 5.480424268500606 8.160239391241248 0.6059686487954532 -0.8979199838626278 -0.7701677813156026
Ni 8.906849848292559 0.846258577467525 3.6908883338252796 -0.875868146268911 0.49335792987555677 0.2881252764528651
Ni 3.5885497252755467 0.4851976640839418 9.063479060883626 -0.14817678894996414 0.6030463329423356 -0.6234943163840423
Ni 2.0095463400012825 6.7878032353916495 11.880701785572738 -0.9745033768453218 -0.6723959271807517 -1.2088249772141697
Ni 0.8246948339042892 8.64601888264883 2.4916495721410263 2.1352392118617485 0.9376926357748754 -1.4993776321616048
Ni 9.082935996590244 3.951663710871209 10.496627230297086 1.4805278464449536 -0.1752438203700853 -1.0698668786489962
Ni 3.791253547153114 8.20662807610532 10.831123279268697 -0.1641145432261432 -0.3467883375117124 -0.11457607017638331
Ni 4.253704357017311 5.475476883296409 5.776648494363572 -2.0877342243022494 0.5292721272736626 -0.8633692424709518
Ni 5.2215481685461755 4.943938711133158 13.248152570676313 0.5287234538590442 1.3213248815878147 -0.552270645051365
Ni 5.983186076536077 4.0142101481624675 5.375207097061465 1.0391663642413458 0.18488545722490737 -0.951326424508226
Ni 4.907222442286282 3.2058963475531974 11.504874687660227 -0.1484387843620992 0.5550214683236248 0.8094115573075737
Ni 1.1218149626684644 2.0074154437522838 10.906950759050998 0.11327971996246297 0.7621251135167842 0.3066192214919945
Ni 6.456198719982266 5.2689745072358445 10.81063424859626 -0.828342846994438 0.6021253637899631 1.62009941022441
P 5.3546365364455895 7.181509479309891 0.4959503518517148 0.024294867991622678 -0.6380763279632753 0.42449658812746893
Ni 1.6620620151537102 9.016878212871287 10.653542724166824 -0.47910604794223294 -0.12487205278575268 0.3941871385106502
P 3.1040395068510644 2.6909421070669355 2.368090942857787 -0.5574575885689431 -0.22971983993077857 1.0747357767055232
Ni 7.782236926201497 8.436477663241869 5.0604811328974115 0.98995570684465 1.139895758342624 0.8665697516861204
P 2.294484227557595 0.07579690605351029 0.9241020703967041 -1.0357311133075517 0.6683803782634553 0.23250228777192214
P 8.125357546121773 0.40521493661609426 0.39200523282556293 0.06886571262346206 0.5393991884053356 -0.6575238951649257
P 0.041260636717022944 5.219259771270077 0.97607185047989 0.22870605395428353 0.17134525664662748 -1.47115129032606
Ni 1.1816097643686252 2.874393744573115 3.5849318340353995 -0.031199308420939816 -0.6476678283064523 -0.3350779910533197
