# total energy = -381168.0841024703 ev
CRYSTAL
PRIMVEC
9.21538730450932 0.00000000000000 0.00000000000000

0.00000000000000 9.21538730450932 0.00000000000000

0.00000000000000 0.00000000000000 13.48765082577073

PRIMCOORD
 96 1
Ni 0.9725919637318985 1.909621748308582 1.059133664806432 0.8113704808061575 -0.2592165638383149 0.3841948031846286
Ni 6.918175469137871 1.5486181706391355 7.677009154754057 0.9678622173797201 0.2058335202314842 0.15403659016485083
Ni 2.1060108646539537 1.8883710654550123 7.431978460218747 0.8500941226286004 1.2276698778348147 -1.4242427986999795
Ni 0.944144063485164 4.110394439408007 2.1810204302024863 1.7225689269452462 -1.4975549771305692 1.1116231366501759
Ni 7.343299710855513 6.1420739910104025 5.39690764613148 -0.32720373051156554 1.0701787534624603 -1.40263010552621
Ni 1.4444474338755824 8.687096685873033 2.0792834771950597 1.0531670493958118 0.3319438162997122 -2.6153724155169153
Ni 2.595698109004774 5.612779012529208 4.900413916804229 -1.071520097981703 -0.8314428260760004 -0.2663845423416638
Ni 3.972025400792938 9.155238354980296 7.188648004619466 -0.2905200019372868 -0.6992588130098667 -1.7238627060560054
Ni 5.8511995098351735 5.7458860650604136 9.74867150674534 0.7035859796303108 0.008789830377488086 1.1121584403283555
Ni 7.139307900080742 6.45798667917312 7.762061649259146 0.09110601207890116 0.737315253561956 -0.24153560161878398
Ni 0.4637827909677398 4.758577127990635 11.157079404409416 1.0426178131250559 -0.5879781257553035 -0.3951816412134355
Ni 6.036880346269076 3.0872560769545867 11.443313938135914 0.20630814587505758 -0.7585672209621968 2.5121122845739836
Ni 8.411095839617866 7.7293046339637 10.066346176938243 -1.0226262004944775 -0.28478695610825144 -1.3492689162962506
Ni 1.7827258667415153 4.097732497412863 9.30977026118291 0.651138303353556 -0.32200958790513573 0.24397403585694757
Ni 8.415924702503935 0.7836645463919633 13.448131557626482 -0.635382840291512 0.18797103812876662 -0.002217062255976827
Ni 5.917006589738617 4.331112177927457 6.028696160908167 -0.5439983777402437 0.6259232375405092 -0.051538791309240266
Ni 8.503415588458743 7.689116330440535 0.9284382791021027 -0.021947707915684782 1.056962254772186 -0.046323565656887965
Ni 3.8349188702225074 0.28864159285978214 2.213700957784279 0.4434281349246492 0.150895730543024 1.0620818353869386
Ni 2.7971649036902657 0.8033329472654993 0.09507238499367897 -0.6812492638063234 -0.8936018161032482 -0.3207322638546089
Ni 6.676354493959846 4.023465692071614 8.242815497270742 0.07745885360911176 -0.9845234800854851 0.919952538182635
Ni 1.153029244856312 4.695304279563659 13.494933744533865 2.0112768153744587 -0.9892548241228833 -2.0702795191609122
Ni 1.3542011471518145 4.742468631187496 7.048970381023821 1.0531423668054638 -0.681422299049078 -0.014633690752774797
Ni 8.902543222921434 5.07100639979661 3.7891257682121178 1.9344085441614944 1.0421362455029473 1.0379445760191028
Ni 3.751362954596611 2.2064032926707746 11.813711681503941 -0.8058966021757797 -0.1818307295589836 0.7654976295334429
P 5.986352378321927 2.521873642248509 2.650404333502576 0.32378236353484235 -0.9877959801891698 -1.5195960160910087
Ni 4.423551726801767 6.914341868068016 5.55844969736736 -0.0664200792964469 0.522362801748339 0.30614202474525987
P 2.691252458748341 2.916412013891997 13.621313564418452 -1.63438805893294 1.5534888121837116 -0.823948060360852
Ni 2.0231829646158417 6.044280302180358 1.903499045061439 0.3863018222253024 1.842698322839691 0.41432890356584773
P 1.2491365178311078 7.84535400481149 13.222483586961907 0.43193453246275293 0.9956216468811756 0.9050748497398542
P 4.759120835834677 8.455191467308383 3.972328587031395 0.936620228646303 1.0306097329205863 0.9204870705298663
P 6.3862725360827115 1.1414731493236248 12.80644295239464 -0.7365128122653186 -0.13482813555720005 -0.0199720722465527
Ni 9.457936177916638 0.6046657872074642 7.63355123185689 -2.841347443693281 -1.157190797977646 -0.10978867609006897
Ni 9.229025960187812 2.7979021346652377 8.294729459450839 -1.1541592102401736 1.2240423083845564 -0.600229946539463
Ni 1.6323583940087751 8.916357088314973 6.037288587921466 1.493793453205608 -0.39805921987154674 0.15199719113731888
Ni 0.9222390881413064 0.6559475738265211 4.025969512770363 0.16029156993562715 -0.5823273552274294 0.9703585014390126
Ni 2.6650807591368326 7.894637895488373 4.023096155045408 -0.15349588717003243 0.3348437635553265 0.3591849114038524
Ni 5.772242072415665 8.17837045159356 9.601885133473528 2.3046144892661986 0.7524659931604655 0.3771137279681312
Ni 4.596349451948033 2.542847863486464 0.8746029086934863 0.6337291067381731 -2.0987593717681596 0.4947974905355607
Ni 3.25621098564381 6.066701339206696 13.262366861169177 -0.40921060850267593 -0.6521166081064252 1.4568945232967296
Ni 8.04201036738529 0.9386516927216221 9.89923434568645 -0.3236478948395071 -1.031900683817868 -0.5091231631296136
Ni 0.26785536552044475 7.526805715913247 3.556382870952155 -0.39412774602762446 -1.0325802263833959 1.0636219261805488
Ni 7.988837583315428 3.1894823670216508 10.4160544545324 0.8529796717065116 0.39349731153247713 -1.0605461154687026
Ni 6.201550099916274 6.396215938857648 0.053677787287716154 -0.12706468956169728 -0.47625109499194107 0.4541303518335017
Ni 1.2422157620535577 8.740297116104456 9.302055139029827 1.3999898396898858 0.45010837515830227 0.9616907984616857
Ni 4.328550300289429 7.095239918551787 2.363684148871315 -0.3725551620631713 0.4289404828314355 -1.2480579545728634
Ni 5.2075507917486235 5.704905238239155 3.8330960666368896 0.4311914836491412 -1.277471374737974 0.9549866469686327
Ni 8.662408663598656 5.495614579831772 1.064221480072458 -2.380919945997158 -0.5062520122294056 0.9487661199802175
Ni 8.535881397519075 8.584409626446613 5.667375573919482 0.8995220382424249 -0.11112050752761507 -0.2441686683662569
Ni 2.685004426235453 8.828110540610817 11.393220936464 -0.211317683274507 1.520192512024427 1.656811678043779
Ni 0.6923667839901413 2.241255887012579 11.898899642200684 0.6866385531426948 1.4844294954922046 0.439968715621139
Ni 4.925633666919306 7.111652523132103 7.773000313850295 0.3352895928434936 -0.11438966519719011 -0.8971303980817968
Ni 8.47173308730932 0.37817829477013964 2.341091705643296 -0.47149815368798803 0.8493652148823759 0.2959018350744904
Ni 8.705702552603892 5.047156977756263 8.932938334480813 1.6847479994427308 0.37967891759214606 -1.6722624653812104
Ni 6.4038094178998595 3.8388630559386083 0.40017818860202475 -0.7668597999882922 0.5338116670152291 0.19030148603415611
Ni 4.576997138855016 6.879129873625913 11.639289283596582 0.671858566620043 1.5987700526190145 -0.6998347401179946
Ni 3.521807659764684 1.160613508511337 4.995731431097087 -1.5471921805417226 -1.2676883272092812 -0.96170313975686
P 0.35985994811952116 6.0797687582380755 5.663572383627344 0.32694482042322404 1.2220723291423792 -0.6712476725089214
Ni 5.243020817031967 1.70903041540587 6.154657602214456 0.7075133397091751 0.7528573150616131 0.5912012606782914
P 7.846856112922996 5.6598788564427345 10.625692533036737 -2.335887845458184 -0.07594087430268856 0.9145737903692249
Ni 1.8270242329501492 6.725970138575466 11.456383200244732 0.06842682531383054 -0.4372361471813244 -0.6933748434252639
P 4.9014340601658475 4.821794684094489 11.647368413543557 -0.03005439618321921 0.597574768304803 0.6164518077149641
P 6.729462770319396 6.10643808875769 2.1636346807352074 -0.4256738962650218 0.7449586290398267 -1.5013242143650145
P 4.789798859780703 3.0399534945229414 7.932195205969606 0.061997781859035164 -0.8001460728452477 0.3867846753989919
Ni 7.000496522880689 4.3231869449465075 3.1573372534354314 -0.8137068422488181 -1.8995464421769868 0.21599426281456993
Ni 4.030045478523239 8.15540570672318 0.34185676771070334 -0.3238422702385003 -0.5926665323699083 -2.1161724250382843
Ni 7.433251105189292 2.592546446586769 5.534266678310838 0.9546814570233881 0.6431568278099762 0.12153373244113908
Ni 6.363326221986706 8.37240042881902 5.593423013281315 -2.352975139957773 0.7055438746876301 1.4186174820934019
Ni 6.742456466253278 1.0691507906788649 4.099112962413497 -0.6488713616962503 -1.0345514911771538 -1.3614402615514618
Ni 2.7571609079108437 4.501513902405063 11.50158098824283 0.01741331038044098 -0.7023824462405129 0.770810299995608
Ni 1.6894569330203615 3.0910251703141314 4.661965773336702 0.5759057679718017 1.677438096044879 2.7779579236930414
Ni 8.354541008450322 4.490142114616119 6.601004880624107 -0.5744872903577203 -0.8387244473390781 -0.010860339753271619
Ni 9.105936033529039 2.5721251485800427 3.47182892889389 -2.3374569897175164 -0.3308241008729722 0.316413581874597
Ni 8.17461978900839 3.8974452722873263 12.640086782892194 0.675909596760965 0.175635142271233 -0.19434300309338143
Ni 7.10894319929908 7.798936099549811 3.348106826674078 -0.5980000287676799 0.21210186973869924 0.38676359235306945
Ni 2.4967340660019612 6.829984213756838 7.020969427055663 1.2898301534136432 0.6629543221518777 0.49201170026030755
Ni 8.299460639232722 2.958102425526668 1.3274037227502986 -1.5793880485479768 -0.2418600748377383 0.10488095437580647
Ni 2.50805977685497 2.01972719442066 2.9959306683912033 0.9402107742110387 0.5760428077702983 -2.3082212327808507
Ni 0.3780925916692991 9.243586271943512 11.523444494344346 -0.22469153347825171 -1.571614575250145 0.7135148087082486
Ni 5.734118015622423 1.6624834947235712 9.71643608236469 0.07049450647613666 -0.6560699363272186 -0.9658377307505237
Ni 4.219430900606376 3.4442325304232484 10.028553874083737 -0.17102052631735706 0.42649459239410414 -2.1334026728736415
Ni 4.831019286668828 9.443560173904684 11.33740886550374 1.352425202537045 -0.2950209751314339 0.8257874275624357
Ni 0.31330381205003516 7.337226770699181 7.660230699302411 -1.0619013439450162 -0.8463809354430715 -0.4159132173338321
Ni 4.584268079345677 4.84970809188437 1.45909437027084 -0.3868065297758629 0.5431565985652388 0.5155771462850733
Ni 8.723773926877895 6.707696025783346 12.158604919292811 0.33313577972528435 -0.02468439012055749 2.3662050083844863
Ni 3.433275435057726 1.0068824194552868 8.985526863003008 0.32301128969677273 0.6834460143473262 3.1015909061342133
Ni 5.9577201703314495 8.665587972178225 1.3071989863424702 1.8908761680964985 0.8865030002749378 -0.42453978266057857
Ni 3.549241867420832 7.817873720219406 9.622656616193366 -0.047935647339014224 -0.1509170706992627 -1.048338003438285
Ni 3.8435352572424937 5.426066052730344 8.790495173190303 -2.2166606496630337 -0.39017673179967644 -0.8633885257446614
P 7.333135138788086 8.691197533171316 7.8846779050165 0.5029787407947724 -0.8501414309267682 0.11907755759116266
Ni 3.539455126228078 3.7111746510734465 6.405635907640353 -0.43565389029586904 0.28800109217017494 -0.3306896321776369
P 1.7953785933494733 6.657103550125887 9.25090974014114 -0.23714801407404965 -2.2745181841014506 -1.0912797971071335
Ni 4.748283540502588 3.2377341343335724 4.198746042526097 -0.9144323796953543 0.03834080456172751 -0.0669263295089041
P 0.9355737534011137 1.6473149674135208 9.828882236822302 0.8932369765646616 0.15952615252451238 0.152257386777241
P 3.135185305714958 4.534035003788518 3.0724598512868972 -0.44523793443987836 -0.507352701492752 0.30806238169642425
P 0.292261396946895 2.0975050622802134 6.083888036310732 -0.23828572722291866 0.3787625764254638 -0.9773480453829684
Ni 6.9882953502449014 8.214282815461887 12.244614892526647 -0.8466311037806644 1.4058211016596822 -0.3769890294648088
