# total energy = -340860.62498813093 ev
CRYSTAL
PRIMVEC
9.30509908806964 0.00000000000000 0.00000000000000
0.00000000000000 9.30509908806964 0.00000000000000
0.00000000000000 0.00000000000000 13.61895308922282
PRIMCOORD
 96 1
Ni 1.7109006614525941 9.077645285364131 9.662824359354737 -0.621354387222904 -1.167998687226427 -0.4766622143874307
Ni 3.3443735930572704 2.4043631740010913 1.2860326267768394 -0.9574343371781767 0.21880576412143607 -0.33340368867469033
Ni 0.1907573236631729 5.25545485206043 9.92528863792165 -0.9672739489764179 -0.3483651950805291 -1.0835778004771857
Ni 5.860928347250208 1.1307184256939713 8.525750550956028 2.3934705289686584 -0.43860037451870265 -0.44920720350027155
Ni 1.8031793295095342 8.457776801822627 7.206454986324682 0.9177637580614323 0.7480092429406924 -0.863925372084738
Ni 7.766324190685877 9.177349422525584 10.020730109172355 0.31085742794305815 0.776850849762733 -1.8773156558032444
Ni 5.543512805780172 3.1873686554627616 0.9847977221812839 -0.844200382851985 0.44997904866928956 -0.5502821538664264
Ni 6.768491885645446 5.249955538475509 9.928461676724456 3.0897414629947946 0.5358801195084836 3.0944339833744574
Ni 0.07961442814310558 4.028558921774693 12.026434921212825 0.18247813333499543 -2.2147145816802567 -0.550361343843794
Ni 2.1278063228041257 3.4760965763197533 10.278128691773734 -0.7496889446359605 0.02271878175375442 -0.30055553179641786
Ni 2.466186252610581 1.9140775009225228 4.886452771532124 -0.5040532048058738 0.990819597506842 -0.07822375679959431
Ni 5.379119619477666 8.083106985415176 6.269744155419454 0.8315572401666774 0.1341992437239495 -0.672562534665603
Ni 7.048426487826043 8.359179971457463 11.949555261703575 0.6795423084175458 0.07392358676234366 2.7938596825249626
Ni 2.248121254535116 2.118259291098325 7.941170725349295 -2.074142601660744 1.4325708589497004 1.8406576382605784
Ni 1.040617150833091 1.6182683996287728 11.6044375096182 -3.264312682777888 1.006825228906479 -0.8018522569030772
Ni 7.817055591134242 5.968253360597867 12.09546852113696 0.19389640247426607 0.14819478667209315 -0.9827995554158429
Ni 4.031415587207131 5.609309161717515 10.21727892653308 -0.10542268581188942 -0.3819512585660906 0.17325764317799192
Ni -0.3459384618285039 7.261587698660809 8.219106592237098 0.6849706785219687 -1.606649455367091 0.27609019966520193
Ni 2.036206926983563 6.436923288401022 5.800666664274472 0.22989930293143632 1.9663586147055294 -0.954943195325207
Ni 7.385522313952771 4.703159998389801 0.658312500590739 0.9338354668123143 0.906446276166084 -0.7626419052522028
Ni 7.2583588292632335 6.496978398176105 4.521778492608465 -0.9969419083544959 0.24351329417044512 0.7514599204934542
Ni 8.548994688578922 3.155517301146042 5.5524336043146265 0.27796839052452127 0.6869504279561589 -0.9480698652441413
Ni 4.209654761012786 8.885020428305877 8.329814939627868 -0.9492078355033267 0.3756625973439014 1.173621432729843
Ni 3.1977624511892513 4.65809540331067 3.0551943748925483 2.6036363580269093 -0.16389934189154354 -0.2786610457161717
P 1.9358142124866058 0.6374904802709835 13.270022338315194 1.4955765132479597 1.1843030808134054 -0.06748451600521926
P 4.363207506830636 7.116930627609767 3.337378950042407 -1.191150185642226 0.46238102187806823 0.9386380304072802
P 3.7917534540545095 7.18012155579114 7.183657493459954 -2.249322915782746 -2.2765974352279823 -1.2936536409247912
P 8.61814088020251 7.212196232486942 10.292441795253131 0.5517898487602045 -0.5978380492685188 2.149515776385421
P 1.7091326926181867 4.326461670372347 4.42444343368512 3.534309110840526 -1.7272125963648446 1.2044093646449774
P 0.05961963113587028 6.986082323665359 4.751434852668254 -0.10563531604332775 2.3676211720057228 0.8585941896798116
P 3.359503684240147 4.6528101070057035 0.7872095252479084 0.22116295149970297 -0.2716203368193064 -0.22291618674538385
P 6.9662624625217395 3.713516180582416 2.4592697724283967 0.22257217314240377 -1.2635725052686948 1.9454953981032754
Ni 2.067825653822071 6.83964797868078 2.9322693628560246 1.9046153720594619 -0.4697382335740878 3.2957619024261042
Ni 6.962782355447695 3.6442024971745157 12.069116480405158 -0.8857887478167326 0.6881107668128471 -1.2242351411216528
Ni 1.2676243491710064 5.067687256747231 1.8752073103332059 -0.10571836267543729 1.0850726398551571 -0.4052680789151601
Ni 3.1716802583321773 9.130032993457363 2.211282367085542 1.6814929828405427 -0.6727075448838995 0.2205353452180331
Ni 1.2661355333104527 0.824678367908479 1.6018616488454716 -1.4672506697200731 0.9758706895064935 -1.1409172576286026
Ni 4.463758408012778 5.728302769372263 5.422549308639929 -0.062269547463183084 0.47175886354854235 -0.5067472066982692
Ni 7.008805375737058 1.7364896840558597 13.253937543961737 -1.9600087612281014 -1.4910390303889223 -0.4491023024912911
Ni 7.986203683091392 7.344151843227636 0.3542507068799574 -1.0708639524549428 1.5622467608819999 -1.8049128765608013
Ni 4.160942567075296 7.827151623688621 12.448635183968449 0.7513107965100996 0.7716266252493162 1.6186634491088319
Ni 7.193037033381442 6.128645354275136 7.027924562916306 -0.08623145759541923 -0.8581059371894834 -0.8366696216925784
Ni 8.895014104769844 0.39530201270498533 13.10018008596306 0.21374429043812868 -0.42215277048564076 0.27428657079755986
Ni 1.8911869570665107 6.279750859022202 11.062838867395739 -1.7782057995832603 0.9073027106291084 -1.01011058452597
Ni 9.261225586069523 5.028019619162605 4.214371515761002 -3.8786397308403653 0.19851744618604522 -0.9945687801366291
Ni 9.176716675784848 2.614546753114751 7.626069362032508 -0.0656052967046354 0.5103683483906243 0.720961494794281
Ni 5.582194102857181 0.9694052272029849 2.1483222053625544 0.5736838206198184 0.35570260928220676 -0.7939972796350325
Ni 1.3382965770516617 8.08162747465375 12.579799861283226 -0.08968676313387135 -0.9948575150216415 -0.29463453832629255
Ni 5.512424469591986 4.356265902880805 8.546342735327311 -2.2798768773102025 -5.976010964011747 -1.9059004094194725
Ni 3.815323270146899 3.19898141917508 6.739720519140246 1.152118268550745 1.5139385606949152 -0.5189134097471578
Ni 4.453122679708947 0.8881596151826603 13.20055139873202 -1.4258196562687961 1.742289288192309 0.5192818488301701
Ni 3.3481235480060403 5.740641330816602 12.485175377735999 1.1137507245161398 -1.6870884746504493 2.3352306714901587
Ni 5.146166462796664 3.4106072886536505 4.2613157408640845 -1.411095462684744 0.21300818360305254 -0.7408800880950789
Ni 5.584725089820123 0.7737106179422512 10.863825129275883 0.037936370034457254 0.3579831777862673 0.6354468607602282
Ni 0.3747107588436157 0.5799858981670123 5.5828994293711185 -0.3145981259324131 0.012723361103939377 0.626238711898399
Ni 5.4835879673928885 6.337758846989022 8.530244913835075 -1.763703492202027 5.7601334292807 -2.220989101835059
P 5.958473701413856 9.001352777609887 0.21667109422602174 2.0173088805011514 -1.8568154789673637 0.9896913974396698
P 8.83067864939567 4.923216287678757 7.751677034147767 0.4748989518394208 -0.5439677816126244 0.3173710606918599
P 3.154354163754985 0.9458447162097238 6.670590146185177 1.1417160993808142 -2.730221536849027 -1.513777866747335
P 6.275954378577789 4.521868752070011 5.70541501704599 0.6823535526140958 0.18839269904721748 0.4416227062847943
P 7.397516586729356 1.034429259912665 6.421486128946907 1.3833535166847852 0.6707936156906383 -0.048309999959297446
P 3.7657363968913344 1.6460069001307125 3.200181776962651 1.1916528363102574 0.03231645274451854 0.7047869419169475
P 5.619954195120473 5.963517065141481 11.844376004214936 0.03409874145592192 -0.4319072787692433 0.8267621327708794
P 3.4246300730402397 8.355709169482546 10.621544541228511 0.1802469300116315 -0.5405901233896432 -1.346770832464745
Ni 9.123007643615376 0.16278991772267287 7.934987486978434 -0.310023362077537 2.020621489814152 0.30280576128317527
Ni 7.775629289814336 8.359673141711271 6.328836187434741 0.5829626748185831 -1.537607365066765 -1.3005418834041924
Ni 8.159232001385108 6.502589372950566 2.2980077519826168 1.0052044054736045 -1.6070001538382908 2.445202153014995
Ni 6.809527372801955 1.9794830426964696 4.614550330919213 1.2075705359817783 -0.9416153678680492 -1.8833027266246147
Ni 3.08923708005402 1.100951413582027 11.278155139188655 1.8906123729121502 -0.5307638813278408 -0.2312645587100791
Ni 0.7372885989336321 3.135120523856457 2.8469741716949946 0.05444670898465462 -2.1961504455248244 0.6190673909609403
Ni 1.4299797187643803 4.508162341053789 6.517813445634641 -0.6681633771566428 -2.3980316659767795 1.8474808318299987
Ni 8.032896670518005 0.06986826731595636 3.609675926858364 -1.701627805917205 0.711522203758252 0.2609358605222667
Ni 6.705654551230954 2.848402504411213 7.172421586262339 -0.13860302921860002 1.9928931706609483 -0.5714001667919644
Ni 2.7197036783654798 3.211440946908088 12.540672849957964 0.9269207419703519 0.5957145751676127 1.0417788621635282
Ni 5.549998459872708 7.649414925235902 10.459696299537638 -0.8452331949918734 0.003941501146251277 -1.542066686389699
Ni 4.102348357863383 2.0756791574864915 9.384943392551792 -0.5522174232159265 1.5929524174959728 0.5962573350449603
Ni 5.68868165728328 5.420601751392341 2.8062941393251917 0.031329920461533135 -0.7315544398187789 0.5449319452981067
Ni 2.7138414659145496 7.223650809514076 0.9059025782008083 0.8444387241150361 -0.8532768912319563 -2.48828304336487
Ni 6.1512939655538075 7.691874092559066 2.3057700656755786 0.6752426526009273 0.5748055929290875 -2.9259038275791225
Ni 7.490595493311344 2.760683334927218 9.410315606345364 0.02473555507346708 0.1847468747645141 1.1623587153318304
Ni 2.974207444627995 8.578938497574308 4.586795081238843 0.45305820181524553 0.2806497940114263 0.6035638960087024
Ni 8.142575873945166 1.9655719194994217 1.5181315753578482 0.6842672246970409 0.6233289944507717 1.6009076677873073
Ni 0.6026568416835927 8.431024641828303 3.16493592248387 0.667913980149998 -1.5099381812862707 0.11425005429553226
Ni 5.204202366060871 1.3188396147740513 6.116884639486675 -1.0485596325307878 -1.0569092900470638 -0.38046181850475763
Ni 5.279917957669151 6.17527320600785 0.578803220067785 -0.371726752624605 -0.3379170031640116 -1.3913211082712942
Ni 2.3153412906391124 6.690971104806243 8.682300469203156 -0.06583258222409306 -1.1709747391356156 0.1725513611395867
Ni 5.796118331820482 8.897535786633657 4.025217460677664 -1.436514416978481 1.0136383951735706 2.866285601695857
Ni 0.668953811954046 5.632776621719491 13.354827150752154 0.32148996795623985 2.3133819510461833 -0.1720718504000069
P 0.7882414607412546 1.1139878574609998 3.600810028408767 -0.841423591437796 2.0013664982392823 1.1078053055659827
P 0.5933833798921693 7.40154569465198 1.2518745383861747 0.46125359314184433 0.012119151861037191 -0.7003713293477551
P 0.09040089905281666 3.7314471066029586 0.7823085295369483 -0.6858003735121158 -1.077020458974642 -1.3890891336169817
P 6.588624319492309 8.325439682017665 8.308391809904414 -0.01168412120614762 -0.5254260140546951 -0.3141852067647105
P 0.7509466234343861 1.6025427821016747 9.333599716580775 -0.8073934984362804 1.1312151998494906 1.1553565729823845
P 8.08761995849248 1.661118381115332 11.318548574505302 -0.11193529011942657 0.41644209325410864 0.6417524912632818
P 4.857317575651002 2.680305888655579 11.795797803704897 -0.32816326621135744 -0.27785988997111505 -0.19875758722130932
P 3.1913047123941003 4.314895432155671 8.634484356311738 0.4296488217523697 -0.3332417091755293 -1.0151396623094453
