# total energy = -381166.0865467541 ev
CRYSTAL
PRIMVEC
9.28204236594443 0.00000000000000 0.00000000000000

0.00000000000000 9.28204236594443 0.00000000000000

0.00000000000000 0.00000000000000 13.58520724578500

PRIMCOORD
 96 1
Ni 1.9169737959857638 3.9450814850079037 2.544916955708564 -0.3010342712050493 0.7852876676761766 0.20006756428198447
Ni 1.2393197302623278 8.040309287042152 11.741925585866456 -0.3084128230573076 1.916850737783389 -2.084454010889081
Ni 6.932349020093178 8.786566927761985 1.9337046773186017 0.27424054805097287 -0.10360234477369899 -0.8058693484822702
Ni 5.998631252106775 1.4168387901738528 7.783807472380344 -2.6357391520987252 0.9644423930648938 0.7351652970984888
Ni 1.9366331616794952 8.523606668034219 9.390190208327965 -0.4934461187139889 0.754128468464553 0.9696563331656654
Ni 3.4065837981704066 7.70108776738063 13.155629830339285 -0.20622664190484485 2.4980432080754267 0.289462764317366
Ni 5.887738692171455 2.176221238774203 2.041937932121129 -0.5104084575999404 -0.5443763299049528 -0.024896763241679703
Ni 6.859754166887007 6.297568707976609 1.2328334390693252 1.0770559401982676 -0.4497237381253738 0.13059224309898154
Ni 3.1163157698538986 1.5938102095868274 1.7088425604094957 -0.8389987840463873 1.4566520682686201 -1.3501993985303198
Ni 3.904073421913048 2.0547564326041523 12.6247192849173 -1.0701335020468214 0.3163526467296745 0.7838393652654243
Ni 0.6506210455882036 0.4527724565253987 6.405615393727936 0.5041539920497963 1.3427452562451199 0.16802004892813643
Ni 2.891040602060293 3.8167294034154033 7.26992019262517 -0.2416394741865 0.20594022101267756 1.1259729776139447
Ni 8.722706476405577 5.045597553993529 13.094984678452333 -1.147793673033462 -0.6105596106002452 1.205236231421647
Ni 2.58713725353411 4.341647462297316 4.992835640673001 0.21440583528152754 -1.4738195811868422 -1.1835145234738391
Ni 5.522239710621854 7.442972733758686 8.006048340530286 -0.8742074707370363 -0.35526500752415585 0.5320214078840257
Ni 1.80996112975204 7.904318084596988 3.0308328008470915 0.10290403315509375 -0.9843165062810016 -0.8439365876676368
Ni 9.37541969433909 3.2463386190690957 3.982557730989226 1.1662284826998819 -0.2832018710093187 0.10224505941485616
Ni 2.82500815279438 8.253480671613556 6.476136638673495 -0.9051488975108991 0.6127571324721963 0.33837208842355915
Ni 0.8804156398012042 1.5429538995604093 10.313617904167026 -0.7105752664639504 -0.6011048929452486 1.0817330339589628
Ni 5.418679964141703 4.907063071944926 8.967188046226317 1.1152615047337116 0.2460810548976213 -0.6102477357867813
Ni 0.8547368696445906 1.795917399679039 1.7754375014417167 -0.1486149049286473 0.07987080548471406 0.9843671570132789
Ni 7.883953283684785 7.768438266660004 7.206327064088393 -1.4715066167829496 0.38741279590129407 -1.1895291050990353
Ni 3.186413753668374 4.013750034300738 0.6156871510060851 1.5289666586726312 -0.9079434295369009 -0.07502504735663852
Ni 8.04268548988332 1.6982981603018097 5.1528422712859605 0.02232026076375511 -0.4056210913792046 0.22006431911888552
P 7.44190529888863 0.5523437094084787 6.831606373465741 2.1940611670959633 -1.4570284777714326 -1.8286181905975412
Ni 6.383975240197074 5.418912015200411 11.912786636801535 0.10104589690043243 2.201490883901131 2.1578021847639293
P 3.2722819274326365 5.855947697128476 3.116391882601155 1.0518964102135044 -2.0140921733360666 1.618889706187025
Ni 8.332869979818694 1.061048824920589 0.21537401322065838 0.5956466980441548 -0.18934117900341588 0.7564396330962327
P 9.004323641253455 8.251902724414341 9.975617901278541 -0.5677602560465319 -1.0962921627200604 0.5912832788691366
P 8.04968414981395 6.592162168027432 5.212209285941548 -1.9482091974900124 -0.9262360571985016 0.4102606470337451
P 4.281676186684852 9.34831613068201 1.3074740544090657 2.1275403005555944 -2.156258494425893 -1.033860121537084
Ni 1.1096960088681083 3.32547731213083 0.22818694447827248 -0.3640031587281022 0.3455063854754953 -0.9380153092216168
Ni 7.507937748154543 4.38861459657979 10.385659547649238 0.16155963801477338 -1.732101806136346 -0.49214642606595893
Ni 5.2899194726858765 3.688637219008656 11.071495733702713 -0.6743281112064581 0.006829107106691465 0.24090131046889482
Ni 3.863093204945237 7.243483079608699 10.668911280154655 -0.2836515569522276 2.2619498605181363 0.8481876496345069
Ni 7.274670741899037 2.005162480337105 10.019960073984914 0.2232141776017769 -0.1310172464515421 0.2710145849145074
Ni 5.915640511470491 0.8153345998759932 13.432306164045153 -0.6434771872638725 0.06323731069309109 0.2696629559826194
Ni 5.870204914175488 7.687053319349978 13.229900092189327 -0.6836560734756033 0.07274576440415859 -0.7664317113119381
Ni 7.134614004905312 3.519230664109558 8.195602496550636 -1.8281631053379936 0.8865179126732732 -1.8779193508255143
Ni 3.226270843512039 1.2417052151458448 6.490060630400202 -0.041289602777406315 1.216487378855434 -0.08632427441954164
Ni 1.1298101946369068 6.612090712949265 13.268563511386997 -0.9406702303459606 -1.209031179687705 0.5285375631004833
Ni 8.977433564570386 5.857627746793522 11.08091050925661 1.6338645823293023 2.4507595924981147 -0.4539190071536441
Ni 4.861116962320766 7.275014177465925 1.860167696814076 -1.725593829814499 0.01645043224653941 -0.42413869056741793
Ni 7.7953097792583765 6.153195821290917 8.966861318335656 -0.46278339952280945 1.0515071451948859 0.7825196180127363
Ni 8.06561213448366 1.590997750755288 2.729852367456393 -0.9264440594442496 0.06198621189480937 0.26499049020761456
Ni 1.132316346070952 4.833410065911047 9.249977533022786 -0.686960712368804 -0.4625455724803905 -0.31409753214691066
Ni 8.608787970664707 7.340963088350703 3.0899556977889184 -0.5414997796881061 -0.32114441169136304 -1.5297184492369913
Ni 2.5285025920198034 6.197981675621537 1.3223800862162247 -0.05726746626290137 0.0719150409727471 -0.7872486480572893
Ni 0.5309801607395968 3.291198729738502 6.595060949852812 0.5165109709532524 -0.03662382187062079 -0.35431575623700917
Ni 6.525544950093575 9.06720947816329 9.26742034700374 1.3509038807965121 0.4297907466468727 0.5651248753062139
Ni 1.6248029489878515 2.0465046969565006 8.261272946164965 0.818347683454939 -0.17412744737745495 -0.14854419959171192
Ni 6.128366358009175 7.36709203756121 10.631416470088636 0.5633004205029654 -0.7492004350353162 0.758489573646726
Ni 3.466434407232342 5.355989050121183 9.790750248439855 -1.657649600564042 -2.1900628445698476 -1.2486912172814884
Ni 7.639473570272515 3.906904444829284 5.938705458501819 -0.4450283895322336 -0.9436663368598069 -1.3387435912848944
Ni 6.519864340176406 5.563600491325945 6.891911802602744 -0.8285307946355278 1.0313982902601526 -0.29300008804666317
Ni 3.8490216287451915 2.6714553262262037 3.382798564652849 0.6024256686392012 1.2964299181183478 2.1440084734139466
P 1.919099383683528 2.049215053322208 4.721103850926078 -0.8656585527257608 1.8134150004945413 0.8524340836156868
Ni 8.876417097693674 2.8220843094546604 12.030135785394343 3.8058947377671553 0.58005732824633 -1.7988314462534118
P 7.106814288072108 2.561388868059884 12.624284885335397 -3.9469434003127697 -0.8444150699659522 0.7743741060874664
Ni 0.803425739543105 5.696797799024266 4.05756220238902 0.3507450081666153 0.009772248895415427 -0.47695352037560435
P 6.722417068301337 3.108667366958887 4.0222941542823625 -0.5526051455726483 -0.48833193741587516 -0.8177992671506368
P 8.873799561751449 3.1507892751355406 9.013948190964422 4.21891417849296 -0.6871394040385135 0.7978302802278776
P 0.2678788139681373 5.601211326921319 1.5781254144266448 -0.5870975229225631 -0.6836010518679517 0.43497846149539926
Ni 1.8311056222215014 9.15188026846462 0.538630420043078 -0.7878019494575981 -0.05091144213788651 -0.2300895645653715
Ni 4.129432128087789 5.861489076410421 6.737053920880395 0.6676252452649857 -0.09801559471454087 0.013149135787448321
Ni 4.976585569133806 1.5620192145438483 10.613864128007972 0.5066531043225662 -1.879672328960879 -0.6178605151370327
Ni 1.9264693253080902 6.09181367524151 6.16210101271989 -1.5310700781688793 0.2777781288905861 1.3990539581391777
Ni 5.336812350629565 1.5518460961300953 5.08949418866718 0.6148212140900766 0.9752009171329787 0.18137230186532635
Ni 4.127835616803878 5.70989476077774 12.990922773481138 1.354980621969047 -1.7147710281673822 -0.9503033825603506
Ni 2.1099103282378406 3.486492900747051 11.222970310989103 0.29378093207674566 0.37922408944291464 0.5634541724720102
Ni 8.884724525595416 5.55564578103344 7.04653856147062 1.316412788998178 -0.4788175701675366 -0.8000522275798607
Ni 6.943561727249943 8.786798978820691 4.829473551751127 3.9535295381707196 -0.07210967348205646 -0.3464366105992485
Ni 5.46596268786402 4.49470834062103 2.58650143363325 -0.5119904573750794 0.8398112526453536 -0.4646407644465224
Ni 7.552751448612207 0.4295645660419066 11.675235968002283 -0.04975495993594012 -1.235516370462427 -0.7905684564591418
Ni 5.645245335821725 3.7311118447945457 0.006894701056328412 -0.3288811182139884 0.1878046877542314 0.3314697048767711
Ni 8.189295348774957 7.841784965296389 13.150453235321628 0.5254455544387209 -0.3196719409108946 0.28670139952214496
Ni 3.0033347503902084 0.4417388927859566 4.07546726207892 0.842593186265865 -1.0676215342582451 0.31064762592509726
Ni 5.163266004843118 -0.1514123876026543 3.521720107867376 -0.7419098149111739 -0.029952323387716157 -2.029844808184633
Ni 4.990935606604301 4.303442575991651 4.977334629951315 0.5861493000766809 1.3724728652165397 -2.3620745311558804
Ni 6.147329570526782 6.813900877686331 3.702362575029109 0.04235095416238513 -0.06108941111215286 0.9191583244161138
Ni 3.8959330707735758 0.039423618465998476 8.620330190324836 1.3146135310059102 0.5444272377475462 -0.284949964048677
Ni 0.3330136897389684 7.876277034662729 5.151157580599742 1.7096540186557911 -1.2167989965585817 1.6875978101867
Ni 3.5997709455658877 7.237756059479788 4.589110424120334 0.6804727906516151 -0.09995780604257624 -0.17043508612753228
Ni 0.7162868541813583 7.550830065846107 7.873075658256795 0.42183318236269285 -1.030054888858381 -0.7228689962296388
Ni 5.079421316310788 3.333051458687055 6.786598678322996 0.3727659925223967 -0.47640973205699244 2.946319929341629
Ni 5.109996363806139 8.55527699652667 5.817728887759289 -1.8153199308267383 -0.15107287955083656 2.105988285416431
Ni 7.7935833193815895 4.999178060209605 3.761892953630028 -0.6741854149810067 0.22433543569041364 -0.7975258616135813
Ni 7.638508237868291 4.0413084180328855 1.4382933028577483 0.7963657798672091 -0.8998804500231083 0.32563278648001986
P 3.154242194889114 7.123846835781267 8.2546437115198 0.32976454926020626 -0.7932809702942983 0.7735014736745259
Ni 3.105659985238033 0.24621359892293512 11.058888863785231 0.8191966617187957 0.3010149879313397 0.4129549060364565
P 4.247583245139491 2.3059192165072093 8.786056415432826 -1.6392101629119316 1.0325020648472927 -1.1036694290207378
Ni 8.866438902169236 0.5766505937060112 8.534390544834492 -0.217725900793696 0.05947167300307177 0.15690439863094913
P 1.6558235345159202 1.106243089114535 12.285701041983204 -0.14805980375612565 1.2755582168756614 0.9455581545658812
P 2.3698724882870996 5.706794558633401 11.629141345700551 -0.6199184261073258 -0.0043582769686957195 0.1930919042950997
P 9.282877732126389 9.072890088080458 1.8983020395978936 -0.7303583626281487 -0.43841654064267077 -0.9293640613045221
Ni 0.6055028941415137 0.35499542242824805 3.885084219676865 -0.551073025198838 2.4257581853577705 0.29057116689019635
