# total energy = -340861.29088157904 ev
CRYSTAL
PRIMVEC
9.34716548742141 0.00000000000000 0.00000000000000

0.00000000000000 9.34716548742141 0.00000000000000

0.00000000000000 0.00000000000000 13.68052151680842

PRIMCOORD
 96 1
Ni 3.1417038516371045 5.330492217818877 1.9447544376584156 1.0466212778574944 -0.8224514212106674 1.1701671556326556
Ni 5.882330177055657 3.7464561150040945 12.440573523462 -0.3433515439160216 0.8983174764113627 -0.6237843368206354
Ni 3.155388101989804 6.1268052917925715 4.388970927158587 0.03884859743608148 -1.136866484597997 -3.4116119542189054
Ni 1.8662644191736588 7.297706024840315 10.490634213077735 2.4481661207393257 -1.2220671869360566 0.234899327249189
Ni 5.489431420685881 6.09149170037693 1.6684494201031639 -1.2698251710466262 -0.8389375917911488 -0.7771794367467454
Ni 4.833970784256466 1.5115862227029184 11.683356838798577 0.3648523941022748 -0.581551139183037 0.6056945691984601
Ni 1.5399922587834187 3.9024696550566214 0.6173550466665417 0.6847349083620788 -0.5402131996661987 -0.6899424207049473
Ni 7.952241291881127 6.134853201323769 5.410112308617597 -0.5774746551208184 -0.48644526191612353 1.0248851717319833
Ni 1.6938466035958677 6.209387499351379 0.6640796577751974 -2.9979852189264045 1.080699707598442 -1.0557515222935365
Ni 5.9602761905059 5.064799037302846 6.846102395287395 -1.4326335938668358 -1.5871250121809182 -1.2157548715647837
Ni 8.513800303281025 9.194610452658884 1.9228792661417344 0.345235905422928 0.22736239544219555 -0.07737632119763448
Ni 9.235952965848767 3.631644880658328 12.616683469428667 -0.48177716701649276 0.21842498374324962 -0.29738381893665555
Ni 5.530287881267608 4.502595071480588 9.646614140896979 0.9835469751048286 -0.9352642288390408 -0.7229397015665744
Ni 5.534307162450437 8.378668331048123 11.922957406705617 -0.5690463218478071 0.21739294293430944 -0.6571791102309973
Ni 7.415293367351897 6.4226991641730615 10.258859092162004 -0.6289471119684974 1.9238176560195257 -2.337025301496736
Ni 1.1723401965411304 2.744589523608131 8.989757972652223 1.1083375239203686 -0.347349352221505 0.006359623669440661
Ni 4.554873768353979 7.063765165668629 5.678141345802439 2.2795608887316807 0.1966683087924484 2.359276656695769
Ni 6.44699244741532 6.383618665044213 13.196805951593907 -0.19868791032563848 -0.11437809523296429 -0.718430243731995
Ni 0.7769532247042188 5.585987640729174 3.086777102765817 -0.3330149378767039 1.4133382359723339 -0.8314747077552003
Ni 4.4035151167411 1.0049044201969382 2.1157066176793053 0.16117525809216113 -0.20439935888811894 1.219177009872455
Ni 6.831123562507203 3.6288968139891384 1.0932790662417902 -2.530561749528422 1.603350215790529 0.21346275464196784
Ni 6.933559149676076 4.684724592055956 3.50214551038071 1.257294642679783 -0.8020972830343477 -0.7464817505525724
Ni 2.56097380371167 0.6257805816856148 10.403339164652923 0.1890807262531776 0.06496097825241716 -1.387651629839507
Ni 2.9294203750249825 6.006011871500269 7.173887861778797 0.657006589208875 0.6785480628250765 -1.219294766397242
P 1.786187251979962 3.2669465227271415 6.686655641331489 -0.31617652616312647 0.17381377279177807 0.9003563612182623
P 5.303525645231762 9.66216502020831 9.7407644005299 -0.5253632791375598 -0.11194788852491687 -1.0022499508309706
P 5.6980414612402095 8.358085872525825 1.5453379027565801 0.9505198694465309 -0.5179430754140887 0.24012535153481868
P 4.186670223344745 3.99791356240048 7.908476928099452 0.10268291828322317 0.2695094611238907 -0.6658529838559113
P 3.898011057093344 3.4268858723070816 11.121279059711126 0.5242520483512519 1.799294244822443 1.0984794001793663
P 3.080779026637862 1.8007968717212652 3.615050857672572 1.4473850411443976 0.636786148396942 0.40525676606125044
P 7.749940588067286 5.319883184929319 11.846551806136608 -0.08221976533286485 -1.7219768018872021 2.738321797358658
P 1.8143969975840912 7.101910948243331 5.490951269802923 -1.469022159798199 1.1868456447296012 1.9897304566622507
Ni 8.676880300482896 3.1710632986028338 6.707819493550466 1.2882520102932458 0.6581772124782084 -2.1158551509081818
Ni 4.543647822538685 8.16875903448353 3.7269027794079124 -0.4030319904957898 2.015722509850638 0.4634863391271051
Ni 2.566712963354127 0.36847087394372025 6.043876304392174 1.1570589003854719 -2.6780276284542914 -2.320410832868507
Ni 6.654518216766839 2.7857544406527257 5.051942945817121 -0.44743519920151337 0.6562059476844505 -0.22198519029068223
Ni 7.680126608638112 3.540659571277746 10.673378777145732 -0.1298967596938537 -0.9866256140301525 -0.30988143718303407
Ni 8.874441991367219 4.235097888015055 8.668635165758774 -0.21157762180411305 3.0055632883839785 0.6439476991423877
Ni 4.1009286738329225 2.7047051682427163 0.41950078950077285 -0.522340433150836 -0.6099916539119172 -1.337241038597439
Ni 5.177843657361277 6.616475253013092 8.660290016363358 0.17329466706351443 1.0328674186065114 -0.6553186599834908
Ni 5.21503602905075 0.8088541659806713 5.145900653839887 -1.5637200029934168 0.2752877583685646 0.6525598662914309
Ni 9.498309208266496 1.6160501447942872 10.976087667922505 -1.0853973701844275 0.09437336997626328 -1.3136082296698475
Ni 3.718975448312199 0.17119053274219706 13.715407259598358 0.4525336967703432 0.8920182736662122 -1.370712687992323
Ni 6.36516736026537 0.9126890238311 0.4629239817401844 -0.2645176643362541 -0.17258452837036728 -0.27161442328203544
Ni 0.6443702245144726 0.8119406000424617 7.15815471273941 -0.7170385055907909 1.455757324368493 -0.31921377032755344
Ni 2.2075668217545683 4.087926766564751 4.183503403659298 1.6667057972290393 0.45072955368206885 1.1675371742089764
Ni 5.463502383473868 1.9461546430565266 7.418549919826542 0.6380961254576172 0.26255051330755425 -0.9043688248117651
Ni 0.7263841244083602 5.41879489068906 6.632562659626501 -0.37505170323277986 -0.952665969255256 -0.9807460153209238
Ni 2.92755094191669 1.5124368147671914 7.768183451054555 0.6039241075615986 1.3060607563398925 1.4257268394446736
Ni 0.3935035179803072 6.157697673907099 12.0203903908767 -0.4163215085158443 -0.3561286410760318 -0.24537965795522254
Ni 2.052637552904851 8.627330975947611 3.832119148325369 -0.37439324371317456 -0.34043745559302013 -0.44857934010828554
Ni 9.068526536670115 8.024214466550378 13.618124764792494 -0.3747030616441095 -2.2620843292134722 0.7181715907539696
Ni 0.8793495537778164 3.245205015677703 2.746733763383342 -1.6056009594979188 0.010436879062607832 -0.9499809662239252
Ni 7.631287668683979 1.2464819136159995 6.535951291306513 -0.9235204580395515 -2.076740187184591 0.28237577556359755
Ni 8.316930302646773 1.9567730231116263 3.2907948808896257 0.5661417466065024 0.6767593463557701 1.70196153510754
Ni 8.5498429736089 2.2977482748985847 1.0813184332149366 1.8728339658828066 -1.006223590766738 -1.0576199429608428
P 7.362005176600026 6.02482771573523 8.000861508161591 1.3081965717359727 0.9280270876606533 0.5825147886478871
P 7.337870795171974 2.840921411678429 8.540120052012671 -1.8006535870638152 -1.5796400166577829 -0.6786583631506957
P 6.340761911036615 1.8973063559368508 2.4889249170015337 0.3564418014410764 0.7120238259850189 0.46399104667766544
P -0.037375576134086236 0.11033113790174404 4.140491486703711 0.5227818915636288 1.31043420281724 -0.9719528425093261
P 3.4104535552851933 8.55637664232238 11.662083624742763 0.6436144841726851 -1.205398468031124 0.045332662498528374
P 9.126908932642081 4.339702017589546 4.563316128271027 -0.744729029527524 -0.5229014478606284 0.4677335444392332
P 5.122639297673408 4.9618493560291945 4.523136402474503 -0.3067174376327556 0.11247367912139984 0.47665604373984355
P 6.356296900166522 8.306779280868746 5.734054220638352 -0.23581695396745198 -0.11624728723121915 0.7154572771466
Ni 3.002113281440925 5.520136859489581 9.2844086720157 0.17559863260634276 -0.7822779343155754 1.8383529013868016
Ni 7.2906676091875955 8.248022998275122 7.777677367095017 -0.06245595244237632 -0.1900304917609566 -0.4539344337726118
Ni 7.839495781120024 6.6152788158237845 1.4998779631456844 0.6322725767973046 -0.8759478504669108 0.41968811099523207
Ni 9.483634158366401 8.389277363937682 11.069867779799983 -1.961561964647835 1.114905149835557 -0.949490656851068
Ni 7.143374974585253 0.11898848262624528 4.113090270918917 -0.2595595490000304 -0.5381889701473184 -0.595181328371962
Ni 4.415834680924746 8.732028577177516 7.3730217459071925 1.243895595665058 0.7906736145784383 0.8387730411888265
Ni 2.1044862801633357 2.394612951404746 11.729665501040635 0.4207754305221399 1.3689396552523003 1.274693554882521
Ni 8.652886126537966 7.430276873714859 3.648444541285996 0.7876096309411339 0.2646840147107893 -0.29646362111523133
Ni 6.3292835917517 6.931904701375236 3.5450882583112904 1.5074285274905395 0.7149286583366397 1.5081800609445832
Ni 1.583344412564715 1.1532252430088425 2.1307275127044334 -0.5251635044219278 -1.6247397372098986 0.06650981079677577
Ni 1.47378628525325 2.053058175354217 4.915220086009062 -2.5909222528943507 -1.2051544703411181 0.2160551979594924
Ni 2.3622343699691246 8.381033163930113 8.483373410010461 -0.7355167669006365 -0.060293140463102614 -0.9142899405802188
Ni 4.056725927987353 3.1888603017937758 5.44216654340893 0.23358780752661706 -0.29239922123787065 0.5744510378031461
Ni 3.473668435842095 6.9453833140860235 13.157733864914045 1.443508846018443 -0.005127293924236331 -0.34472811254857405
Ni 1.6057121797054315 8.926673952412903 12.75767424502296 0.9281818680709627 1.147581557022656 0.5091804987301102
Ni 4.97429978053042 6.066273047746069 11.123303655767408 -0.7528115494253421 0.6061889923363754 0.9419092449593842
Ni 9.334088856868565 8.363787643506116 5.935048190709496 0.019100211164560652 -1.286370991220449 0.33950440225578954
Ni 0.14898353684879384 6.666519977322074 8.622244248459948 0.07483247172985823 0.3604540079242631 0.5563980369561773
Ni 8.656624992754551 0.790069167391997 12.864806782876414 1.23317512392376 -0.051406893717066304 1.7251359163414741
Ni 4.484601777813275 2.4280758040431762 9.426043467315797 -0.6514314091139426 -1.479211441626375 0.03915558715353902
Ni 2.4454989206124593 5.0158198898655915 12.007202475014253 0.8620826624490444 -0.8114121326773703 -0.4225410070629949
Ni 3.614848024180323 8.055854621908223 1.7789058100231636 -1.7354334416127402 -1.8281430507333354 -0.1591062913782744
Ni 7.430473164191229 0.05224878594365909 10.03510010041463 0.024449391291615958 0.22889965802232837 0.12534744976027445
Ni 4.578008003069096 3.4970737383579134 2.5629497945071344 0.738982871072366 -0.1070872179985059 1.7708714707053759
P 4.445754957822963 4.775775331595328 0.15613972678733645 0.04190615331548267 1.6268125605785273 0.26831749769831853
P 7.608508626259439 8.470485538161896 12.104840162110692 -0.4229302720816136 -1.1448867837993122 -0.16752022647358245
P 2.0001345240584643 1.8104618408911362 13.813222542840085 0.3509645803765891 -0.2929666637055664 -0.24187498723607376
P 1.0260290143206403 4.804059854523791 10.147540893579082 0.581214838889541 0.9164098151366993 0.36541083770890614
P 0.744199821930385 0.5615403170688152 9.15347264239436 -0.30142199356177124 -1.2855538946357925 1.5395945707001226
P 8.779932800577505 4.537656289426608 1.0127868848980524 1.1370076381615515 0.8556654460687909 0.6671945854854703
P 1.500855676661321 8.211438192345843 1.281320669022133 -0.7051504959039534 1.088257465341042 0.2962214231974382
P 7.202766864435696 2.0160714413066554 12.246255299020566 -1.3128435835896808 1.1689086006352063 -0.43896752805013434
