# total energy = -381177.6121070331 ev
CRYSTAL
PRIMVEC
9.09607245711847 0.00000000000000 0.00000000000000
0.00000000000000 9.09607245711847 0.00000000000000
0.00000000000000 0.00000000000000 13.31302148609701
PRIMCOORD
 96 1
Ni 5.118787535709555 6.532717436181413 6.712398524386495 -1.838461401940208 0.22827667972634882 1.0961042150789704
Ni 9.003074297942877 2.069665770142067 6.331353130246827 -0.17764445939177795 -0.9223889155382694 -0.07099664292353579
Ni 1.3970748780485127 0.6245854596372986 2.6587838237172483 -0.6770725067208145 0.03725065682134229 0.12983145367355706
Ni 2.116710657337716 7.992991826263059 7.963623336841445 -0.6449661131045732 1.2551020059038385 0.502556051435057
Ni 8.589357630441004 8.662026153992054 6.812113310038773 1.691550624186861 -0.6054935089312475 -1.3297138769824584
Ni 3.0830228279375933 1.1064098799168498 7.980238222949637 1.1273346338481616 -0.536568918045392 0.6739452739457426
Ni 1.9216908620023119 6.197599931529035 12.731629021371239 0.1571442825558971 -0.13692229908206743 -0.270139895619038
Ni 9.292092906944143 5.046964946905061 11.313006457074124 0.22070118137193606 -0.6146466361854253 0.29826982108603467
Ni 8.594624256443765 0.8907938475209063 10.903790526266837 -0.3010743804143654 1.2276336252802407 1.59645785954607
Ni 4.8983624097597955 3.9904197366723855 10.09542437852904 0.5553114887602179 -1.6075704245194637 -0.20711881470181104
Ni 5.478318899069032 6.638968659563542 9.788306404380462 -0.2327311159532766 -1.3662834485763762 -0.13294480249155813
Ni 2.777858690171386 -0.016583049854289923 13.256587927259933 0.6596111167112575 -0.32041781793798363 -0.8900894320746154
Ni 1.938473115845307 2.8854470362174287 7.076429714833306 -0.31437521128832957 1.0967300215884273 -0.04356271508229917
Ni 7.819074919228873 4.247811301439453 1.0643823863362667 -0.5458377449418277 0.5184562676050812 -1.1808372337519921
Ni 6.292844907133373 6.091075825970596 4.44471216457688 0.8677897401361506 -0.5918599773082129 -0.2481309954481146
Ni 6.905920196573964 4.9144169777993 11.492625691985909 -0.6220390719947546 0.6584232670507435 0.7074984273108396
Ni 8.869653105872928 3.8752998425602176 7.8295344930467925 -1.210306961076335 -0.1600102912497825 0.689707936096638
Ni 8.90003398816865 8.651556574494338 9.24032897731286 0.4588221008822163 -1.88779187274422 -1.5364395700109086
Ni 8.461021142922942 -0.5416220011813678 2.0412723796971295 -0.5373862717403648 1.2168805005287946 -0.3977141778273022
Ni 7.515120559110969 1.20652125433203 8.06140702629271 0.31019716865124003 -1.2230429205857647 1.8078310786488607
Ni 4.7467581686751315 4.5199657919448315 3.4589889751688996 0.43459870955847735 -0.1493157876504138 0.07942677596875998
Ni 3.0665589366336246 3.6097127164313396 5.092457134517512 -0.31587776397578504 1.0410838929790327 -0.4715626883773362
Ni 6.341718104910291 8.061985536506484 5.6504056763074395 1.99913452358497 0.8656276994878254 0.07470880166780036
Ni 0.4305207519189752 2.610782029690009 9.786734603044923 0.42073686397472054 0.12954528989170594 -0.5150698676313517
P 3.153508294078174 6.434707254523811 8.793304311370724 0.579023744775493 -0.26623156170356727 1.0101936311580795
Ni 5.88923397622747 8.444439002675907 1.38825532611021 0.4163731876893862 1.9821089355612511 -1.796800531866312
P 0.9672490660718707 1.0752922157450953 8.078101957839285 -1.0700990492644604 0.05970204384632299 0.10857125874320012
Ni 3.5826519006140436 8.465278104873361 6.034912126049959 2.2738401841978195 -0.9353079375927826 0.9224822465830241
P 3.301428625782668 6.352988138791849 4.914182299127675 1.2347206140340092 -0.5776569463349535 0.8537630868397555
P 0.5444672526730149 0.7550859028134886 0.055343234177201564 -0.4025799905600357 0.45699327520359356 1.4558126030864604
P 8.11972740501344 7.5211512552073945 11.180661330386085 -0.49983865250389403 -0.7282300034312362 -0.38378162690660994
Ni 1.647398794449181 7.697778791859582 1.6142308755260926 0.9400763055157036 -0.678529036661683 -1.6020317540894216
Ni 1.0070443834502474 8.280636928310237 11.906327805771715 -0.5152930393857513 0.0957918475903447 0.403990240644001
Ni 3.6380560784772875 4.746066867161816 1.118614990055891 0.8247193913092377 -0.9197435074956224 -0.9454342273935072
Ni 8.289587463693167 3.053997260450873 12.107820366329166 0.45035751505463084 -0.6048430198314422 0.6323000876011304
Ni 7.202379392915918 3.2733126655503106 9.772077191748119 0.7820084827042726 0.1908840980105035 -0.8611267262936783
Ni 1.9814338664688667 0.826986717841858 5.835882781937323 -2.1548204764277856 -0.18054749197118583 0.6284668298979693
Ni 2.7135585533604725 5.308222342503171 6.907567495311616 0.4583711293877268 0.43849367373750936 -0.5526282855010999
Ni 6.387653271255617 1.870843816483426 11.337462157714924 -0.6026688949982588 -0.2651324151021176 0.16733844948007953
Ni 4.474303507775814 1.9290041043273896 6.244659372440753 -0.4315167281990439 -1.0168995824233453 1.0271240883648312
Ni 5.694459774850744 7.648705480486703 12.045728755931847 0.15367920682543212 -0.41058794846617674 0.7480020438518409
Ni 4.41714378791165 8.620411622104951 9.272705537924654 -1.1593921765043387 0.3296827881796774 -0.43452337623585163
Ni 1.7384140963207324 4.4867833193056725 8.965188246191408 0.3486891540788511 1.4227572152933885 0.5589938227078115
Ni 1.9294861961722019 0.35568645349528555 10.119587185633936 1.1196982003488265 -0.37451511400301957 -1.063717828328465
Ni 4.256634491806773 0.8519090470041469 11.387253149211496 -0.7694188189647201 -0.0379548819772185 -0.30618419083710496
Ni 7.897346623466801 5.63288845980292 9.355925505626313 -1.081047320745848 0.24320039091571666 0.7608120511323155
Ni 0.35904745230015644 6.3284651272142245 7.911009834034585 0.07414598718579489 0.007029910263587893 -1.3550269018259502
Ni 7.7986906206586015 3.6379833098969385 5.057870228277618 -2.8881620900539744 0.12723078282591635 -0.2063667670271349
Ni 7.474661228436907 0.18417000000536388 12.879310126367836 0.03050228235391521 0.35481917823598896 0.30192104468537684
Ni 6.934017964661234 1.4119378605848023 5.621743042115211 -1.0127547070170364 -1.5585757397883155 1.9264098422267342
Ni 7.028162315487793 1.8320945474475667 1.5190959623995317 -0.9226969336969916 0.07119590341853545 -1.1274112527223679
Ni -0.030946658007934384 4.253250752820543 3.0705421068004797 1.017030965794887 1.6022117313107116 0.43239347437704245
Ni 1.272531452781145 3.9303037932315417 13.375592753955484 -0.4715284927052912 -0.6349953750451064 -0.0051288365861331025
Ni 2.6936290584173816 5.65166275353297 2.954025965552865 -0.9493477035153005 0.8887869112131079 0.6980820190929462
Ni 1.1218459150233882 6.7726991180999745 10.117683377650554 0.9556913863451411 0.08650142342735426 -0.597404818385842
Ni 7.340548734853642 5.5784484656293 6.812859187987351 0.021411632906556673 -0.5014710459009944 -0.03896069753391355
P 5.858061735620454 5.671110156631248 0.09552968267495421 0.04938909195608913 0.14804309158557732 0.8797237725695752
Ni 3.7573328777418937 0.10342507364282413 2.281173106570054 -0.9436876770160456 -0.38720273677301703 -2.1100544850660046
P 5.3547578496363775 1.0602382156853893 -0.05721247708491731 -0.07457381875183286 0.1573538274635419 0.7556104523267181
Ni 1.6196193889009383 1.828064987310739 11.858773538513622 -0.33621390442997584 0.3965916341870847 0.8277118982786583
P 5.53327736937764 -0.11728930741382337 7.458167320093545 -1.2940665600924939 2.056008353953878 -0.570069878016315
P 6.731848656306537 8.366622102065161 3.4347861453448116 2.490253022607047 -1.042641981494772 -0.6899272511962957
P 6.85788383747106 3.9597295879101813 3.020484600378381 -0.8198504932527106 -0.5448162456558489 0.2977340031872227
Ni 5.090753440130091 4.358947115777512 6.162025191810902 0.525107968593644 -0.41753815453176485 -1.8111704274347389
Ni 3.922963262688833 3.651863916598516 7.987173978264154 -0.04204962087188242 -0.3007604487183724 0.18881924506167483
Ni 3.371522960803872 7.39967320638723 11.1095700658141 -0.34674565719923506 0.474517400130286 -0.19889745523328325
Ni 9.274264604758631 2.3835803296952456 1.727590679601068 0.43751819719811746 -1.0876560843116172 -1.1004951450578142
Ni 2.862179282650826 2.5969378072786062 9.865029047464208 0.5570187012593116 0.12702972255870382 0.8758185239778981
Ni 7.770702005441855 1.7637830426449133 3.648913150665363 0.17854974481486668 0.4805322388657982 -1.2515042612502512
Ni 4.840857039138973 6.911114053996377 2.559734870575164 -1.2758212407290608 -1.2362871871901806 1.9134864492968464
Ni 5.298389488083509 2.2152029308401304 4.247386514851666 1.0972609543912328 1.609274551694764 -1.9528662366460499
Ni 4.977843891646025 9.038476212282681 4.077764773272582 -1.632459731561976 0.5812204953164958 1.1758886314974653
Ni 2.5165467181380134 1.890063817768114 1.1556087170908302 0.06716235677911013 2.0295488742107692 -0.3986580297978102
Ni 0.4462605958484707 4.626471705358183 5.758893623928048 2.6742496494690973 0.9712198209980434 0.15423276533605695
Ni 1.5033170053580986 7.033010522153548 5.951306484872449 -1.0643413208450767 0.8903331726543053 -1.0190906765373933
Ni 4.72218967673479 2.4975450225943727 1.8873741091169627 -0.34370815592449194 -0.3601647588186184 -0.061238277985191304
Ni 3.071043300397634 1.5623596122387942 4.03110283073102 1.1388066390435032 0.16715847225878952 -1.25954821460065
Ni 7.150468106909429 6.5285059545937125 1.9974456829674165 0.13159600177314756 -1.1730696739914315 0.16013216153962742
Ni 8.502299120125931 7.150859238028804 13.388373645486537 -0.13449543480812967 -0.8940882688213634 -0.7363012104751449
Ni 6.96210663667596 7.654845329453654 8.093984610107716 0.7216706050461635 -1.0554311628396404 0.43737704363456287
Ni 2.365188071012028 8.197644362422166 4.062828112548689 0.7977392631759681 -0.21318996059655543 -0.724646656955352
Ni -0.06068080954580302 9.11717543193016 4.3463153998361745 -0.14809734186228043 -1.2098878712610452 1.4240306826891733
Ni 0.964420187510802 2.44475141755115 4.26756888061147 -0.44992968348859286 0.5884468378616059 -0.15188457681885456
Ni 6.615073276991429 8.830066998163055 10.199930975197303 0.04670563158665505 0.22887471832166387 -0.10362008538551187
Ni 0.5461327435557534 6.754870815914462 3.3265647126497315 -1.4579065095010117 -0.7757727862072059 0.9832173596795519
Ni 5.765472813198855 3.293842501281281 -0.14265006727271523 0.3806122280396929 1.0062814405878668 -0.420435787794534
Ni 3.8629837603361437 7.050502269654946 0.4769052642479566 0.9097424304188526 0.16874175758550938 -0.4571352000980966
Ni 4.474185258832747 5.323976740148737 11.684279940480172 -0.9560120029093535 1.5735655283289285 2.6364834864639173
P 0.6015232773101817 5.6555194882914686 1.1080790092286057 -0.5707507061334235 0.7184500412263368 1.606161459987079
Ni 6.4946867568765 2.9587977652092525 7.420185759580368 0.44830706028350537 2.987200726716391 -1.7329181313900541
P 8.603574791826695 6.516935750318216 5.308008584798397 -0.893813417893422 0.7778510088924733 -0.34795304724377496
Ni 3.380428015824085 3.242804438238979 12.584865710094293 0.7359638817403842 -0.39773448954227625 -1.1758197259327428
P 5.751464861481667 4.9358837090022645 8.396669158498531 1.1742408114813971 0.14504698507173083 -0.8031781748033523
P 2.442058980078236 4.646965156798979 11.047358387259203 -0.22480491912766443 -0.6786606771435408 0.9575140413761768
P 2.2444195158502667 3.530085697384412 2.6683956435741005 0.3771049862173828 -0.9610919885354222 0.43610769000383603
Ni 5.211885838193598 1.9491610010840712 8.884325070885803 -0.16400475712115625 -2.3661612996307446 1.64521728833796
