# total energy = -340892.04642084386 ev
CRYSTAL
PRIMVEC
9.06642524994138 0.00000000000000 0.00000000000000

0.00000000000000 9.06642524994138 0.00000000000000

0.00000000000000 0.00000000000000 13.26962980160068

PRIMCOORD
 96 1
Ni 6.522259495992486 1.904030929840011 11.465397922295264 0.10760812349898242 0.621008059627079 -1.4877264210759218
Ni 4.6442129413217375 0.4244002791732921 5.8078913601240005 -1.0830342692688897 -0.4654100385123791 0.9209311000458205
Ni 2.7525486157144106 1.7500920931341863 4.718879487625455 -0.39034436772579223 -0.5477647867612114 1.3925632082085113
Ni 3.3282394287369534 4.452947631283097 4.929959470355101 0.20970791558522592 -0.4690962291147147 -0.37970925660944926
Ni 4.849114155147737 4.571264482629526 2.560110110230235 0.6944588205180621 -0.4108486583267311 0.20202674489088432
Ni 7.149211878173092 6.145993775860062 2.612272882072116 1.2286695227439226 -1.8364996502281468 -0.6392163551049895
Ni 4.97433962264175 4.509567457846963 11.41565044617742 0.4327380022006548 -0.2598842793293008 -0.3805752041541704
Ni 5.575652153817933 7.846991175504524 12.755896592817733 -0.7424088660347795 0.29131832946886604 -0.8928520824214172
Ni 2.0297006521781604 6.23713855031107 0.5378339538043808 -1.150565065131012 -0.13845390523524542 -1.1048714197486391
Ni 2.684169635419026 1.3713240395939754 0.30352306929657746 0.152293382221499 0.6970546062696963 0.22595034558601734
Ni 0.5908562227732838 -0.05564427919184456 5.103685780475759 0.039296997827409745 1.1304284422821371 -1.1879103385486895
Ni 8.505340588812537 2.299318010441769 1.6448236412098096 1.3972523861540647 0.4583114797943849 -0.40909568019136644
Ni 6.687359102354056 0.7346016774125346 4.631405708815073 1.183122687352059 0.14239592060212897 0.36189382569458317
Ni 0.8874978751984484 7.4607977195694675 2.7285543209183705 0.013767743208053709 -1.5666801140630051 -0.24772244715578626
Ni 7.854561640705617 3.7649963390750005 4.0537130290663015 -0.9344198785608745 -0.2666966742654439 -1.5950609791985433
Ni 7.403570442504437 3.745032070365051 12.71619380939006 0.5213258758433924 -0.09942790168103521 -0.29885320439333046
Ni 7.83053561342071 9.011274324880334 6.913039656532612 1.2984466914380606 -0.010173340988576026 0.4423762966213672
Ni 6.990612898816534 0.628820065811054 0.16185201278668016 0.16917293158565705 0.5316609392208134 1.6114368494534053
Ni 1.9745495865275606 6.675427686540117 9.018226459869794 -0.9721950404271192 -0.41052675621093815 0.768830807671734
Ni 8.950048754218079 4.8378355219619165 1.2053486165396818 0.45900542053761595 -0.043670958525389304 0.64897497715365
Ni 6.4304710053387515 1.9472233804005004 6.783261936850013 -0.2713418863469392 0.2631665496249984 1.1511592470715852
Ni 3.3245856593045695 4.013189734140784 0.12148284709280209 -0.8697414645458827 0.38356436868948135 0.4552850342632353
Ni 6.078131581811938 5.656143878435066 4.7040304961208435 0.07138719349373514 -0.02859760913203462 0.6271031167812232
Ni 5.3524186278522805 3.028920460893965 9.222167539246936 -0.04911861190352186 -0.4869060036026259 0.05076720325053837
P 0.21680361707868814 5.760280840470704 12.439216326994417 0.8742159553774687 -1.2895406471976822 0.1736214542753139
P 4.036689908753041 6.043289309036128 12.623836853864338 -0.7172138548263906 0.5897035930868425 0.8336989691000287
P 2.232326193231136 8.347058934344648 1.3233445164272857 1.0876211173086239 0.4748040781327694 0.6340996027037143
P 6.299515556997923 8.009588448458306 5.859828377973656 -0.2789245837902035 -1.454175838813986 -0.5218005014869658
P 4.940413058830383 1.0961942946929237 12.730233169107297 -0.9270505826799971 -0.5277886007496008 0.5382979849213568
P 4.03769628197139 6.2311184438517575 8.004983611002455 0.15786393433074103 -0.48668231762759406 1.9299803331868117
P 4.5426599105224 1.2651561982708581 3.6951676373596696 1.46539330479636 -1.2077664540426682 -0.6813407950788652
P 0.22131053714032103 5.615580691237831 3.911900536320312 -0.5082322758842279 0.16091377690065833 -2.3946979736178564
Ni 1.5484275931726066 0.7728900984792859 2.8101095372338136 -0.9409939322339664 1.0785052710502845 -0.404618104035987
Ni 2.000751555906195 6.5589331866971845 4.65933845880076 -0.12032479973470245 0.04264817368782978 0.9135168098596204
Ni 5.998084112038941 5.608590477261732 8.950882865354009 -0.7458598006978574 0.0821266913984263 0.728939370793435
Ni 8.819637291400682 2.5866511639184755 10.226479052462064 -0.8621631379779926 -0.24310937386380713 1.0032207993846722
Ni 2.274249344236951 5.259116044158327 7.039365788069036 -0.4532800880180645 -0.09549745627837747 -0.5925570033752375
Ni 0.5229831490146911 -0.1841717388130892 9.277780085949914 0.14323152912954687 0.7763142605329727 -0.7481982190230468
Ni 1.388495849283641 0.7828223674946125 11.485594291495211 -0.27363968124218035 2.6570656814906433 0.6528784259731143
Ni 3.992808409862871 6.883855739843032 1.6968005513311843 0.8409638781925581 0.36071240379197234 -0.8737685834274048
Ni 5.804144206510093 7.915306690822175 8.157292304423061 -0.9932076381230442 0.397759943463573 -0.5915486167153813
Ni 5.312172765543714 3.000896140011834 4.696135452890769 0.07740486044272477 0.4290363849793514 0.260516513596661
Ni 0.6515577540479666 7.4539344355488355 6.771771149310054 1.0347525514443663 -0.3527450693157796 0.921118276355962
Ni 5.069364827159904 4.592090061751575 6.733912476806814 -0.40876735031767014 0.36528459654368706 0.9514315826275226
Ni 7.987792761819469 7.155304516035529 9.178364011615125 0.2997590040370515 -0.03277488043817581 0.026579293150425193
Ni 4.687414458307617 0.29581479442954806 10.643477501946526 0.28604653954696546 -0.8862011527638027 -0.6248462024262464
Ni 8.08702478771883 7.4028995270255376 4.572011556081706 -0.39670887649123937 -0.6028627561766198 0.46249954973380347
Ni 7.5166559664005295 6.3000142103944015 6.809324283277633 -1.328571792958215 -0.1661922516907783 0.20465492654235073
Ni 2.338693495912845 5.1279248687573435 2.629430185481157 -0.3931188451471359 -0.2682650471938283 -0.20163285188657534
Ni 2.4204635865100435 5.5000472324862955 11.181560782449147 -1.3002333510248383 -1.778835462747459 1.880695628019071
Ni 1.1982731781649116 3.3624742510115984 3.869490518271025 -0.5579365850878908 -0.1165895010619863 -0.21246670927728567
Ni 3.31554643319021 2.532134748045213 2.418336603113425 0.5047013799128339 0.965770367847698 0.03265018193485345
Ni 1.0181233056550618 3.5542019487451557 8.482743430169178 0.2643178896206222 -0.1268687715008073 -1.7613187940199342
Ni 3.4761128268565127 2.8646005671159824 7.179971539595545 1.1413743997706796 -0.5847382786617672 0.16000103527840187
Ni 3.976280316375933 6.797733765058379 6.006895770875999 1.1609767473826393 1.2832525001961255 -0.9443533356245026
Ni 0.8956685377603949 7.566294645413685 11.506680077025967 0.32321132152272075 -1.3283267668269445 -0.39601647840990506
P 0.21719891322571527 5.624910042964688 7.891197252423675 0.18352894319701296 0.44892412504221396 1.5543617017069682
P 8.697621338494917 1.7030554782081118 8.177170442091802 -0.2730398428746523 -0.575094584924416 -0.11082688754659624
P 1.941992052950164 3.150791350993482 10.402819213022811 -0.19830173063081333 1.1356498385820764 1.5595275621786238
P 4.1763491254687795 6.217654802146819 3.762908341307561 -0.8009310306403884 -0.19680663414252558 0.13224443399042385
P 6.919921980046564 4.134607302970775 10.424939477690629 0.3858642204672516 -0.42596314537066643 -0.04449833952269111
P 6.162449337943876 7.508024729428744 10.415876678870253 0.4051423519705732 1.2575273275158796 -0.39505051495221
P 2.5811841094079853 8.529593276732207 5.698045270019944 -0.6333997484232124 0.39090178289115907 1.2367728685773474
P 6.941454740349076 3.949008508801216 1.6245347944708795 -0.26618708161887705 0.7753881491742775 0.9067275548519287
Ni 5.221354382406765 2.892679286550457 0.8767432814002005 -0.027240323773191796 -0.7611072137752312 -1.7051268202093988
Ni 1.5765516447340335 1.0453769803789978 7.112893591343703 0.09468498767941112 0.37026688024962684 0.2258253899723788
Ni 7.069354803333295 0.6313885841241914 9.20104186144446 -0.4097633956823524 0.5912873926341946 0.4294791289437248
Ni 2.8511097261348723 1.5568775016365817 9.29106330578958 0.18690711564062648 -0.4880755984306949 -0.32421019510088034
Ni 6.449301970874885 1.960913682740202 2.644849455142833 -0.2950001491958274 -0.02759899266419118 0.3223741703334061
Ni 4.0799004921643105 6.720932075575192 10.418702683664483 1.350139748936978 1.9305729724654883 -0.8971766779387002
Ni 8.34177320834197 7.22603170050706 0.44925951095158884 0.6922823816920336 -0.2947227271647247 -0.10386511151678242
Ni 7.630040682334509 3.9814935109754885 8.205408730613149 0.41092270609777615 -0.6092498906498862 -0.3535271988974428
Ni 2.9898985660131197 8.211824133219489 12.611668804347707 1.3370186381739877 -0.34213746900326236 -0.9408728332750701
Ni 0.20166631324665768 5.253141269825966 10.2827824607798 -0.6453355806288499 -0.7422995941504248 -0.6329917143515164
Ni 8.837978669965727 2.2995084053749704 5.966211093578529 -0.7627545195706671 -0.13994128841404932 0.27119173392232004
Ni 3.775431794699501 2.4282697787712904 11.458232726309125 -0.4451988536718268 0.3303775002538568 -0.23391125230430682
Ni 0.8976885373374051 3.554337945126014 12.429516158469088 0.6441929823839745 -0.19579104839381764 -0.04628088534441061
Ni 3.2054165639714305 8.429463674719184 8.116780795850552 1.0602877196009934 0.5828778284142606 -0.9415084099765398
Ni 5.7694197972643595 7.82558534515748 3.450939896759704 -0.5448257587375456 0.7379269190040258 0.3551202544161755
Ni 3.3211676169323394 8.331945203218632 3.6135326365007905 0.23616148179106422 0.47575255808896766 0.1866759734664269
Ni 3.257213052227534 4.373226552824159 9.146955194134708 1.1047876017855813 0.20578312660952305 0.2625517988591349
Ni 7.290104128741943 6.12512286461106 11.633643578267346 -0.2958056758162583 -0.6681034704529849 -0.45197473894307966
Ni 0.39974594860882134 9.307138984649532 0.6040796042053732 0.28185049918774685 0.31874557244188334 -0.7642727559874063
Ni 4.640187448448342 0.31075989004329924 1.6375124757748856 0.2678217890088226 0.17221017575008404 -0.48100403629589417
Ni 5.9265953478346045 5.59422925944313 0.3078459409227826 0.07623989360034612 -0.4641440273157619 1.1218851806978163
Ni 7.974718976406324 8.643902768056021 11.446634954949559 -1.1170731040211537 0.5975305453304289 -0.4785602027410919
Ni 0.07953431009589357 4.7571352695608 5.796479450484939 0.09605847098817005 -0.051421291894769496 1.717781789969248
Ni 8.144768851031122 8.791495106988474 2.60032967990517 -0.9743501390969092 1.6200186775851455 0.004499944752882573
P 8.685798719785666 1.517592680419411 3.8697026726251638 -0.5452739020185577 0.2613408092701692 -0.9397927128370137
P 1.4859236565302865 3.25014124042292 1.5555991356565166 0.4953950149102436 -0.005194142606429765 -0.9736232882332135
P 4.766800079027107 1.2077657255487972 8.082903190736294 0.1661382585243913 -0.7169893975204104 0.5070963625075717
P 8.65465554856919 1.6640607826034384 12.30324261219993 -1.3517081218653624 -0.0955139113386097 0.7654672905161397
P 6.625399151235167 7.879965764649885 1.4019096256489316 -2.1666118126357587 -0.03808472268686344 0.36260756393215615
P 1.7285955985332373 3.254447792483422 6.168958124731739 0.23981450516261926 -0.2050465055538146 -1.0848767217942672
P 6.919785983665706 3.8981458623603373 6.036155845538858 0.7168410448680042 0.7654775749287849 -0.5441436450688564
P 2.488235116304262 8.59469927746161 10.287028267790186 1.3500281630597781 -1.5184824713118557 -1.0690371836588493
