# total energy = -340892.83071170346 ev
CRYSTAL
PRIMVEC
9.10078355171452 0.00000000000000 0.00000000000000
0.00000000000000 9.10078355171452 0.00000000000000
0.00000000000000 0.00000000000000 13.31991664923411
PRIMCOORD
 96 1
Ni 6.480367447225746 1.6814971217865986 11.384079706118888 0.04371646705134407 0.9631115900686122 -0.03386322840634813
Ni 4.363943892529157 0.26194238465345304 5.761249944779795 0.6133140334169308 -0.6304128978807466 0.6590606435244263
Ni 2.6964073722927564 1.5715778613411735 4.675290789291737 -0.3241865409517965 0.3518346416863683 0.8692696671157868
Ni 3.4912697838926428 4.316956548458969 4.930273804971634 0.48059394534166916 1.1197719910095554 -0.6838954431799189
Ni 5.2635654204551985 4.609992669263924 2.7045425624659774 -0.2790659944640742 0.4421317847107289 0.36162514541422885
Ni 7.429051297809619 6.208672663210369 2.495459347254412 0.15065481817681148 -0.15281248794976263 1.1513618500006944
Ni 5.180284152667809 4.376539376587484 11.941824849694154 0.6856067694440708 0.8582902852861476 -0.10923151803501834
Ni 5.542158598196162 8.010017999999933 12.621366685972449 0.8657169167675219 0.5672174961691845 -0.5651125340110397
Ni 1.8884489335541899 6.900559712006813 0.426966887854057 -0.22496561307524482 -1.2404600876209475 -0.28051275421292976
Ni 2.796579693846225 1.6333266758901226 0.5367996908583303 -0.20619270334311587 -0.2038722827400553 -0.8478235814268689
Ni 0.4496296583757657 0.19995148926927864 4.661704229934313 0.8494048098710597 -0.8799538863025104 0.947073305658827
Ni 8.564892756528957 2.2613626292001365 1.2773595487882585 0.8445531382057132 1.0760838060929854 0.5595442958946428
Ni 6.98523339963591 0.4973905690246803 4.793731113121419 -0.8319477907368769 1.7689387724590373 -0.10154623357561866
Ni 0.7802265319303777 7.579114113299321 2.6549123509315278 0.47382191672515817 -0.4427933295541278 0.046155672620455994
Ni 7.648534888152583 4.216820630038617 4.085764800427395 0.8685250756402784 0.05022547181445544 -0.6819331772472256
Ni 7.658691362292101 3.876178311900493 12.567886843110923 0.33505048024949396 0.1498945429720193 0.25377122445302747
Ni 8.119373011882052 8.812115534306734 6.789440968325199 -0.2909326639946731 0.26302333917891474 0.9662326521960972
Ni 6.882922394011844 0.8481038139394984 0.48422992632471934 0.04061083154282683 -0.5246176592207868 -0.9975180925729402
Ni 1.9461843026770396 6.542589502505211 9.376061951608404 -0.3693482250900994 -1.1101185270801912 -0.26910939747199464
Ni -0.012517217322125997 4.96527814769818 1.4368726176350168 1.1610014299729874 -0.5502057921025363 -0.027608505745887933
Ni 6.271613680368886 1.4667732410986236 6.929646725445266 1.3466556470431192 1.3422750014769207 -0.26490770068582115
Ni 3.2825160170357823 4.1645093277501335 0.2979095902509331 0.2966978486132245 0.9758766030437646 0.6306604951151784
Ni 5.888315991001444 5.577797265517265 5.081441455551423 -0.14448854146509954 0.3738327432240142 -0.6436707913319173
Ni 5.277844549420166 2.7353860270773027 9.24029191625859 -0.16713661788191858 -0.06259684889561479 0.2626489865586315
P 0.17691467655479737 5.609650006994247 12.654919453765974 0.4232807134424968 -0.21254358526180817 -0.40864419447624456
P 4.057911853201594 6.206907111254218 12.675032184812867 -0.19915045178435378 -0.10723968441597015 0.5346943267304985
P 2.4814377704562447 8.694861042538324 1.4484606449843427 0.3806579936759638 -0.614352244873458 -0.6379428877092045
P 6.248170062641827 7.717901058306171 5.89105259653348 -0.4880768839822756 0.21939351830410606 0.1693032865159342
P 4.700618269157578 1.321670352496052 12.67796263702875 0.41740754249117146 -0.8108706583516035 0.6151575143835728
P 4.195078858784757 6.011668007566876 8.391840452397828 -0.16386874576392424 1.1099128388272883 -0.12887217508408128
P 4.782616326502608 1.144614613800428 3.712101200239247 0.06011136346959971 -0.10929990937910854 0.21642517970440148
P 0.19938906086262795 5.897080045299253 3.9585058176002286 -0.4146544052260665 -1.5373834219814169 -1.3005125728281537
Ni 1.511294272900165 1.0292439841707994 2.6158053751027452 -1.051097825571609 0.9536828405555446 -0.30949114372315084
Ni 2.050588488455307 6.32296940041306 4.911186732200298 0.4799737952591669 0.9781525435621348 0.21327737810403913
Ni 6.1547414214981995 5.681236768267944 9.514709654631085 -0.28474376157514186 -0.06402355403981233 -0.956706972093849
Ni 8.605427645254238 2.401123358017854 9.986446935748532 0.2942370457775577 -0.2637067383991845 0.8652520613159614
Ni 2.4267238613820683 5.359460373867472 7.1947925858129755 -0.22337307177714433 -0.8045765978127757 -0.2332967586487595
Ni 0.5307749723275412 0.12673113739697625 9.001292606251841 0.8386064337039751 0.022152881947955397 0.44350089714411367
Ni 1.6333721798065184 1.062261625907511 11.468621432390439 -0.6140925634541682 0.4880576007085659 -0.6174686790152527
Ni 4.16760359406504 6.831029727754202 1.6055956791602621 -0.2537470560833114 0.7819280071753243 0.059121488752504635
Ni 5.652423688406194 7.888322325991304 7.965709926527123 -0.3552020154967044 0.04732141079378302 1.1321330836780696
Ni 5.104401821686359 2.788197872446139 5.167101668087978 1.0288958355532731 -0.5850653229838826 -0.4875770615277216
Ni 0.7495368705564696 7.244296296459845 6.971977198711519 -0.1252343212211779 0.044411693346155766 0.14691566284935342
Ni 5.091478709429984 4.438470206802016 7.170657308556702 -0.15656424168271102 -0.28089816257680655 0.48007895337846357
Ni 8.35051470560559 7.288152971082009 9.214278237333502 -0.43031833701556854 -0.7391080837963208 -0.17985895054459347
Ni 4.60181106509598 0.42742374717466974 10.640122525790858 -0.18962708567495085 -0.6796240694980746 -1.1036712287929509
Ni 8.075443530993654 7.432045455508455 4.810154386626952 0.9611868622420736 -1.0185114069951557 -0.5138665913518699
Ni 7.461859621530911 6.24413841564917 7.024777213062093 -0.7130350408583527 -0.5720966786383567 0.46157498103700506
Ni 2.2996041205390734 5.1233041485571285 2.787045713283 0.1342465520221172 0.6073318476915669 -1.0188158256094517
Ni 2.4144560055217905 5.210598861770618 11.546076378722525 -0.7718567389822514 -0.11194865985586526 -0.09213985266005423
Ni 1.0965715788698602 3.248515490704924 3.7386736672576735 -0.8079036053034795 0.15579573894780266 -0.3014453906005389
Ni 3.5794563738674876 2.755025517393682 2.678954800198354 0.13606535039841083 0.42597188712141476 -0.022107116311684508
Ni 0.9188787853446965 3.3651238268605153 8.052142795564079 0.35533545575077513 -0.6094697199701762 0.13088663441094878
Ni 3.5684808292328474 2.331647978464917 7.087434285782299 -0.3110533460039482 0.7653590470730497 0.007557757742599888
Ni 4.153633891731564 6.874367657729455 6.221079761054819 -0.2354595706280332 0.10381677477735024 -0.252410596660075
Ni 0.7984635915434418 7.319259448330102 11.47758570392039 0.40142736501283127 0.08185441157364612 -0.2744302954642758
P 0.18218676030840183 5.445644791520906 8.046454806014617 0.24197783136252518 1.2738929133580965 1.2027718290415546
P 8.416986826676412 1.6292222226312316 7.814568668218843 0.8957360888374316 0.40783635386296857 -0.10861625304852261
P 1.6104291051598123 3.2374398374542133 10.36301459588105 0.674673667471335 -0.19374445027743406 0.2812542603646446
P 4.071917958668187 6.299334666237139 3.788783490070934 0.021653316603717547 -0.707061339773421 0.22427424343517505
P 6.786490494386102 3.795126736016493 10.552663998478346 0.00019746072278675669 0.6727939339501188 -0.9296625663815474
P 6.465078131316796 8.041907144610033 10.369168545534404 -0.58968251004092 -1.825202994268405 0.5148243272794488
P 2.1998413342331653 8.363310406896058 5.833244421144398 1.3276346258559264 0.8124243759919686 -0.7353905257354174
P 7.025440660163141 4.187188479681745 1.427561606262131 -0.5068436230668174 -0.6670914842487027 0.8429582829147676
Ni 5.252234945272672 2.8789508833057 0.8207159167392614 0.5435708032845219 0.1442939089557902 -0.47947885790061945
Ni 1.3954959064564172 1.0125258452870234 6.911052005049331 0.03880771689581704 0.5656681494041936 -0.19988141641310736
Ni 7.057084083624703 0.5536215786714885 9.099874110888116 -0.9723248811367642 0.3499024576606619 0.1583393313052628
Ni 2.743658639078039 1.5468965370881518 9.350554276233638 0.09957085501680271 -0.10635728181101682 -0.8598103214751
Ni 6.482642643045531 2.3537355794833843 2.959246184099204 0.15840849398030138 -0.3400155375642531 -0.7384172283768832
Ni 4.275402372006426 6.87252019872379 10.506097110595652 0.003469960826471443 0.683879245230003 0.054202197074016335
Ni 8.207268376791962 7.437360312943472 0.216200937814179 0.13618053582003645 -0.2629965997060374 0.24417509612416016
Ni 7.351276003906109 3.858941428369806 8.35218651949397 0.6559182412407026 -0.037110531699052214 -0.9019167637268468
Ni 3.2350099283186835 8.47812588874566 12.419316556079002 -0.7910412823305022 0.05413791949498418 0.5765333742534715
Ni 9.145195101539896 4.949197063643945 10.078368487181134 0.09677606588048494 -0.6726728349912222 1.12719065207113
Ni 8.821844271632132 2.5673309630447463 5.744040363598946 -0.5541994866429617 -1.9720446093467134 0.06209882621327369
Ni 3.6268896563183532 2.7817636186677883 11.496739212409663 -1.1711020087420994 -0.42721887215463844 -0.6233966144639135
Ni 1.0937048321369318 3.2964857193692585 12.745121867237145 -0.890350399045486 0.2596464522868819 -0.9481148595494641
Ni 2.8704143485898688 8.296101122379627 8.02267900969787 0.9803055853493955 0.7293628314840988 -0.251158983641161
Ni 6.05088328271668 7.869984247683841 3.6269597323496026 -2.681492704184756 -0.5467551145497744 -0.5051304970304527
Ni 3.337348236292587 8.539046532016208 3.5381297169969232 -0.24169346735288696 -1.0361347765038735 0.24836059496041743
Ni 3.311647624312302 4.248545960549691 9.295716596506866 0.04461198228241994 -0.6542256840296281 0.16432923034011054
Ni 7.491937710268461 6.2444296407141024 11.407229368546032 -0.21158070712790655 0.1293182614825644 0.7756516872483092
Ni 0.5789071949342447 0.11798255443074118 0.06760152827576277 0.2845370448809745 0.3455295254039468 0.8601592201740863
Ni 4.802683553633107 0.4799161550504081 1.546042883616569 -0.7786215685099106 -0.9639603112221528 0.4663412920773969
Ni 6.139515811072203 5.969212853569698 0.39886093885309604 -0.2047001779579894 -1.2277794068294854 -0.47431171187738314
Ni 8.314757728101858 8.981381002515416 11.148063632871043 -0.2837140347590469 0.23638002555977355 0.5534901192807629
Ni 0.0954535654232358 4.782634528069166 6.07763776540069 0.12744649838114824 1.0639291730083227 -1.6581311681861508
Ni 7.973669471583057 -0.16461314779638694 2.5179036989774213 0.6535672245100228 0.5937188848938227 -0.195879751452882
P 8.500213489764127 1.66976621213979 3.6138928277174163 -0.15466085401241106 1.4655012911291343 -0.6145327363153804
P 1.6379589745792038 3.333880837863236 1.522053218892762 0.5261821754944292 -0.36069054941510137 0.9455005618550685
P 4.76011919023658 0.8683657978321706 8.219240457195669 -1.4466926430630633 -0.5906327897693312 0.8152075951640604
P 8.445317565024368 1.7456667446877987 12.262714827803238 1.2408490955292502 -0.6101523478594976 1.4527419345809367
P 6.428074346503822 7.868255098860805 1.4706256026606825 -0.7678208783499809 0.629444106209574 -1.2008892673068607
P 1.8759262557620966 3.3999525244697755 5.819018986800778 -0.36110372569312005 -1.1400531098560946 1.5980102916348542
P 6.904227327668306 3.7450724279812353 6.098923587412264 -0.33330958629898727 0.45812970280088194 -0.035742961927564244
P 2.4417310530093665 8.400796533222827 10.269642379593755 -0.15117392390507514 1.2970225573970242 0.45475461568106196
