# total energy = -340855.0702473886 ev
CRYSTAL
PRIMVEC
9.37958081674691 0.00000000000000 0.00000000000000

0.00000000000000 9.37958081674691 0.00000000000000

0.00000000000000 0.00000000000000 13.72796462786217

PRIMCOORD
 96 1
Ni 2.284021725608715 5.485469630854874 12.98798622659122 -0.4164261524145086 -0.29803147982298356 -0.7990721230547786
Ni 7.811708849736822 4.394661899749822 3.231192431944243 -0.1693634503299083 -0.8251029999009016 0.37467992171565795
Ni 2.975324970824678 6.548429386503754 10.699013020267344 0.5366635346417273 0.4900329792673819 0.39364874950867684
Ni 0.6432957367022136 5.982184092367998 11.258029471464713 -1.0542075748451845 -0.23416990528233217 -0.6902710076889595
Ni 1.1038734871880582 7.135525488803562 0.9114710837744859 1.1655648809739538 -0.7395076332275844 -0.6383146692263265
Ni 4.98960871119642 3.601027427781812 4.720690501323161 -0.06868213585774624 0.9077022600603724 -2.29727116152725
Ni 6.341459556117808 2.052308561018194 1.1210747004548391 1.8776285590579727 0.30551416135327386 0.058634778924073205
Ni 9.238727655353985 3.780515086363589 5.151652225368163 -1.2579255913955627 -1.538983162368369 -0.4526807638711688
Ni 0.8999576483172779 5.2213218757869395 8.810895897428797 -0.4847717308684425 -2.835133344462769 2.7940936529126397
Ni 2.8746539298778653 6.4199760271665145 7.97763644832635 0.8209434692065731 -0.6273417151545906 0.7688179521559275
Ni 5.638506871522739 7.192834727617038 12.317759837437084 -0.08710383289804353 1.7247021712381652 -0.16326607918291883
Ni 9.110912107512542 2.454448709117854 2.5857309500305674 0.09056633752534726 0.5126957109722202 0.8497367392891818
Ni 4.3228143106645165 5.387828194513094 6.180796716242846 0.14107385935659575 2.3253985158910853 -0.6530185510954045
Ni 8.215996921844384 8.09710135536327 10.123865565974818 0.380058669529068 0.7385637812570764 0.8536517580728717
Ni 2.9958943915641134 1.3180937335482792 2.989346506193297 -3.452273179383693 0.6061573677674915 3.1471613956751607
Ni 2.9197884727862844 1.237813901305312 5.791361210364604 -0.08306488694197953 2.8446399984016235 -1.6614082962755257
Ni 1.9401193948237636 6.174821923260166 3.21340124304385 -1.8838305741036265 0.5641946501824606 0.8377757102725637
Ni 8.175167606532591 6.060015854016806 1.6690044871223353 0.2649542376530405 0.898634236320833 -0.8310391628796785
Ni 0.6390983742850237 1.0127602390973718 1.1289591760925817 0.5880555159604582 -0.5570660095574793 -1.6076133619422572
Ni 0.09191051246043201 9.248566835634728 4.811157496295312 -2.2506907426645495 0.11659361482704436 -1.9470848540775825
Ni 2.77393599102695 8.21909218351516 6.412606490515819 -0.31167786696182453 -0.8988041862397941 -0.7867938199080579
Ni 7.195020169948223 5.566893771957948 12.895995049735731 -0.43689573312277014 -0.9457237336094679 0.8375075442128416
Ni 0.042424782009366266 8.54177790248406 2.3212755447117197 1.598983454181401 0.4302288626255558 1.3589522050222853
Ni 6.668544298491539 3.101077010885604 12.340520328256195 -2.107051436573623 -1.3099058411175957 1.0780231892075436
P 3.9242384032766613 6.17910839169515 3.9289019308606314 1.3167778856470804 0.25285591172760963 0.17889941484480157
P 0.5548669246423645 3.8440429872610786 12.556228176134555 0.7663260389720092 2.323583574169534 -1.994940282997964
P 5.151941116457436 6.956413013454608 7.804169542673274 -0.23359783482894608 -2.1707523171666936 -0.5641311439343768
P 5.790540497042807 8.665926034224674 10.398219242933575 0.6834305877283584 1.8788511186111643 1.3229727016038828
P 4.166494216709465 2.901610845156086 2.040126361448482 -2.249067862349146 0.15625982306841477 4.18379393775106
P 1.060014567271232 1.7419569908283 4.286804223978315 -0.3443463037291231 0.396336323643169 0.27269814326451747
P 7.661288512117887 6.209685825170098 10.77838772296113 -0.07333428991777693 -1.4422726596184967 0.37755852881503366
P 6.98567730561468 2.38543375344035 4.265649517395678 0.07277558920082951 1.537403733696391 0.21685403971170397
Ni 1.9819335661217128 8.576941950980249 4.0939806773859 1.1062395037407593 -1.2331093036828313 -0.9779882500701286
Ni 5.251542885190707 2.109739734382336 6.23992277986126 -0.34311963041087357 -1.339984405670531 0.9584470947134073
Ni 8.476777407397746 0.5394281346117623 8.7238336902945 1.4788363176751433 -0.09119137270385584 -1.75104106624301
Ni 8.747556526105798 2.5738132546399943 13.525078845578669 -1.57052905549545 -1.069198906047694 1.2108780030884565
Ni 0.5734150457149745 6.787036542997369 7.619775425364276 -1.8130491325146905 5.277022116833814 -0.7734842472833453
Ni 5.049731824256056 7.894840074549232 2.7833718493324096 1.1215380817710427 -0.9095187444438207 1.5292088565904243
Ni 6.855432446340718 2.1230493595666764 7.895748955930742 0.9336549753703921 -0.23389839678850038 0.06751228391936115
Ni 0.8861171388584951 0.9875760645942326 6.50715172722874 -1.0396268488175322 1.7694799896744882 0.8401398396293661
Ni 1.006391503720228 0.1274966420935455 10.439046682329206 -0.9745861663671151 -2.0829892534180967 -0.001196848521578584
Ni 5.442661223989948 6.572619325439917 10.223613656168888 0.4167362274557597 -1.8082298567491761 -2.356178991607052
Ni 1.1811706127300952 5.27628621939528 6.121079739032741 2.124737798109792 -1.199211879604438 -0.23035361686003553
Ni 5.143039894258747 1.2600059895267002 2.988303496806054 1.012441546651992 0.39238968029059523 0.46649118739169976
Ni 1.9101610136829716 3.343632970904664 7.978459975522393 0.4458465145581547 -0.9623436015543361 -0.32242790638947694
Ni 7.260780411081001 0.757560604132229 2.852561265213175 2.6978372069810503 -1.281288177380903 -0.9566288105577462
Ni 8.103366915351387 1.3057689643500952 5.947723512433348 0.24387222017176066 2.4740609862282166 1.6068078353218262
Ni 6.394904407633222 4.1771494205215935 6.61432563155843 0.6794050115087332 -0.5604508668693122 -0.273017217166833
Ni 5.493536070360535 7.955507203296459 5.850501343354248 -0.672296682598726 -1.6267667949422566 0.6917542771027053
Ni 3.0473132536222916 1.0992399742627135 0.8782120281429473 -0.48338693470577393 2.1739674816698815 -4.041051689553105
Ni 8.70207493870702 7.248586956014303 12.77161993213926 0.007344356180213157 1.6070340924000197 0.2954395507260912
Ni 2.0456209198931523 3.6047042234634623 3.740815072582588 0.23416707706885478 0.4942917545437358 0.058023627702635555
Ni 6.4977515113303985 0.3357402195549211 4.98108173427247 -1.7762990694788505 -0.9823732665117015 -0.8575415800455811
Ni 4.35891631724276 1.6232583955444173 11.007699714861594 0.8448953520364805 2.385936168264826 0.16014527416575
Ni 4.094618488881697 9.158729210535634 4.390409197805791 1.1897502199709058 -0.3742425770679232 1.135607158269599
Ni 6.365893364155304 8.7899428518338 8.148795977097572 -0.4373114805039501 2.398645645411695 -0.3265856373115924
P 4.207558021541771 4.863659699938262 11.131292575417632 0.192546573314591 -0.9722968561123063 0.032764596025530675
P 2.2609479567901962 8.819188384832232 1.9274335117639887 -0.30885788101452616 -0.9756143505213133 -0.17959952623561973
P 3.1729058408092685 3.6534405254069675 6.119679367616235 -0.9666388864955805 -1.0928497126974146 -0.22244001843991365
P 0.5111627678090772 7.181588610213215 5.499751918570304 0.8627876589358688 0.9233903602195904 -1.5872867345697632
P 7.537562461514197 8.221943576084604 1.8030583941675176 -3.1083477652420726 -0.7910237988290054 -1.4308219945793936
P 9.13975431853569 0.5561800659572396 12.631196351758852 0.2371451858605722 -0.8000033766197964 -0.3951253340542034
P 9.252234251735558 2.436036591967141 7.9225454803769315 -0.9956450439199434 -0.10556435359607624 -0.42206869541226666
P 8.159559984047219 5.353273818770241 6.659435787556716 0.4987742157951216 0.15918342447311296 0.04402937030607256
Ni 0.1320100963843874 2.111606270965623 10.851996797324531 0.47275645157512125 2.2253257815371996 1.4800359944101995
Ni 5.558508426704388 5.141811169171257 2.8643532742207527 -0.8336948553349707 0.38781594487698373 -1.0040633498906257
Ni 3.8028572478781055 9.162950021904875 11.905618242308487 2.0640643914891355 -3.4180762217870098 1.1718643408294203
Ni 5.283470978303812 6.76955300434789 0.7505737543790117 1.121202809918811 -1.6975356381257023 1.119572987624872
Ni 1.9430458240397708 3.3039010665488737 1.034289190954748 -0.652132034725393 0.1076070950577179 1.5159921007898343
Ni 2.1109684594698264 4.115169150459492 10.502881295519526 0.45420465671486293 -0.7512981981046093 0.16847796240116147
Ni 1.7391524961629599 8.122932720943027 12.329442105349061 -0.967737775986714 -1.229815463422908 0.594167285285151
Ni 2.469709287112866 3.045230986680133 12.647216675800328 2.6764487140029454 2.9915415201835898 -0.46046477869196184
Ni 2.1140637211406035 1.13680519544896 12.22486259307433 -1.8712689353885321 -2.6535075318257397 0.1753806030582657
Ni 4.147519324709521 8.307194586162455 9.071644492407367 -1.887136755658724 1.2983204502728416 0.11934675209214932
Ni 7.679606833460393 4.341160770749485 8.907334871509383 -0.3038699408816315 0.26312566908473395 -1.5781014685260693
Ni 4.202708778257554 1.8199575849318772 8.712823000369271 -0.587225306749679 -0.3467389723310157 -1.3645813782836047
Ni 1.7395839568807043 9.27675247600044 8.16978654101585 0.848291522202223 -0.2886572376969351 1.9199262913849193
Ni 3.15176426563978 5.3900980530716645 1.4073226238521201 1.1716969620136208 -0.024577432229047996 0.3052346824396421
Ni 8.322586478288954 7.153946985535096 3.8808409587362056 0.1255420822695838 -0.08009989077638463 0.012265447630914361
Ni 6.644307461651273 5.942583502143695 4.8946507729273945 -0.17974530778486464 -0.35221722183676757 0.7790614842608066
Ni 8.025159970469758 8.133437851462027 6.166217095815406 -1.143928790761417 -0.755078491082648 1.1511775019040305
Ni 4.772002436159985 3.556924638763652 0.3715683423732044 -0.05965344999657468 3.5640691157117783 -3.8639471618251973
Ni 5.0915459955540046 4.734765500302457 8.442752977971251 -0.4226453938513431 -0.02421516379362281 1.281881845100844
Ni 7.40637964415818 6.8668849145225925 8.231960030442854 0.6505898870492538 -2.5046684267014285 -0.08745221737639777
Ni 6.818476897907805 9.357848331774791 13.249367005317096 0.8163018566695038 0.17095727717958945 0.13613322752186877
Ni 7.447518485637051 1.4954053293796914 10.47925506939068 -2.148922879996428 -0.7258095669152016 1.1134493912256371
Ni 8.130173757336479 4.051275445910001 11.063188377037802 2.1818692530154618 0.9621530828100849 0.42391140504796027
Ni 4.679407214299654 9.052542976066347 0.883770367737197 1.072801535797288 -0.5004266637968802 -1.1708577539417773
P 6.819396096828219 4.396584713818032 1.0343145158229634 0.0019427255486676222 -0.26943464202189726 -0.1124381978977741
P 1.4799384006066276 7.5980044803217295 9.651527697056183 -0.8912181463624199 -0.7498702074088311 -0.9801482338359249
P 2.0634608826138114 1.882378695292544 9.958169643031555 2.7236400269767675 0.756388211033007 -1.1292920146848486
P 5.066896457157636 1.6216638668049261 13.225329015590226 -0.6021816709491952 -2.039127004817508 -1.906199685827446
P 5.993130063185564 2.8289097142161115 9.663402246374984 -0.9675035484887209 1.0943350389936897 0.7745579399634983
P 3.5846881979924388 7.134381179943458 13.266773631403847 -0.04891780874662543 1.0102697358116537 0.004403528384334351
P 4.31446648373424 0.26752815599565527 6.8432389912740215 2.07661343179874 -1.1775598485523011 1.8640886155900092
P 0.6022544428638764 4.615963729629549 2.151597989710142 -0.06853558297755294 0.6059984735921241 0.7356509784856555
