# total energy = -340889.8901842556 ev
CRYSTAL
PRIMVEC
9.05181337998232 0.00000000000000 0.00000000000000

0.00000000000000 9.05181337998232 0.00000000000000

0.00000000000000 0.00000000000000 13.24824385291905

PRIMCOORD
 96 1
Ni 6.675657939074719 2.0134581772786806 11.460949688128013 -1.7032671412928408 -0.026887054198831115 -0.9426926600926281
Ni 4.378126707504096 0.1775422645025065 5.813316133474657 0.9826221492977143 -0.389386117577581 1.2512623204427742
Ni 2.8057724402627175 1.4961198963002083 4.649842226387717 -1.26068387086699 0.23170833111571712 0.33118662641871344
Ni 3.335602223485172 4.53301228351625 5.093432669516629 0.847525847680792 -0.9294432512818896 -1.4757746480306841
Ni 5.050368668121163 4.616895436628553 2.7064441782526556 0.9583205964378722 0.8207046137228897 -0.26223452472903225
Ni 7.559839054431343 6.149349311194952 2.445003372555371 -1.4194641463644135 -0.4357575057532689 -0.02773166158731353
Ni 5.321579095827093 4.533944620277938 11.475787420358689 -0.4373683018838145 -1.3349324450689202 -0.12232331822196998
Ni 5.540334265921518 7.871963677892924 12.261620585077008 0.34032432705392357 0.6029365468373487 0.8446570107734291
Ni 2.1355490339937724 6.576712568763875 0.43406159935192695 -1.7672883813398081 0.062051003694473784 -1.3954703545529774
Ni 3.1041292558162565 1.6565994928824934 0.37345337357292047 -1.616565171818906 0.607921658756766 0.8986144388264911
Ni 0.4568540650405836 8.660023588663432 4.369018773041853 0.8851179470019531 -0.6323556234294142 1.133639235909951
Ni 8.663046894279002 2.1198712934962534 1.4682366908564681 0.3479857002539232 1.658645645928724 -0.3477766695669107
Ni 6.6891722962125915 0.8761648295687476 4.924411781979691 -0.6791085633142369 -0.3470040530669443 -1.0180473228745435
Ni 0.8055452983681152 7.261799052340514 2.338103268786547 0.5310914398705886 0.34328958032983464 0.9891213838688127
Ni 7.250520493068049 3.8231600389689335 3.9019126243479847 0.8361134920787924 -0.012916965171984205 -0.16187408393139865
Ni 7.696874454773112 3.946255646951476 12.571364581661655 0.5184650093558296 0.21191520764918986 0.37745542757826606
Ni 8.076534656671177 8.763838834486783 6.47544993426864 0.027365536497146417 0.20145673132002723 0.9623829394327038
Ni 6.83732332318886 1.0042081586574931 0.2883690448462859 -0.4739036778056871 -1.7556669950507957 0.40726222652705346
Ni 2.1510457382268857 6.019075615328731 9.308335270670053 -2.122994075945808 2.312009496178689 -1.5512115861137608
Ni 0.24836093559398506 4.781031965751831 1.4739728248941573 -0.3412771778854961 -0.12564261240319005 -0.5016633644174586
Ni 6.371191149597493 2.0223289542345517 6.986977856341017 -0.4312534472353283 0.5038138351015582 1.238181833109732
Ni 3.245762977273926 4.515967719222469 0.657129053264493 0.8758876866529366 -0.874910667451648 0.12860272347277854
Ni 5.898822276697355 5.5865166169713705 4.849863763841458 -1.418699500284247 0.06264544274536307 0.04205219197504371
Ni 5.211717238772594 2.772841943767351 9.409379756466679 0.8215993576230173 -0.5464859200487879 -0.3897208752091804
P 0.2167176069385419 5.680302453746656 12.300768772073383 0.6812016983978396 -0.12678649619964616 1.1870988983909878
P 4.008486862840878 5.89670415240381 12.412955134762848 0.502083996894645 1.8312790252591558 1.2148794109383658
P 2.5677188043826615 8.632343143835826 1.2033236096078852 -0.2770494782546777 -0.5202586109211428 1.3248760892741829
P 6.15121398471833 7.754760800316782 5.901218291656762 0.27251173828532427 0.4050166250259863 -0.4632608533798602
P 4.790672146831425 1.3814243709860827 12.282247857043375 0.6412601250078955 -1.4397882026337463 1.1343969400115816
P 3.9740809207906063 6.176450439976461 8.150372107471618 0.6000332571476247 -0.7463601373730436 1.4385959820978578
P 4.738941034277544 1.1027461973734252 3.7693768803580157 0.562899842630437 0.3612369088368747 -1.2117856025043905
P 0.2595299679264844 5.494966578061491 3.703744898241756 -0.12724595233456795 -0.030284252805838165 -0.5007776193783956
Ni 1.4199850953044615 1.022719116692959 2.5553214409961704 0.4879910091366886 0.914570190824799 -0.02369785783757209
Ni 1.8963186623950803 6.459989437288407 4.779277724349741 -0.004245662650231398 0.7652556887259659 0.3971814452522837
Ni 5.8954459503661925 5.712436390678639 9.409869459561897 -0.2966397416817794 0.6574827575143452 -0.7885282861006614
Ni 8.821055345852152 2.4232699690134862 10.500902610628282 -0.1349083539758322 0.14198274432411032 -1.8957046998333928
Ni 2.486180070894409 4.799298524830348 7.12344842353784 -0.7437607520769836 1.043629285108706 0.6466375872697251
Ni 0.260104758065972 0.32730994531991614 9.265941103452887 1.612887465857003 -0.2532528900557122 -0.5578267989829039
Ni 1.6505257262116877 1.2781341303295057 11.6172790283488 -0.9480662656997157 -0.19603658874572044 -0.9548645195684717
Ni 4.249781047853793 6.939654071644088 1.3350519318586054 0.18998266924215668 -0.5554295023953209 0.49727577687272423
Ni 5.391341420315765 7.980286726699975 8.067067365224089 0.5348092550418079 -1.2590147106946832 0.07434730456332357
Ni 5.017845503220709 2.8505789157030867 5.188489380868042 0.5215999554403856 0.2554522116998762 -1.2163284846800666
Ni 0.7873873610482403 7.229791840793616 6.799952912308948 0.5105272425659917 -0.42216408333955036 -0.5250658025017989
Ni 5.106725257230605 4.343684558200943 7.420473717366676 0.48401119855333413 0.7148412408291559 -0.5000857355176936
Ni 8.691198033394064 7.178105987305836 8.710534516795217 -0.9083635477934551 -0.00725822422431008 2.1898047058124543
Ni 4.568214785129905 0.5110699003234307 10.217337363057997 0.47864350648351767 -1.2456778843764609 1.7388946606884632
Ni 7.82505718178545 6.775028744606916 4.737015713605591 1.3352103813206553 1.325912243848181 0.0367534054699496
Ni 7.234996633395275 6.284221328177075 7.094116927978855 -0.5279582935582456 -0.5407549311022816 -0.24817007621616613
Ni 2.351181328527203 5.161597348971922 2.9676858440590945 0.4405423287364219 -0.7149739097522784 -2.0039499426957423
Ni 2.3428446085513284 5.202701632805199 11.342735723015165 -0.8585502238157536 0.6944665338275459 1.4671167152453701
Ni 0.7862730828408242 3.2755253391421952 3.877813982011642 0.4067390070337318 -0.2875115541282661 -0.3754054870277728
Ni 3.667803768669325 2.8629617961884257 2.6704487378009034 -0.7207483503422103 -1.277305024363439 0.42363038347243176
Ni 1.0676704211448529 3.1484197779030705 8.094703456166917 -0.9826488887705916 -0.8576683354314325 0.6741787301127873
Ni 3.6242102362004727 2.5234101786694074 7.124216922480241 -0.13649421040571333 -0.13349347590617655 -0.062252578182318594
Ni 4.093773047002324 6.6514533905237 6.0660789658376615 -0.28771955637401414 1.094154033331135 -0.20412322240859684
Ni 0.7463491554514718 7.702015884682229 11.563265953682087 1.1235525410979104 -1.2215995032710187 -0.4134153906126429
P 0.4269269601717049 5.259746159719382 8.068564535130722 1.7059081784601138 2.187653978018039 -0.36331667418403885
P 8.268858532162394 1.5883940802677086 7.89772875904312 1.2485405506362368 -0.2093111943674395 0.24134868241895854
P 1.7427184438602057 3.2911940278264944 10.32254115702934 -0.36159814883103536 -0.3909285223640364 -0.7180620617592988
P 4.109269751235439 6.448366909113572 3.569964529933999 -1.13111029884051 -1.9801096457430347 0.536410795200973
P 6.953277050540604 3.7886454751600187 10.33319242564564 0.46060541803488414 1.141139658052054 -0.7489250698867425
P 6.420849396923931 7.880191776110156 10.232586047608876 -0.17873743534564054 -1.0280915944844229 -0.2291336284100054
P 2.3813238665507246 8.34494807409204 5.751274100481557 -0.8362585022970886 0.7821156977060982 0.19171713543476016
P 6.901020932819947 3.9881383867216957 1.4654813189122158 0.6348562783640808 0.021969305182239583 0.7614142034926887
Ni 5.1645753955213936 2.8974401527444593 0.6773996837899804 0.30361437322739965 0.4542738193899015 -0.8152932128993314
Ni 1.5556446200367477 0.9939434024656996 7.078337807173268 -0.6355281076201248 -0.8245319578887799 -1.159205257304513
Ni 6.797205686996594 0.6875078436130635 9.24446567658778 0.09505908318937822 0.25038431025866553 -0.7342792949491096
Ni 2.7086464844091487 1.4850404769185899 9.222645375638981 -0.7463837915221274 0.512083274199202 0.04760500347247285
Ni 6.51932407294732 1.9308060707643344 2.4899546770072645 -1.0901955629040192 0.1873002373139871 1.1550899495845592
Ni 3.9735106565577287 7.100242289985016 10.570773556875597 0.45808805092966914 -0.5023267090330703 -1.144562567690674
Ni 8.4954163652527 7.303790413869378 0.42469116230629655 -1.120918960129805 -0.7939317165044197 -0.7433342060625262
Ni 7.762789758643167 4.180534676718676 8.313789922625205 -2.1725538891518066 -1.6683901269099977 -1.0513071133689378
Ni 3.1011150020139047 8.592370336655081 12.342818970388178 1.4547695065339268 -0.450709756187727 0.6545707260738727
Ni -0.07274761248871951 4.794283820306316 10.249079356477543 0.9925782320691614 0.6410657496089024 0.32756445628509395
Ni 8.57557017131825 2.2604369009939296 5.861751480835034 0.5670480604708558 0.4110846855969372 -0.4743088836639057
Ni 3.420544438744248 2.844423682713299 11.517452916611624 1.49768044696484 0.9627932874972451 0.11734103451603017
Ni 1.2420354992070424 3.5739726728279373 12.553452853661371 -1.3678741901022637 -0.7341664235203292 1.3897481073572195
Ni 2.824573056321232 8.181101202991812 8.127015713819338 0.2607137172091316 0.039234005799958234 0.05163135102304656
Ni 5.55904436384783 7.980286726699975 3.61666464470005 0.8143984689992039 0.3622841191544664 -0.112547984002761
Ni 2.975502989956125 8.445151646440504 3.430009919828691 0.7005716182840193 -0.8089739555495229 0.032209494853009044
Ni 3.50076160750234 4.243662022116886 9.495373792421951 1.0857061596740978 -0.40629420618682927 -1.0126968571959076
Ni 7.340477412851159 6.21993535068667 11.345053892380879 0.1591353448439969 0.6196052657422813 0.3116992071180632
Ni 0.702902262356788 0.18128156854380278 0.3455448230521635 -0.2911661201617179 -0.11564384931926537 0.01285782979927463
Ni 4.676700766574921 0.20232793946226807 1.466633614735157 1.0628331117306664 0.8471257840288958 0.5072321167544876
Ni 6.01087467255116 5.648485330277384 0.20485882643865744 0.4674157560884983 0.019475849336424524 0.9447315448995278
Ni 8.135308079910432 9.129206223310032 11.209974588876012 -1.3673787385230838 -1.0628253984211826 0.43612851593944246
Ni -0.03461322857301594 4.7959946130049484 5.892567473762144 0.4761184260688187 -0.049612520820804876 -0.026348922307173974
Ni 7.807207006115064 8.86247644314814 2.5195903134904505 0.15479172316332052 -1.3447957110162452 -0.999999207123581
P 8.487459821432076 1.3671587133509269 3.768661787113614 0.008123143327766657 1.8164419602463233 -0.2787592618569328
P 1.7722635622111886 3.225468812034065 1.6277323553417091 -0.24884730478884884 -1.0788942789585871 0.1706477163589706
P 4.674636953160698 0.9076434152235818 8.102373962689779 -0.26810795279067373 1.4958426224251529 -0.4992976923987595
P 8.614013222064765 1.6786044508209859 12.447029780449256 0.737903264854942 0.9783839428466505 2.2391791424805243
P 6.397486667002397 7.631610881454918 1.1929511368387702 -0.03811017660816017 1.0304626658197609 0.043053122435732304
P 1.8049044006835062 2.923500323005636 5.93704174765733 -0.4088295710141733 0.7825473859268781 -0.27191627079317043
P 6.924537543566227 4.123816015080423 6.121562960152669 -0.8928052883438818 -0.7165235136275853 -0.12847082588060454
P 2.3732858564111186 8.616095139105429 10.355210961303964 -0.9226894774978238 0.04542342244012178 -1.5687380250332983
