# total energy = -340858.5371159269 ev
CRYSTAL
PRIMVEC
9.48133543621775 0.00000000000000 0.00000000000000
0.00000000000000 9.48133543621775 0.00000000000000
0.00000000000000 0.00000000000000 13.87689279897983
PRIMCOORD
 96 1
Ni 8.80489886567281 9.40241261297504 11.655271733018017 -1.4354417527395922 0.6494130931323332 0.8096077324787798
Ni 7.324995172219683 0.8828924569190166 3.6174422810133615 0.9372164674694052 0.28056031962141353 -1.6939214384118826
Ni 2.720593298609913 1.479097779957082 5.155403982721493 -0.15259111596757594 0.34761109052332395 -0.5043571091995379
Ni 7.538903576740243 3.2363779360780396 0.19989688729169142 0.9554486742067158 -0.6117775421677464 -1.0893265300355046
Ni 3.466328759837497 4.28599019199043 2.328903221262633 -0.45913628968852543 -0.27563074353028016 -1.0411399430279489
Ni 6.0942609690728515 3.2114230617064203 6.1273830656267325 -0.9417228399801909 -1.0599192805179811 -0.9964174033095936
Ni 9.366506796392471 6.521641636692581 3.179306934822306 -0.049152550465250834 0.7881631894517587 -0.5651408161458138
Ni 1.849305996033929 3.5087482537351513 10.70009736870558 -0.615771750928804 0.2285376466972193 2.1160186730692394
Ni 0.7383618268055444 5.38129300246089 9.808797811822537 -0.9010898969501772 -1.2473696702565873 0.6152541878624371
Ni 7.520500305024697 4.749305120198472 6.765900743474155 0.33448200934053357 2.376547785071391 -0.8286925170243727
Ni 1.1524752620133412 9.298667842696066 10.292214118888966 0.925912869531128 0.2031711429079727 -0.27829980572201096
Ni 6.702317961170386 4.992027302536414 9.813474954500167 -1.5010128537721825 0.0446574908083747 0.16003240273696953
Ni 6.00184639441473 6.971388774161341 11.599444682946766 0.2786060241085202 -0.4654964275785984 -0.8471697498929538
Ni 6.344170003528456 8.96306650027287 5.066342008206914 -0.9766700454793372 -2.0098881625570484 -0.2741495309990633
Ni 7.636779400500968 5.029374282076615 4.066970399637904 -0.8893060169413717 -1.3671725360495488 -0.4213202472820163
Ni 4.977454490260891 1.5105568503085387 4.023202659868043 -0.525875699997604 0.32014759499573253 -0.22892279795077997
Ni 7.447863795693019 8.640407180462615 7.10183298449749 -1.9354002186508024 1.3813159174294662 -0.05650256307241882
Ni 2.100921670834097 3.371486963355996 8.391967752970386 -1.0315088476960879 -0.0551164813581696 -1.8578799156761359
Ni 0.41319659008935605 5.091571841300714 12.394326645430159 0.611654900546953 0.051399694628214705 0.12035822407579917
Ni 0.6188192557370584 4.078510132767728 2.5191556943404905 1.1770312297423406 0.33116400071089414 -0.32894051069701413
Ni 5.937913750840325 7.343531182628695 8.438774260687094 -0.018848757275386895 -0.4620683757336559 0.3144757414219358
Ni 8.035460066326285 3.479337151797171 11.142423465076062 0.5121318680489503 0.0019147005242096057 0.2073101047770107
Ni 5.360111699517804 3.3401132250217676 13.392532997897243 -0.4258988677916342 1.2051333872951955 0.30426666209941794
Ni 8.123778704157454 3.674775915255452 8.60110609772789 0.7392507800217721 -0.14707275725250799 -0.08789830377488088
P 7.897241161087125 1.0553958704134119 8.233076692490934 1.863628388124139 -1.3281452469437578 -1.8327964903449467
P 1.7662305365946696 7.747644653550872 6.673120189275476 -2.461218840158226 -0.9982472574294807 -1.0285739334374802
P 8.339365305016834 6.301627252272582 9.40968479710993 -1.0961659215548412 -0.9240920142723053 -0.6175563536330526
P 4.814896997441202 0.7145816898710995 10.94977031791352 0.03815979889917299 0.23779156119531952 -0.3873202361874878
P 2.4123930150522117 8.775497245070078 12.656878092304881 -0.888822906657366 0.9685885540227834 -0.4700436806296485
P 8.09070780681391 7.006450751906877 13.067369657448102 -0.14156648272229813 -0.1380186174700397 -2.4965393698363907
P 4.695356322639766 5.994346658233896 0.986691270808903 -1.0470401105624678 -0.5238738390762269 -0.32616551905503827
P 1.836724264160396 4.6627594920586 0.632228708177705 -0.7189012698311424 0.296286986328051 -0.1555579119053837
Ni 0.3093437325885586 0.044293953876100155 7.710182001720651 1.202916582149535 -1.0489805221182902 -0.408149000007381
Ni 5.138532894781957 6.3867127547843285 4.991116146219123 0.3999081001548274 0.5852383582266372 0.41445514473106687
Ni 4.585619348484323 0.21717472451334888 8.579860321705121 -0.10647606677706824 0.3397990506780728 0.8940967534617957
Ni 4.520492056668724 2.948022087193515 11.338517388799952 0.2826477982780616 0.1524497052937052 -0.25733528765520197
Ni 4.297415200963759 8.031933009614187 10.270676317740572 -0.5768689032160194 0.28334173902129267 -0.1261771447504214
Ni 0.848566230788693 2.081854705651222 6.584169146383294 -0.4207720880880302 1.2211948116334321 -0.6998769062098398
Ni 9.386483969759112 7.983179983771152 5.320108997974758 0.973262305349369 1.0261031032994845 -0.36176295654367374
Ni 8.085056931006354 0.9700164465089912 5.827975772377633 0.16820285436290386 0.8044806956648597 0.9435966599641363
Ni 9.412405940325986 9.118256995605192 2.880245710309744 -1.555668850554166 -0.6387687260446095 0.555569627517611
Ni 3.6455070333461856 7.920385100426458 7.365909978213548 2.102777748898933 0.11108605474525385 -0.45448207874596575
Ni 2.6551531227311442 1.4575277422688468 11.861342865822929 -1.4027882283706292 -2.8078745087468158 2.624522200336983
Ni 4.451325716037658 7.975386326197645 3.0523888330647315 -1.160752547186975 0.8016393695613226 1.1684771695247425
Ni 6.4624970674182025 1.982253278875438 9.112871597184569 -2.9134216359517118 1.5857564139681657 2.063390762460879
Ni 0.9125586067751568 2.4831711826753655 0.2687342255896664 -0.5226173409613064 0.5826114621267514 -1.4079504892978592
Ni 6.4723102493994435 8.704785446793656 12.897794080278159 1.2282769152911943 1.741792808171865 -0.3545769803181958
Ni 4.575322618405456 1.2442261432041328 13.581120548505625 -0.4161299613303285 -1.1220049941051322 -0.48291770837883924
Ni 4.310774402327594 3.7739886072860864 9.245132431354154 1.2128904055327951 0.6258281067235416 -1.161238228574142
Ni 2.017817767389095 6.043412568140102 4.217687601000419 2.4499301546182837 0.9594752788676056 -1.1852489896664424
Ni 4.085336694145982 4.094950768087024 4.609611867328313 -0.4442349470966607 -0.45819757992433996 0.8135975703644632
Ni 6.052040583215396 6.312985891899179 2.6774077128242544 0.9100373359514521 -0.09341332005583913 1.352605436868651
Ni 8.880626290295197 1.7838658201551605 1.6748996785553456 -2.5633841953750824 -0.1413268559076663 1.52055426623922
Ni 8.40473911154887 8.397675516789427 9.266794437994289 0.6310826702542616 1.2662672784920386 0.369609449171286
Ni 5.652250601166112 0.5330710078915072 1.7802799791645274 0.4229945496606457 0.6276402202316158 0.23183740049441365
Ni 8.483073903364343 8.154118976949697 0.9089907803214939 0.13924143413354728 1.9929895870294965 -0.0770284509399125
P 3.9720631819431937 1.8956128373830896 1.786289249444441 -0.4742237801492672 0.7814523530904864 0.21414255431781185
P 5.186053347042807 5.193012647114528 6.81392844717075 1.3881375683369899 -0.7540937585718754 0.3425233915877714
P 7.184538671862095 0.998792298985384 0.1612329502856018 0.04297701778215824 0.3773240442067244 0.8126300642448714
P 0.05765694777403357 1.9940480599234223 11.611406335495106 0.6473014461059691 0.17521630956625953 -0.14733423844401078
P 1.9409051758607594 7.309749185141582 2.3014964735959906 -0.08253806790423206 0.08303300526277958 1.9604293937052881
P 8.113918115499976 4.392949134918334 1.8733108406137415 -0.40330889830626027 0.7395444000027909 0.47903971348067176
P 6.98050981866951 8.292053442131431 2.5118285184611637 1.538755105517963 0.9811674191290586 2.6667497415476267
P 2.7594098851134885 5.199090183008224 9.163924794958666 0.2031282054851792 1.9394810735883954 -0.09774485755165746
Ni 0.29683690326348133 5.141709142089894 5.161093732003563 -3.6558253597801684 0.46190819600670774 -0.26643236486046373
Ni 9.381610563441859 7.242535999571516 11.022860035070034 0.34590027847980426 -0.8120040006250984 1.832494899944128
Ni 0.1448074851027014 2.051429100841751 9.202947126437113 0.6887779680832009 -0.4054094895890309 0.9855436938198834
Ni 2.8442299102383024 3.0853023402431656 13.301875314660496 1.4949252528172061 0.5445460227135976 0.7735492961933258
Ni 6.478103345235712 5.45822455665972 13.502882466309678 1.6329729237529684 1.255455018367883 1.4037320803411373
Ni 8.994990156051458 2.9374503983924676 4.343577926017157 -0.2739564411516508 -1.2103018188700123 0.10883762503070933
Ni 4.113164413097618 7.810562794253786 13.292148412830008 0.26714944553214637 -1.2765756023965822 -0.9319727025719626
Ni 8.764394601495166 6.978594588949499 7.361788441781426 0.876580084734271 -1.853476901512434 0.02713979363958552
Ni 3.2699418628544583 5.22585599241213 12.789304849841297 0.8626153950240628 1.1006645807561433 -0.19915713665257315
Ni 3.1376867174860226 5.498539194132412 6.612144774164792 -0.9665679240483289 0.11058263274627408 -0.06211271017034464
Ni 3.0308984385925757 1.769037011827952 9.857255968139373 1.3217581124704914 -1.2870636464120995 -3.2492483322455974
Ni 1.9555728014887592 8.865105344494916 3.8730685606232544 2.1503125612551033 -0.2670350314414692 0.8614144327374262
Ni 3.1196247738393903 9.296335434225162 1.2141058373896338 -0.823915921571336 -0.25790093035068484 0.07171732313964423
Ni 1.8735592515972281 1.8330170620785937 2.471613435008571 0.29192459559429723 -0.16013756085626613 0.5572508718747757
Ni 2.4424298851165323 7.1039473222577 11.346371726919045 -0.8605500278546018 -0.5610599612082208 -0.11964602850012299
Ni 1.6840937293449196 7.254226485931777 8.779895636491426 0.3832229261896626 0.36001100684957354 0.39034385350516
Ni 9.158438894384417 5.9838982267910685 0.7454093032950676 0.6267400770148497 -1.8045608925380214 0.3764984629816355
Ni 1.804487724318638 6.990199743292532 0.266776329861042 0.38171574551651677 0.00031624568883816505 -1.5394703864174324
Ni 5.854449556655915 4.245808293211204 1.6274958467180403 0.1087743758929417 -1.5108941174416366 1.2007347440068674
Ni 6.623196218529366 1.6534026471485168 12.080375932044804 0.2337880964628812 -0.22190574320299847 -1.0362448197191767
Ni 5.764007099729289 7.877785461159099 0.9450264911969556 -0.5419661778015634 -1.0956941241247453 -0.7629944034956149
Ni 0.828286602827653 5.282592302533624 7.266537999750755 0.7629486378593441 -0.7939646266248843 1.7640102248091685
Ni 6.506367205608735 8.897275514989941 10.331860322226705 -0.41802357880861557 1.3171509527157832 0.274968684466249
Ni 4.810326993851871 0.9546092767316804 6.417674055035288 0.8623698546721599 1.2003922730657843 1.112457202515697
P 6.636460606540724 2.896424660776207 3.6302648388021828 -0.09124922252498478 1.0090834288130364 0.9594935337000509
P 0.3933587923508531 0.8225845278097609 4.6529633764808045 0.7156832771144771 0.5734195112148383 0.15331565283842627
P 7.579189770207192 6.779154702016741 5.275023352605484 -0.5350699649023622 0.47843139047271155 0.7373327370634527
P 0.8787054992736871 0.3480389580009652 1.1180561187975913 0.5648700789829304 -0.04057766431204624 -1.1303893615140856
P 5.549103155007733 4.969897866068573 11.746872809111897 -1.4499260623986965 -2.1820610573112935 -1.4176669452546746
P 2.2340585803805575 1.1994552781650796 7.987261698595233 0.4708818602602277 -0.8620050151335735 -0.391849491516409
P 4.068421992064307 8.99259137823382 5.1964524755423485 -0.8993052942459286 -1.2557758920424114 -1.3666462312324335
P 1.807597602279843 3.8516881496399704 5.198880645499252 2.4107822807742285 -1.3723252838950817 0.44430025311695737
