# total energy = -340895.341564053 ev
CRYSTAL
PRIMVEC
9.05306836884104 0.00000000000000 0.00000000000000

0.00000000000000 9.05306836884104 0.00000000000000

0.00000000000000 0.00000000000000 13.25008065598048

PRIMCOORD
 96 1
Ni 6.5071464189829475 1.835681632201811 11.51699679748885 -0.20122867446962117 -0.021367409932182557 -0.7786390520114075
Ni 4.6126922665425685 0.3616845686326503 6.071094514436597 -0.665470403705512 -0.49792446620031666 -0.6012771568570549
Ni 2.5724384470593473 1.7295525110131587 4.830237500882184 0.4601320779428914 -0.5443922707445528 0.23853332445735045
Ni 3.5359022015062576 4.421790212588366 5.115790290564398 -0.057824367207635896 0.005497789889777629 -0.32655478407365696
Ni 5.129966490416766 4.710727944556039 2.9806847572340494 -0.0727053980845264 0.2997849721789805 -1.4341459167463042
Ni 7.4139379650667285 6.059327336093084 2.4927904563312366 -0.9597221047710891 1.265848188676749 0.35841872266178915
Ni 4.931849140924958 4.337931639734107 11.871529442062895 1.3551176617675436 0.14922374215723977 -1.267399335213953
Ni 5.620434578673835 7.652214726107872 12.592452440238784 -0.7692825504971719 1.4216994634528353 -0.7121055870655477
Ni 1.8221835071747463 6.268344579972944 0.2711547896533444 1.3374966062516707 0.5074138937479906 -0.0904804626797603
Ni 2.666925322248801 1.4526372539186867 0.2241811334977903 0.7117931980314516 1.7235868266867993 1.4619194873151466
Ni 0.6232548747406201 8.97282203006364 4.537424150320222 -0.023384954582843596 0.13053207928500746 0.4250352342397583
Ni 8.704606771729066 2.2612211136888534 1.1331562796865533 -0.7819195225348922 1.0155854915976121 0.8905452886651115
Ni 6.747532544967958 0.8187106221144155 4.9545361304070665 0.6108442317201996 -0.28154068125681186 -1.261713340572769
Ni 0.7874739148083226 7.29334204052915 2.1773326657087795 -0.3213146187206402 0.215462558680816 0.6191393818494563
Ni 7.7887712102851 3.912518901205065 3.5829410397544974 -0.46673312819917684 -0.4111358505498468 0.4839677469099084
Ni 7.469369903055138 3.752578341276726 12.826674331930752 0.14566584960265236 0.29388711863730677 -0.31780352024358816
Ni 8.006551824403859 9.000560631728915 6.77244749459035 0.19860074992847085 -0.05695790544228255 0.6083759726853651
Ni 6.964941983281145 0.47583289783536964 0.4620224419475176 -0.7003715864580713 0.42768038517208923 -0.5601317929669966
Ni 2.0287835817841664 6.610650150327302 9.284729207248393 -0.4994326753147269 -0.6608388184707715 -0.2059517909769034
Ni 0.08604398357292728 4.889571311363327 1.4668234121463262 0.4100619007593777 -1.4358323033097915 -1.1711120360444283
Ni 6.18150754760567 2.1364969899478266 6.8986680905426265 1.236927906097973 0.6284120654006338 0.36533139062122244
Ni 3.538364636118841 4.229186181769585 0.49696185424091394 -0.4436065694840424 0.31180847900241787 0.6501836527497706
Ni 5.9775419159089775 5.788097405971782 4.913249611838369 0.16000977702915023 -0.20033701589328723 0.5355499898625745
Ni 5.158203010845615 2.792183577027116 9.371424106441339 0.6379472585845787 0.7441908976358667 0.5775888121011794
P 0.13563488181119387 5.5983722509133 12.426349456631089 -0.949930572601964 -1.5720794307017054 0.5124434857520982
P 3.937179459604612 6.150537000511378 12.56803269345944 0.06302828000607853 0.06369162462169031 2.023017500850154
P 2.366988112140361 8.572721670861005 1.4552037988181992 0.9138307415556133 -0.3053490965303193 -0.16050857104243968
P 6.3214498793752 7.7143368816650275 5.931425585333613 -0.2560160546231462 0.8213903269360048 -0.28554388887893406
P 4.896904296790504 0.819837729133778 12.63389919811867 -0.8411556824883901 -0.3776965970547947 0.09011639447212222
P 4.061197444008208 6.158974460286848 8.385458950415106 -0.4189664023378591 0.5977861129846608 -0.8065542903644366
P 4.757803900384836 1.1753508210186414 3.8670887932165896 -0.619820467076881 0.7254989776533182 0.8457134770624016
P 0.3122167921250129 5.641301901401792 3.5896194883342867 -0.8171562342499992 -0.4700161698258228 -0.31231575765613956
Ni 1.3259395612602216 1.22653686991403 2.3328888245971404 0.937149875897528 -1.1942211112580658 1.143406856819676
Ni 1.709853034112493 6.555263477681035 4.944638410694062 1.2364607366535674 0.20485161593418916 -1.1716725365335887
Ni 6.088559694049081 5.717555896776015 9.227740141490264 0.32131436161032406 -0.19612452047383644 0.38249016178869616
Ni 8.665841532717739 2.4400463743592833 10.273224695900424 -0.3176176294850272 -0.33200577988589913 -0.1848044674753269
Ni 2.1559882462746343 5.33686531628433 7.073237503744765 1.0573921432207531 0.3876141132788228 0.5463691919652655
Ni 0.715170678496347 9.039171968576959 9.053342736588268 -0.07664201413477123 -0.39910848707166746 -0.08967570739027782
Ni 1.4258944897805583 1.1191312660769432 11.444956100161306 0.09277311536867894 -0.08486105961045384 -0.8402478259621399
Ni 4.074559773008843 6.845260418654856 1.6902866373177274 0.131770836788115 0.7048067394112894 -0.3271415098150624
Ni 5.625730623704574 8.03517762677514 8.00491684024565 -0.16744283626842774 -0.7279703220119463 0.40435765128574874
Ni 5.650336863693549 3.1336291058807553 4.6247156467226125 -0.7174187717483451 -0.49138203709610856 0.689550070362535
Ni 0.761255323332211 7.39935347182823 6.881734326046902 -0.5640789505402026 0.4486603298578661 0.8608634453299625
Ni 5.0840855396205455 4.62673357567535 7.302304578273478 0.7034497111627627 -0.39259742542602705 -0.980896424855859
Ni 8.070801451041739 7.268364624734601 8.943764396328314 0.35987088172728343 0.8770634521285927 0.8360006206500119
Ni 4.634492055318673 0.14471148821772317 10.34306640290666 0.1892339640015902 0.18354899780167097 0.33935373561053817
Ni 8.036390737944574 7.2644446461050105 4.624198716515338 0.21076823852894022 -0.16074562675391024 0.30927208573380927
Ni 7.497017974036128 6.148418582499083 7.008921789707356 -0.6957158328536147 -0.8346543910347626 -0.8070903653735648
Ni 2.2739406748310573 5.428292254344912 2.5942862170981233 0.8458091221000014 -1.0177133365738924 0.6175278143879623
Ni 2.496899644090985 5.172334850662684 11.329627250835495 -0.8512786298550049 -0.9540201692903054 0.01917785848003149
Ni 1.0328736300891004 3.268755205246261 3.499598491800669 0.07368370283739568 0.8805087303647159 0.777576415074848
Ni 3.5255817034976364 2.985801551509903 2.9538931065264067 0.024081209318919817 -0.6889679726068199 -0.6521898845465219
Ni 1.0653560396109707 3.403283802095478 8.309258368144611 0.12109330246961082 -0.23755296282195218 0.068897594302662
Ni 3.784146390887306 2.6296719456650504 6.979029463062913 -0.8977415493032345 0.19930548930497932 -0.05901350241973062
Ni 3.982254687310686 6.881282577932315 6.1095727711787395 0.5898869127422421 0.0034604477447746857 -0.0456476226357859
Ni 0.8337848863549021 7.253363690348386 11.316615275583047 0.07455376414717482 0.644481974379303 -0.02011014048631375
P 0.2908669408498104 5.621928334964556 8.172729043172671 -0.23168724806979454 -0.2944792436953509 0.4253486517151191
P 8.597038212660264 1.6458659464590426 8.028091790116061 -0.18109385139295908 0.46020278327982683 0.23258482018339943
P 1.9140902578620445 3.134271873739187 10.474838340419364 -0.6792078078962624 0.5516512662998113 0.1388161736706706
P 3.9283889301604273 6.300075584815239 3.9675380192731295 -0.317121406574899 -0.4390531457854051 -0.768768844085547
P 6.785211415767853 3.8579922700595177 10.494302437540885 0.31495936592657375 0.23365439909849436 -0.3648220550849717
P 6.568046410302239 7.6695060868065275 10.49191785931679 -1.3367165335525366 0.14790862289024204 -0.7868755809885868
P 2.3738865502829656 8.591017922155235 5.783157146530288 0.11513837043775654 0.37561168950130797 0.4959807122103846
P 6.688660440976676 3.925854071000415 1.6327145539527939 0.9816289321465095 0.27808486149772754 0.3494239753623466
Ni 5.365789869913755 2.6037620638223546 0.5151340784976726 -0.7399352076833062 0.07253467683461702 -0.34800549774826517
Ni 1.5179913549048576 1.1298863113701376 7.071727451930872 0.06282490574602084 0.31092941883157416 -0.6712548715977731
Ni 6.773053144868224 0.9012356779891401 9.021237840019872 0.7872386207549603 -0.27769071138310236 0.6679664306544884
Ni 2.6633855724932123 1.575288224989561 9.171281585542049 0.9100545623426327 -0.7168919527105976 0.35992384645240594
Ni 6.452284824305541 1.8694495774405444 2.575060215676274 0.8885341717723537 0.11649925534102516 0.36783358821778583
Ni 4.166647585064713 6.765593416483045 10.533893316392904 0.7363693447089189 0.8331988895351586 -0.2701429809428315
Ni 8.154026309105996 7.242844024834335 0.09984991292656498 -0.7316742532260947 -0.3240757264055451 0.4412406403550272
Ni 7.770149048527438 3.8903841488971014 8.236793081907765 -0.956358587615495 -0.2583652715816131 0.0504301316260938
Ni 2.923996253347749 8.450134071269131 12.549138034342077 1.248506869184824 -1.5944511135286863 -0.7733801176053132
Ni 0.1484621744676983 4.827123245342741 10.380788728435013 -0.16552042243473428 0.40646287055420965 -0.6982805082569974
Ni 8.91974388986667 2.3636746890954883 5.705298947430513 -0.8055168502388579 -0.0895857187796328 0.01291465117913905
Ni 3.758317986660468 2.439457924911423 11.511841980325597 -0.19461682558005836 -0.7035417566559367 -0.4409351932994664
Ni 0.8789262014605045 3.4142923333046737 12.456692626083276 0.5461146527522981 0.23912930617013656 0.5163060540312979
Ni 3.045081043580473 8.268973118944118 7.8555484536282485 0.3793318186653725 0.7831521093904126 0.922413855238934
Ni 5.4882416734792 8.061006031001977 3.6694775102499415 0.40254862310146805 -0.6385314132228229 0.6254365277120777
Ni 2.9518434918341687 8.315505890667199 3.6757051160219856 0.5297223274372038 0.4671969552094728 -0.6677160052065791
Ni 3.335983291397155 4.184246750089941 9.115724715209325 -0.2051938297649563 0.42614415103322095 0.010442278379246531
Ni 6.995849158896436 5.827795111031258 11.571242783513112 0.6316313436688799 -0.2612521062111049 -0.4135809696562297
Ni 0.5136204054564081 0.046489316994623144 0.26334108629260683 0.6902985184927853 -1.1348443119616454 0.5513735871583924
Ni 4.539561579776217 0.4237469739381768 1.8548125764051597 -0.4587902192030164 -0.26498174845686623 -1.192064212816063
Ni 5.943094990538097 5.657878069694585 0.49210397772211917 -0.2658775207982582 -0.44516234400693655 0.9678815006534298
Ni 8.25824523285621 -0.145117970990168 10.894415471039322 -0.4471184392920428 0.6434900427796789 0.5918995722968967
Ni 9.229965385710015 4.8629009717726275 5.623811373197708 -0.9967233645857867 -0.35073729485713145 0.37479253603412227
Ni 8.063224032766987 8.714148705852827 2.5281019497370485 -0.5384257687484728 0.4438721644406033 0.21930764345851905
P 8.539668918028132 1.5023567057286396 3.5805564615304006 -0.6589824819883232 1.3173928935232602 0.27632159894971764
P 1.8626597761190833 3.214871341959145 1.448433008940438 -0.4550772891278034 0.31531700637630855 -0.22339158371990558
P 4.68235562810076 1.0751152473770176 8.247764495536401 -0.08961374380409082 -1.1288976074599075 -0.6393209990036537
P 8.491678602288044 1.4515780449125388 12.409111509036162 -0.387362659389649 1.413223307661024 -0.9940561021662687
P 6.280294630298716 7.799390459551865 1.5808803053579166 -0.22193325400682423 -1.2147056043646627 -0.1998042833182688
P 1.8109305431179779 3.4417683959855196 6.180116090988193 0.5510879375971736 -1.5980933382669638 -1.0517406013619304
P 7.086126357266584 4.052452179906165 6.0022332547411805 -0.1425926099939673 0.2055944076374846 0.10821593228631039
P 2.4377106827047004 8.50779306409098 10.326079225307206 0.37437935975610365 0.3581996646724476 -0.41271167967739886
