# total energy = -340862.04179740424 ev
CRYSTAL
PRIMVEC
9.33514707114511 0.00000000000000 0.00000000000000
0.00000000000000 9.33514707114511 0.00000000000000
0.00000000000000 0.00000000000000 13.66293134974770
PRIMCOORD
 96 1
Ni 8.957157436844213 7.0074560024339725 3.6055931238482946 -2.0320081343845393 -1.0429664547137265 -0.9531987018302746
Ni 1.1693485022145875 3.0318316594305172 11.233266015577469 0.8818338769340426 0.2272045297080926 -0.9169957695471562
Ni 4.475960209725435 4.104580061847746 11.387834576885423 0.41380594118284214 -0.11440997691216426 -0.15838046895584337
Ni 2.393578332870291 2.704186674632711 7.264484335228773 -0.3008031290308497 -1.967396569051741 -0.08477801297834431
Ni 3.0699097235079646 9.289301962432734 -0.06567929282414738 -1.2052732553071694 -1.4321270865440627 1.6380886477129788
Ni 7.16735773314802 8.458520566852338 0.3329352125283012 -0.8045825113500465 0.5520407884287459 -0.11117090114957627
Ni 2.682585144778528 4.975511924110442 7.979219586569611 0.21286471604665275 -0.07323453111511903 -0.5145849575751331
Ni 0.4061218304642611 3.578161794774605 4.515024998826904 -0.9140927369677484 -0.28436786629296185 -0.37156683000797297
Ni 2.2412940820011076 8.598809153995235 5.508483464285414 -1.2920626422885877 -0.06083590034045006 1.3671866771169356
Ni 7.139408303423117 0.5781396482992003 9.961355988775168 0.2903911896689063 0.8900061283321897 -1.1251731074204687
Ni 9.007175153766735 6.872040361956539 7.288121860615021 -0.7817891676046149 -0.9774912558290522 -0.1413505100567501
Ni 0.5680352853285141 3.5835575096647165 8.562709207539267 1.184462232099089 -0.3232650575787917 0.13929568441025042
Ni 7.243037768812611 1.0069449521397276 12.440084863808352 -2.3782717097410333 2.5044863925976095 0.5109872129215458
Ni 1.3554539901890892 6.230342366201761 9.635645246408556 -0.565621355326658 -0.6834799529090552 0.991163868220138
Ni 6.370182866294961 2.908355671798157 5.295546897180881 2.1231663398576144 -1.0273601156350372 0.2660294729950902
Ni 3.524867441301169 4.287427583565069 1.5088248521537904 1.4447702292293698 -1.01728447656659 0.3681372355011337
Ni 3.5818118372002687 6.3146200721324295 4.9738119938656515 0.294587487138441 0.17501884884347274 0.12556933596309344
Ni 6.031438391870265 6.15458764936222 1.186485964836156 1.0925252394784604 -1.4858263758397314 1.0324956370893896
Ni 5.736027669210096 7.093124645248078 4.182482795981775 0.6387031629139968 0.8085952320538655 -0.7297248428092077
Ni 0.9951173210570784 3.821389046438713 1.495079781904309 -0.03345390878307142 0.26369362577306193 0.22793575144716227
Ni 6.183993361998641 5.400858556036114 5.997521002752198 2.945091713361483 0.4663130099426227 -1.773993304163809
Ni 1.4441565557355236 0.7266889069062151 11.961034998976393 -1.0942406795076702 0.8650160340457554 0.23767509022211328
Ni 4.867532280280132 4.436229824652226 4.590307357234888 -0.9350163744942929 -0.9739076522428517 -2.671687802279192
Ni 8.637792727318947 8.618730357413051 5.641096693672862 0.24577972160711864 -0.09611117860297641 -0.3157204124623143
P 4.791805568881197 5.610012521629449 7.260153760596381 -5.454680203072348 0.8829538494710988 2.8136296660630378
P 1.3643037094206214 7.928788322640807 3.7250204582836974 2.278833523647353 0.6935224247467218 -1.3850010795905374
P 1.186319799221893 4.229157596810613 6.495084330854172 -1.979258096376017 0.7598915962005752 -0.1451894241868661
P 8.399354405998485 4.572989726278754 2.1226452988145548 0.9337616761515853 1.6644889920833785 -1.9493780209871328
P 8.489270540637852 1.550166483576537 4.956022937992646 -3.148409923370281 1.7397508380411715 2.0890411160391316
P 5.223518770971326 5.323264815263439 12.962965110218251 0.28699553372379605 0.7985787283581279 -0.13534852683704432
P 8.035190326650307 8.716254636750412 7.753931686643095 -0.011996253129927727 -0.6085104413807004 1.4248824891665073
P 6.442941000989648 3.245653198458204 12.016766759297248 0.5828757715317316 -0.17827437966629295 -0.18249998771186635
Ni 8.311127932942355 1.509950670866156 1.6516572668184102 -1.8327229567945338 0.8768351381678706 -0.09203855119549956
Ni 3.7667410966693136 1.8435888199536707 1.8789260849104663 -1.0494070681327474 0.6168446722780085 -0.5020135486680257
Ni 1.3786331598640837 1.3462121947890713 1.8546332322140355 1.6585980805202405 1.1874025456743358 -3.246688027717589
Ni 7.90260323567409 4.108015395895429 6.726015327062822 2.9413939527949213 -0.8095226289641413 -0.1756647099575878
Ni 2.7069218726652413 3.6170426814827614 5.041744791143904 0.26044863647320304 -0.5103140981139211 -0.4942817272414068
Ni 0.5594758891645984 6.454273869288254 1.3623946718859714 -0.6517353135076066 -1.3735884668782214 -0.13271391742767466
Ni 3.6912384287952285 0.1529853203990235 11.355015934553805 -0.2401328077339864 -0.24755583967093495 1.0296381130359364
Ni 2.6912014853383424 7.408307208976163 1.8733380659948595 1.149982710264981 0.6522451632644897 2.1143428280287133
Ni 6.567425184483828 5.284925367073667 10.40298311683986 -0.35654515978816015 -0.2189039802621972 1.6305596863257856
Ni 4.915010837254366 0.08088904761732835 8.433854308281159 -0.0036018584186454095 0.4284859117925201 -0.5161461314146659
Ni 7.6158741996018176 3.0112850011724976 3.1498381845125034 -1.2947813267713313 -2.0312794837486305 1.326012259761155
Ni 2.7730147124956726 8.475277155481663 9.625917089856678 -0.17688495551793407 -0.8167595130322127 -0.7289149453134027
Ni 2.3241155050202575 5.031112058860448 3.1879302513102536 -1.4461979628148318 1.0273632009588305 0.7827582163861035
Ni 4.087123337203268 7.665723883880702 6.786514546889524 0.03770445652930926 0.9296697654703989 0.23835720389080242
Ni 7.604065238812906 1.3852611141408642 7.3838986004585605 -0.3785304058099997 0.3951240485026227 -1.2815828258031863
Ni 1.3946429367439126 6.156986782107478 5.343873085490792 -1.649114052289205 -0.21313802431269746 0.7136950430398548
Ni 7.804005414446828 2.96722310795221 9.175641881732817 -1.3746747579638647 -0.794292185167632 0.8780600117139071
Ni 7.471935570033256 7.628345955818407 9.754772922629474 0.8750176253431575 -1.1016714247541026 -0.5789802931320673
Ni 3.1941231877429526 1.557382552106046 9.108556715790243 -0.28357828051213096 0.6916702020293313 1.0330479100484338
Ni 0.7307328925297382 4.688698871716352 12.747979478376038 1.3269252584937277 1.6649880432069841 -0.8977957995799376
Ni 8.56698563831982 8.826213331716888 11.646664593025886 0.8368292871988943 -0.8368724817320039 -0.4600729425701818
Ni 3.768178709287094 1.2412851439848278 5.66394073157527 -0.9238683282972734 -0.6968733434968256 -0.24778106830786362
Ni 9.236446360862127 8.906467589347145 1.9985587925769808 -0.03068380223710199 -3.687349912751011 -0.7030205940451442
Ni 4.956906976401113 9.095410961969733 1.8797186388796194 1.3568058481032441 -0.31188946875199836 -1.1066058859412427
P 6.902435600161042 7.735102695408917 2.2784302297595027 0.555943723027578 -0.4499682500360121 0.3338955407094443
P 5.200442287911888 9.393678239571724 13.1049778989878 0.7642766126421482 -0.8005453651661955 -0.03449212023959866
P 4.322070313594834 5.8529783891812315 2.9299058583445623 0.07578660811301141 0.07084263384417476 -0.8575135550211233
P 2.940589933935795 3.877371922210336 9.952037645170826 -1.3169084976876742 -0.004951687578320505 -0.9359337441022397
P 5.13288383002307 8.928834601244562 5.19677824276592 1.2597551884051337 0.5263919775123902 0.9741616772351868
P 6.036740755291689 1.8372222497892141 1.607730733227719 0.05258111653082557 -2.3663497614924665 2.0133157001813586
P 9.31319993841662 1.6864782981533664 10.050821235820774 -0.1463945002385608 -1.1481474568284549 0.042918139519764795
P 2.5131708994052704 0.05206024705739373 7.552963711338928 0.3352289148088872 1.4432838744918306 0.370737135017826
Ni 5.133471944275798 1.7097881598845228 3.6871057592764522 0.8082777008134466 -0.6256507006054127 0.6851519412948394
Ni 8.2655350756356 5.194803859203191 8.863006879585202 1.1680197702723496 1.887022855788679 0.7341623097552711
Ni 4.094712811607525 1.9559373125185346 13.222998426790088 2.1117614404547824 1.454521909299495 -1.6523364158812448
Ni 3.679830879321671 8.798217226257641 3.7861488670093513 -1.1847494243222048 0.2846532587438646 -1.7609434129583867
Ni 2.9194178208375723 5.011704288520411 13.19015271253255 0.6792903403077398 -1.9458394117062552 0.8284572610851151
Ni 3.2878293920110124 6.381730442971549 11.588911773407954 0.05108113494653138 1.6669279405421744 -1.5495971904387893
Ni 0.45983906609085 1.0690143436697468 6.737628249767491 1.4094923798636823 0.15916208431687429 0.29048040694860294
Ni 6.0203015616558995 3.684890528924509 0.8696772185235425 -0.2835091178370924 1.5996719956079934 -1.266900026980031
Ni 9.248983463106798 2.41766301179155 13.37931639462124 1.6340072785547535 0.29019552871833243 -0.9944515378324743
Ni 6.013057487685785 7.291552527089269 8.009770721726822 1.0916299813577006 -0.3180223211226136 0.037379726200038856
Ni 1.2548677826787933 7.761959912950181 11.675589545598566 1.0203443464388362 -1.5152541941825455 0.3009653656403268
Ni 8.37482164002753 6.748629720352259 12.999623298456969 1.0975586881373098 -0.7674863778286977 0.06688570607895578
Ni 8.070719895632596 4.364573237288047 13.295985272583058 -3.6198885366742433 0.18077554882159189 1.1944815640083042
Ni 7.363871909881127 -0.14381167157114716 3.638151315582277 -0.6834331588315197 1.7140223229268159 0.9994204518019755
Ni 6.213735139922335 4.454087960612059 8.229279232226924 -1.2170198543201363 -1.237083972059863 0.6093460499081184
Ni 7.278007228982779 5.191797941911467 3.7998799345385295 -0.7760517509002054 0.20560186383665235 0.1112356929492407
Ni 4.492828820117184 7.281190514065008 13.618677028452328 -0.7119284380577352 0.8692403565397483 -0.3709001429582515
Ni 6.431085364466393 7.453900066282918 11.793937737055948 -1.2876426588440213 -0.0025261088559633913 0.7807707536424295
Ni 5.120356062925268 1.7440014731583262 10.780407772315035 1.3426763506803971 1.2715256986775005 -0.7745173165335499
Ni 0.3682902142641475 8.745921733499157 9.461689452083675 -0.39576990961673775 0.8606297320526015 -0.5180682881380433
Ni 4.069554590796365 6.230267685026811 9.398607197118402 0.8558341104361712 0.39266093167411087 -0.08585016299660053
Ni 1.8537828003342967 7.371582741194677 7.708557271773067 0.1067185218051775 -0.5062036754899734 -0.7032640775145178
Ni 0.5877165754718047 0.8327333747906427 3.7770349631214346 0.8930238321125911 -1.225291093189993 1.8973080397647712
Ni 4.483531013835955 3.1342475557270792 6.572361610147999 1.9033128511979545 1.6815696017147492 1.9586031391298269
P 9.039530772813665 0.34100638051098353 -0.027916756710862137 0.7350925348790244 -1.177068510738179 -0.8508184023891348
P 7.773264775808182 6.600452934105306 5.323296554762793 1.0407751034893624 0.6463141424920352 1.3394077072314545
P 2.1747251496803726 6.939514803523538 -0.05122568492733151 -0.8418097711326213 0.9858095458867604 -2.0978530579038064
P 8.78639893032186 6.249059335673515 10.94870740115217 0.16669901612386775 -0.15115541196231386 -0.35581856603478074
P 2.4761570420708554 1.8941293051008394 3.670710440830946 1.2193770416984033 0.38948407660802603 0.746682810819785
P 5.06995560498113 8.298068062473037 10.240339653490475 0.6905227186884494 -1.55182993642405 -0.4167411125517662
P 2.2537565030708286 2.7422087278289458 13.66015775356342 -1.6553263517475039 0.23960676002718737 0.14005158873966847
P 5.801803114046991 2.098643702700427 8.27390216777402 -0.6187699143251795 1.2081294938090419 0.6216343803571681
