# total energy = -381164.2451941774 ev
CRYSTAL
PRIMVEC
9.30021307947554 0.00000000000000 0.00000000000000

0.00000000000000 9.30021307947554 0.00000000000000

0.00000000000000 0.00000000000000 13.61180192176180

PRIMCOORD
 96 1
Ni 1.1991880949854705 4.018612838757944 10.529708865172136 -0.43371142185751754 0.18216111631520884 -0.7668919387778083
Ni 4.902877113169838 5.151555514868405 13.283294609387983 1.377805847393679 -0.8745414570376874 0.2883186234105938
Ni 6.89004437494219 1.2341103956840052 5.6378311141956825 -0.18257917768923396 2.6333441695039874 1.10647655945223
Ni 5.296471437500779 7.4514889477437425 1.1111439063082518 -0.09982565134008614 -0.7680723322391545 -0.41544656211005876
Ni 6.201233381883266 3.0197978379269146 9.123976984550607 1.1486706763217767 -1.2572347359761251 0.33743106466652856
Ni 0.5319201158647842 6.41130659844212 4.951415856066169 0.2114161565255843 -0.8580288040946449 -0.07114396713467748
Ni 4.262501630640332 0.9092167465221925 11.250058741354596 -0.6535183735499583 -0.584869919143625 0.9175886659361487
Ni 8.872970739479246 2.1315158713973723 6.464489867828156 -0.229850709081688 -1.0224858182618712 0.7188452197822266
Ni 2.0022708080664713 2.3848908807797624 12.226502079248121 -1.0806068907743196 -0.810173632284579 -0.7277016417315919
Ni 3.075766521176923 2.325285814154754 9.487997560814632 -0.3783630269942 0.7401552941139123 0.7740853712024539
Ni 0.9563595274119054 3.5922724636255285 5.385999940210351 -0.34171992184986955 1.7506715987187333 -0.2438657924138574
Ni 8.979272176758673 1.7325646242429018 4.029787974981475 0.5430146736707357 1.4064034565257135 0.7394965774839909
Ni 8.620776857177738 2.887009393353366 10.878007430961894 -0.9950400633460929 -2.3005215501437477 -0.5236187856426272
Ni 1.9414846143605797 2.2378173086768 7.023241098876768 -2.991266155035016 1.9218319930480643 -1.2488136017919655
Ni 0.26748064279636286 5.616342971515532 9.149254034102816 0.5158617674050278 -1.0662511362732798 0.18543001687446775
Ni 3.5724258085814076 0.9755086664633787 5.295099656048573 -0.6007953321246299 -0.5441575290259273 1.2494802888416867
Ni 6.006905426331766 2.7377130702871675 0.4074395517743246 0.7192406554484322 -0.9859756391509794 1.2316437748808982
Ni 6.1674364069862015 8.439385498236536 11.50600153961125 -0.3690633468598289 1.7252523873146806 -0.6852388445816908
Ni 3.380794914868144 5.93747003431705 1.1373630674611968 -0.5165155989389427 1.4905816311365296 1.6184431055679096
Ni 5.374444425265496 0.5830219975287622 1.9595549286767588 0.6433010666973243 -1.0555959705522788 -0.6491418417488175
Ni 2.8001919028018825 2.1356823669267846 0.9067103390552804 0.27641313022225944 -1.6877798442905192 0.9938365299562949
Ni 7.8552112042879205 6.872048462331893 10.146686093225759 1.016248579102908 0.9220824400414442 2.575948662303654
Ni 0.18751275929267466 7.945441873096757 11.87753575814807 -0.9208218281614657 -0.550636966102684 1.9441399125166452
Ni 9.478312318751394 3.0391887825225057 8.543134957004197 -0.5267565599406605 -0.2618277762089168 0.5047096074429502
P 4.534402664787432 0.781945188439821 13.524809056831401 -0.1252849719534552 0.3246118014146732 -0.8138842483669466
Ni 6.3492090746700525 2.1033269250811917 11.466949944236246 -0.025845500308194196 0.07176257455528286 0.07116607862186454
P 4.077222782566776 1.4241416527207975 3.3139022011519583 -1.0646105153460632 1.0339210566820065 -0.6841417548627702
Ni 2.6252362914195038 4.178781111096203 13.541647092893903 -2.5266516158407386 2.359862096885594 1.4525807264127242
P -0.06417891149412709 0.17577217010443763 13.34653512936667 0.44130491793405935 1.9439401378010135 -1.4045183236878587
P 7.719539693611429 3.625055715279945 5.031072182426476 0.563889460237216 -0.1552997731479906 0.5589750536547341
P 3.551305024324052 1.451567981551684 7.5937384992415575 4.727002729710471 -2.2008956735192933 0.8937591676167188
Ni 6.909742226574546 6.716800002795106 12.713545876188634 -0.736121747474487 -1.2406804311618695 0.0132676636431836
Ni 1.009287040933972 0.4939175845427197 5.673113333146423 1.066791582157782 -0.06893358974692 -1.0921174625170802
Ni 5.279293943655188 4.3655758939271125 10.714475271496427 -0.9965266751939484 0.5733999708308124 1.3467091259888742
Ni 2.1266053588091363 4.397912735346235 8.125824158901931 -0.9390383511694924 -0.22479386338407092 -0.3956508675403702
Ni 7.082149579530453 8.48041803903066 8.934718575233667 -0.3925200352208724 1.5171002462523486 -1.3205988020550674
Ni 4.122905429978548 7.077620375684865 12.4749991267886 0.9205397781446728 1.962604032759104 -0.3396512122462989
Ni 5.360168597949317 9.180705495221938 7.182539801277527 -0.32646890922807004 -0.6856471357637031 -1.3422613746301657
Ni 5.272774494177246 6.977550081273085 10.018000902731622 -0.21025581766889595 -0.517837917294792 -0.21442049056954687
Ni 6.725709607074519 5.34150306998608 8.909550338176311 0.09350819376249056 -0.918301118622141 -0.6788717647130824
Ni 2.3403614598091678 5.817562385074385 6.176981215829586 0.864031558645299 -2.71824251011028 -0.8724506359469297
Ni 7.805064454523206 5.497672250633162 3.7964000538630582 -0.3324626649176597 1.959643150358567 1.650689624306441
Ni 8.210739755846795 0.41445377259638444 11.033400043803828 -1.0295064725540786 0.26370982372297813 -0.5067222669976047
Ni 1.9461068203385214 0.35951369293019997 2.984019917610733 1.0346725901360503 -0.6447938491927669 1.1145197414716805
Ni 4.411742152427119 7.077462272059865 5.3909950847390276 -0.6773455578765432 0.3687982661239003 0.5048685016183176
Ni 1.26683784605901 7.021419187103974 0.2932078226691608 0.11026253040269396 1.083691186126598 0.08950241503720716
Ni 5.198847099169883 6.510409670677428 7.58529948575185 0.7380246209241547 1.1328488787981714 0.12648002070282088
Ni 5.624973569397886 9.00634509748662 4.71300488977937 -1.3223839189799484 -1.601632204658158 -1.375165067336722
Ni 2.214501674095914 2.6383030910150937 3.7906822827659985 0.4886438122293391 -0.22784910527062696 -0.9597976952040308
Ni 7.028784955986328 7.536148788824638 2.640008750122447 -0.3587205701729242 1.1329234407898487 0.8323776791854439
Ni 7.414250893949619 3.6712591746328926 7.231024602937094 -1.6790226669231791 -0.5848069271161734 0.34524490428399246
Ni 1.026910945014857 7.7881194660084985 9.927182460446312 1.1641075797021372 -0.47506838753774955 -2.5230651840410614
Ni 7.624686818824651 1.3072100717134274 1.8946543206355728 -0.16127090312976095 0.7638027583295233 -0.6086577655918421
Ni 8.304272000354162 8.907707035913075 6.446059635259771 -0.6642349886365141 0.11969102280544547 -0.20900960396662066
Ni 0.16204784543311207 4.179553028794732 2.932349792918078 0.4274045058028832 -1.4790687454009237 1.2585238871011937
Ni 4.082142595368247 3.723275267257901 2.310140416901075 0.22916885252331498 -0.8554463880794493 -0.2683038708515637
P 6.522146539780371 5.425511896140503 1.2504304098693018 0.004265460144573298 0.4009594242374772 0.27420043884165674
Ni 8.022308135486474 3.73144085447849 1.145831841633257 0.3233735581321979 1.1842691422516765 0.17873075047742124
P 3.209243181529884 7.3802214137216735 10.176033846111055 -0.536145200244412 -0.16804293174627188 1.549004808270429
Ni 3.6738725345520113 7.3145433078540165 3.155420057473258 0.6648289134667711 1.1920837532000887 0.14761551712985543
P 2.379589759235644 8.24364391027327 4.7957237763580585 0.3257772824776841 -0.4963679203464741 -2.036814554634247
P 8.080332165861483 4.804146049463942 10.57946035587435 -0.532083885690845 0.8564558031805701 0.48155733769620296
P 7.878898847398218 1.2612484179045973 8.72907133015349 0.31684758408822206 0.4861408433018272 0.5127404481672266
Ni 2.364421111448877 9.365965742869024 12.659139628762157 -0.7328145374781251 -0.5570348992092278 -0.2905066322008481
Ni 3.0385749684489762 9.16184466278076 8.872730793977775 0.10390959160147267 -1.1806899095408505 1.0147640241375815
Ni 4.914641882912488 5.441759368662566 3.689220676454219 0.7369748395034018 -0.35672050902375985 -0.6631006179217548
Ni 5.33094732796402 2.4916852293606606 6.915625541467194 -0.8470396520729928 0.04999252986804294 0.7386221452988375
Ni 3.20045448002253 8.73701092219246 1.0834841421251593 0.2865687305990226 -0.5777893581477598 0.6223406623955733
Ni 1.188409147845763 0.7129729470442224 10.712651499680987 0.37056821354012953 0.921414210329826 -0.6460794007734099
Ni 2.090808838066484 6.424168793346533 11.974329587437055 -0.5107239319578301 -1.629751331491877 -2.3806137276106485
Ni 0.8616638262288031 0.41782881997947324 8.188057465787233 -1.5474307789150898 0.008663074991636693 -0.0891080078122659
Ni 7.069817496780452 4.388705524243293 12.65901686594745 -0.77767257433308 -1.7152371691705235 -1.3360593595845118
Ni 8.95055311828808 5.110829881111046 6.891519388761307 1.662270387165505 0.6289869640674974 -0.7045676268172898
Ni 7.198272041986352 8.658665925898333 13.651004580242448 0.15340589855938744 1.8411173515058161 0.9086160301238932
Ni 3.0226530033901504 6.559068386324494 8.218125985198268 0.07625789132247512 0.0013598564620041097 2.0398713391827
Ni 9.124597308773401 8.258208044199744 4.0010800767667645 -0.6313449227767127 1.4236830695417675 -0.13091465943540678
Ni -0.39613421256549947 5.6278659357140635 12.840476116445272 1.9485174727590506 0.01813630458939457 -0.5675062310541968
Ni 4.370021395853584 4.36657101674329 8.441590578794624 0.6504875571434345 0.16010285096358878 -0.6960151092615884
Ni 0.6401904082861235 1.8630559161473328 1.967314096578966 -0.4381733142836131 0.9135551192967235 -1.948362435238425
Ni 6.819548758618651 3.6685342121549516 3.0560268185850084 -1.3529705335175537 -1.3193687863027084 -0.6251123116034396
Ni 5.137651696081638 2.8661583152798333 4.564526985477878 -0.07342145031494451 0.5068071134019271 -0.286237572511849
Ni 5.967184215603819 5.20567345568459 5.793428331728793 0.7839378385165016 -0.8122348856889818 -0.3725284225902939
Ni 2.061317861897362 7.931947263692344 6.7770030731311435 -0.9819503200416703 1.5960603669973352 1.2873642083716537
Ni 1.4924982200002197 7.315417527898135 2.534803807983461 0.11611873207315486 -0.6638140990490116 1.6261985811436122
Ni 4.21425212437562 2.9492464203239632 12.787239835843792 1.243586034844439 -1.5219334059749339 -2.3788445515253676
Ni 8.972343517898379 2.760275387595994 13.074163504429865 1.12519161936323 -2.0325308396572286 0.010957527452768226
Ni 5.36496750797873 0.8718494197640988 9.200598651332236 0.3658003598378409 0.272673203563853 0.8671780746940807
Ni 2.4151351742209433 5.034828538552212 3.740781988652021 0.1894885032145575 0.47747699697924223 -0.3709914171204772
P 6.895029289236309 7.1864607711775275 6.310553668378869 -0.3602727451513924 0.402834529773003 0.45740259482687035
Ni 8.701102798890986 6.3540172849126995 1.6302855291877398 -0.4741988404486026 -1.1708958062685642 -0.3543419814892543
P 2.9652520873019066 4.19521458788297 11.390546832465647 3.027666548040921 0.7360458999312292 0.20525733601304008
Ni 8.97384085222926 7.2314366023834165 7.762647111978348 -0.08929724100493654 0.6098803251450335 0.18836261714023045
P 3.9927954468167637 4.061989033287363 5.990404057988382 -0.8511264205478568 1.372983743414687 0.5521469749893072
P 7.407210632530502 9.736579240295551 3.8270944776248275 -0.30312663495770376 -2.5534317121480603 -2.101054852670556
P 1.363057852191377 5.231081638243417 1.6838073263355418 1.0878967395675134 0.2858171971449787 -1.1939801988918533
Ni 9.127480374876344 8.70898007950128 1.6198181391914146 0.043433645703602614 0.25100034657610965 1.0064207943792087
