# total energy = -381166.2291889644 ev
CRYSTAL
PRIMVEC
9.20524477361766 0.00000000000000 0.00000000000000
0.00000000000000 9.20524477361766 0.00000000000000
0.00000000000000 0.00000000000000 13.47280620658759
PRIMCOORD
 96 1
Ni 3.4426511583743253 5.3837335508920505 7.261505950557504 2.108245456881724 0.8559179283992291 0.6818113069573806
Ni 0.8193965968871944 -0.07380121055230243 4.655716500364809 0.5277947713971879 -1.014573248283014 0.5944953580485309
Ni 1.056329476819922 5.736082712868088 7.390252347851682 -1.6036114398717156 0.1683748611643939 0.0018607073578226017
Ni 8.347316144940049 3.2587395689833274 1.2942316690487041 -0.8964624254804949 -1.4222381095651246 -0.00812597154124407
Ni 0.859465187222103 3.479711474650824 4.991392202114413 0.5081052633880604 0.27417832735446973 -0.5745420548550556
Ni 4.8019528631148605 7.688285041317758 13.275160858881788 1.8526160961740352 -0.14940629048169107 -0.19024852130903364
Ni 4.3422613394646445 1.1311865289710605 9.637247123535602 0.11613493002307096 -0.1266725963296012 -0.7982419138439995
Ni 7.9453967387640745 0.8262047960720177 10.608393104389439 0.35691308465054017 0.4555997372901767 0.8168109350954385
Ni 4.735757946486868 3.3118354220093686 2.2397732609996397 -0.9140618837298129 -0.3763339123793132 -0.9841337008462341
Ni 0.8673439563977251 4.554405415199413 1.3699153521987573 1.9299762194217536 0.5002842246817448 1.3093684805568868
Ni 2.740788049875099 8.959317651975992 0.03799648969063634 -0.6312004267790483 0.08885603970245988 0.8533069731389433
Ni 2.7569524600543165 7.68031329916787 6.3103933443466245 -0.8471512379501928 0.3611464060055974 -0.06793420194812816
Ni 6.6538916632774905 0.5404242836700306 4.04464472307152 -0.1346008500377424 -2.607521809124245 1.0842018072144297
Ni 8.798778179581026 5.818920712414091 5.465742157865646 -0.27213095790713776 -1.035431322678946 2.086282579457388
Ni 2.875009726881463 6.771028405606961 13.049922322167555 -2.881360750861425 -1.355036414907647 -1.2330067166666958
Ni 6.287071856197964 3.8299066093022955 0.048865122434715205 -0.5726823759384976 -0.38537622508723957 0.5523524061318938
Ni 4.731928564576529 3.3629797631003338 6.060526174697029 -0.47094613783925987 -0.5037654983621259 0.037760506578225286
Ni 8.560546439582076 7.899379719125173 8.051645517335013 0.1270099250643619 -0.8388692004470585 1.3151375218301804
Ni 8.507340123616313 4.313633027586873 3.701519216562212 -1.6219804292972066 -0.45595146420264054 -2.0607728652220576
Ni 4.037687398918073 7.735056891044754 11.013548154174748 -0.7931498440330728 -2.956471415953334 -0.11608916438680007
Ni 3.7978907672730697 8.173714429923038 8.55713221422019 0.2262298244996491 -0.8851832530222496 -0.1938110418493114
Ni 0.9072753885824797 0.5825410410122717 7.193104536708578 0.3691037131794611 -2.9661739879530784 0.9145516788820379
Ni 2.011300001200569 2.6828594432362505 2.7987194180874404 -1.1715604364357566 -1.2576427700478212 0.19237688050594612
Ni -0.07876928126626818 6.449203835973911 0.3950670218152613 -2.007998915954136 -0.7278754483052948 0.47239752557380577
P 5.706138050958637 1.3951561339250755 -0.03518704892372445 0.0542487340412356 0.33698729226089064 0.6972232706370767
Ni 2.0834967375534195 1.675050812688912 5.673183273941781 -0.08511662726468566 0.09966778560598319 0.48625577161313677
P 2.708652539661175 -0.022332844838155105 10.261239382678294 -2.5024061130298128 0.6114661815749147 -0.08353617015144323
Ni 7.374607113489155 3.932020391829666 5.907084866703656 0.7097931368822872 -1.8137235328738959 1.3089799868692165
P 4.316725989899069 9.028743609590833 4.386637984448684 0.1290727211306616 -0.9542202011162535 -0.716930776368333
P 9.096300902475388 1.6733294318782552 3.5690677081648814 0.10013341238849206 1.687251996811507 0.3468767834604607
P 0.5826340139865371 7.616723466868304 6.3275031331849565 0.3647570061749911 0.004424868540573025 -0.59204612517709
Ni 8.048246940889587 1.1663689752722965 13.39252220918869 -0.847707624674295 -0.5710450974453907 -0.013538657916383133
Ni 0.23501634792856294 3.7091798214318845 10.395402146116806 -1.5114168227143259 0.5917026257947422 1.650037592544739
Ni 6.021749080232363 2.0001064233088095 10.687155941984223 0.5268444916687764 0.6448290733060765 0.43581844089819133
Ni 4.7100569025117105 9.13846092446902 1.641527151532491 -0.7726064726640823 0.8141035634666044 0.6866778910210626
Ni 5.063354204720355 7.089152466759346 5.340068471344716 -0.9744779229240251 0.09210925653243492 2.8248131934836835
Ni 6.315433215971409 8.958065738659151 12.099321527577384 0.3011214316022169 1.1224698495566927 -0.7224954149403041
Ni 0.4361905332245083 8.868784067629404 9.778832075998888 1.499775638930972 -0.5586819478943474 1.4149914553050404
Ni 6.711893911876153 1.4991109654478016 2.1036166414991575 0.007986617749902374 1.0688309811853143 -2.3343261573980185
Ni 1.6865665741548583 4.101958419345919 8.85005783777315 2.2023881989044196 0.3502161322463388 -0.08469676611844767
Ni 3.2955145226655453 1.7396256062009927 1.1086033014695371 1.7248204419835844 1.8077981685283961 -1.7167492349396756
Ni 6.708662870889305 0.32805928205581925 8.508144662027282 0.9425576771766605 2.500753150807422 0.03423758102663136
Ni 5.4721407236490025 2.741450827513427 8.058732635442633 2.0653401728777654 -1.0984143512693856 0.8065931140221722
Ni 3.0893906771455883 4.958138254635811 11.30818503276889 -2.9160693579872037 -0.765081882152263 -0.6530414339135399
Ni 4.357762972005534 4.529726153416678 4.158085559542813 -2.137603084108235 0.8967159362521975 -0.9235011747658418
Ni 2.053561280888945 5.648227854809742 5.337386983482982 0.6104202568089035 -0.8087376711690007 -2.293646677400785
Ni 0.9571245517052122 1.0313832629328603 12.175496770809197 0.16254797006997165 -0.01582951083308887 -2.5257291040264698
Ni 3.775089375465597 1.8246912750313753 4.401404117915929 2.0286222486314416 0.8194442589532274 -1.6560730001055415
Ni 2.3577578063914695 2.6345319071081787 10.6671483420272 0.47307423992585623 -1.3538701625136877 -0.11684455449558585
Ni 7.751175274999087 8.62436640300606 6.163378217871538 -0.22328719693155738 0.704621877093993 -0.3560211689638901
Ni 5.586617150180183 7.465554933859697 3.2510688383441804 -0.7045450011094705 0.784500395888191 -2.3737884771586986
Ni 1.0181645311462106 1.2090536962296046 0.9634292239898057 -0.7089197331383985 1.5027339502283474 1.7147648575197953
Ni 6.416387137631706 5.425240000492331 4.5039588316776875 -0.07479956160939377 -1.5126674072919755 -1.418991320493053
Ni 1.9962954518884246 3.0073903548924714 13.041003360309558 -1.0646873913305859 0.5552263852455793 -0.4078096143900912
Ni 8.033859142990886 6.496380716479885 9.765454093474142 0.22579222274159824 0.6340186129541339 1.0969799328157042
Ni 2.8257340505207837 7.490878562790806 3.7043617962110402 0.6192838778471205 -0.5944606481558536 1.1072090667428802
P 3.5192940280509584 5.901353681181115 9.43351111856262 -0.2553228852108635 0.7132818667618361 0.31328197822415077
Ni 1.7779194253043789 7.3054112869987335 1.6268954146419063 -0.4633999500608858 0.12425910179210213 0.21709186675412287
P 6.6047724760814175 4.258723741300407 2.214107196955394 1.126704970683963 -0.3034752765463741 0.8944723916336594
Ni 7.85428322398395 3.044717623273297 12.034152995764304 0.6497892455248294 -0.584445944232329 -0.5081973088812344
P 6.432763268445389 6.747232847341995 11.73211970283132 -2.206552871805071 1.2472058909852133 -0.7029010377481443
P 2.2524774195920876 4.66015526949261 3.054245051824259 0.7919241991560877 2.9447073334388705 1.4543077364061598
P 7.7460203378120935 2.48185371392338 7.930390348402936 -1.6438728584949238 -1.0903238609517674 0.2762490938405694
Ni 4.1768983187018485 0.2677962252908606 6.621843602890848 0.7136868155097387 0.510167802344044 -1.0882579795616742
Ni 2.537296904418499 0.3474998389222715 2.6254859128695016 -0.5583600457785545 -1.0746172488497878 1.249648438988435
Ni 7.961303402083943 5.453721028450476 11.896730655079514 1.5234444433028214 -2.2112831874012047 0.6594910461936255
Ni 8.673826184266275 1.6212461557996594 5.910250550451169 -1.0637934187614067 0.6448151893490056 -1.9146915253485413
Ni 4.89581874614304 5.339216986184364 12.312919111493986 2.678994620353251 1.2086020625700862 0.6023300236016013
Ni 8.772975877911126 8.989777807604142 2.696595509790595 -0.34934992759130157 -0.36423558645388243 -1.5593848659531724
Ni 8.27391352149524 7.826069148130133 11.83510614258249 0.9255847967677479 0.9453272695019977 -0.5407585306467074
Ni 6.122123071459123 2.6963359218822496 4.053819590739871 0.5622292989259736 1.630145224496186 0.7674892060421751
Ni 4.117285152232251 0.5415878266350951 11.932501316534767 -0.5119981706845634 1.5847503413011546 0.4443797002046411
Ni 0.42193621137797144 6.541486416866086 3.575534392761066 1.888004502975658 0.37136602685107656 -1.2454428855475197
Ni 5.926124995413619 7.861325236391184 9.76727304988155 1.0994841872947967 -0.4454767899235619 0.517473849087154
Ni 7.940297033046941 4.749768329341521 8.482411399694708 -0.36279448313198165 -1.475282538885614 -0.9358293573138916
Ni 6.194025239972716 6.167376055764952 1.1878972816994817 0.9507841788515109 -1.099360517232739 -0.28329108828901534
Ni 4.34918368368718 2.7771763832682925 12.26288124084923 0.1690981124836636 1.6267889064294434 0.26678229200071474
Ni 0.41001357808405176 8.479503462806544 13.552295805201588 -0.00538620401257782 1.0960365950658286 0.28930232748010176
Ni 3.411316504473382 4.697178764789201 0.3511607648495351 -0.4518078743479122 -1.7060220783301587 1.4120100040792134
Ni 1.0302694282906704 6.5887461445768505 11.208162681900244 -0.2242919840469879 -0.5995907702935674 1.1360013083842244
Ni 7.43088798127716 7.316402349501002 4.459256321021471 1.3943274991977856 1.633108163779252 -1.265448125024853
Ni 6.3551354375562426 1.226672535115153 6.262726744807885 -0.7846250943915132 1.6218361904098584 0.020278547743377978
Ni 5.627856647676138 5.669004092722324 8.872045485924676 0.19173281916404397 0.5024282676079411 -1.7705750225108798
Ni 6.252671855719754 4.29965026046715 10.593074656223587 0.6963753208144846 -0.14034880826511312 0.2920806615561873
Ni 0.2536763000209846 3.3413290269149574 7.240245516759144 1.4765511211853926 0.9508641401598268 -0.35055757474615756
Ni 2.9903698569304136 1.7240687421902419 7.92349193781734 -0.9479099426275094 1.5647376456246536 -0.19229357676352044
Ni 4.093811777541473 3.7974581207591616 9.369097416837633 -0.5885494248777413 -0.3992604392684995 1.171634998427434
Ni 1.6941240802807913 7.034988805315999 9.097660517158458 0.44920566083837477 0.3135637711306277 -0.4049410345930445
P 5.808923816369312 5.185912836341145 6.6116313041136126 -0.6697438342698853 0.4149318272571693 0.7995418636023456
Ni 3.9801454125682487 6.572038624944004 1.6377815373514413 -0.43823810608327757 -0.29707734343983033 1.5475873590976121
P 5.848340675359865 8.09974108128967 7.229265500550846 -0.319870687185262 -0.0714283311443157 0.13175103929377308
Ni 6.746827816563017 8.431369236822986 1.0899746472100365 2.34988853061265 0.2003172183989453 -0.3454382512417212
P 2.5242346617964544 3.6720090422156644 6.536521107725613 -0.7590719285127572 -0.9984961402154932 -0.011914492049398836
P 8.00105164989366 6.971076789442246 2.3346894624796697 -1.2371834737522047 -0.03116614119015923 -0.8483447440376616
P 0.84941858285445 4.9582671280654855 12.745005946507847 1.213841970812787 -1.2128436114552597 -1.9799312111836416
Ni 0.6357289464880808 1.7925189438375448 9.027049844515107 -0.5376981465538287 1.0325198054591056 1.1775107404819203
