# total energy = -381175.9920253209 ev
CRYSTAL
PRIMVEC
9.15411305908367 0.00000000000000 0.00000000000000
0.00000000000000 9.15411305908367 0.00000000000000
0.00000000000000 0.00000000000000 13.39796977390614
PRIMCOORD
 96 1
Ni 7.245590470126785 7.348345391122516 10.205194002442193 -0.5790507413586866 -0.1696015344826434 0.3513294199151756
Ni 3.4575634912796107 2.4531924960181737 11.331266186849458 -0.923987370373641 0.9908285963679063 0.8889172661433853
Ni 1.0732648514230292 0.37472454044118975 2.166786840010553 0.32904926836073656 -1.1860303479171574 -0.4458020344734645
Ni 5.936506507811012 2.0988001564699568 11.104585627193247 -0.1741169058544937 0.7036960228456138 -1.0180776618918466
Ni 9.112617633751226 0.9380769072568861 7.040217939833758 -0.12530528366842933 -0.3371374446855097 -0.41589110584664507
Ni 8.337987418198463 7.122211332026075 5.697285728442368 0.44463861029298263 1.0984500896033278 -0.561430200063446
Ni 0.8882785312910261 5.009561002240614 1.4315458582709333 2.716759240696534 -0.4067757738089382 2.4057951119722825
Ni 0.6028706736253686 0.25293730263100644 4.810313489109123 0.5649595533729431 -1.4628152596565387 -1.057713274005598
Ni 2.2012438376159014 0.01088607145194864 10.975643534483261 -0.06346511043318102 0.6967944106297741 -0.9902207875805784
Ni 4.999921721010457 4.186743534650298 10.321140000600938 -0.6064013654574976 0.8834498152709107 0.1912574221895222
Ni 5.671449159264786 4.3539525668915475 3.781068021970474 -1.070820243701201 -0.46833852501308376 -2.0347365890592957
Ni 8.191759613478123 8.865941744568868 0.5510904321454263 -0.2832754045597315 1.567163995677959 0.6494038371609525
Ni 4.8378939168568325 -0.02958151689957285 7.774306418717844 -0.1731026056573664 0.20418904264952575 0.07692380704124817
Ni 6.545584585616979 2.019562152359574 4.051399055147939 -1.4956667589689208 2.2538619413036796 1.2452510812516875
Ni 7.250075985609004 8.638700037771715 7.430286604869428 1.0872843027944952 -0.47733532919505534 0.7174995043876095
Ni 3.4973747297126114 4.838150232027245 12.424325892718919 -0.1370958485454542 -1.002322713050435 0.06179466470929357
Ni 1.5330210342372477 6.626772415845143 5.156463465105932 0.022200190246123058 -0.15859515606981076 -0.33686310797820046
Ni 1.2167006516085181 7.7101708706126955 7.289446911195689 -1.0147884496176136 0.03993360297014412 0.9664697079075678
Ni 1.0768624179220336 1.5359869669234496 12.641533776005742 -1.3816697012244592 -1.1888781017785979 -0.13432368511695575
Ni 4.738333781378029 8.955551358967728 10.529517826267051 -1.0943404383103281 -1.7617494537994498 1.5695733764504
Ni 6.7122169087248 4.596408409875327 12.099559009813774 -0.2906799245539188 -2.2303088365740877 -2.3519914358882654
Ni 2.3582094171538794 3.2298549247077792 8.496081699897578 0.9718358573154877 0.9985138808273062 -0.6591434330462196
Ni 3.3624797171697973 7.0667099435185365 11.208607477459873 0.39351248104112874 -0.5108915678839459 0.3027494541239431
Ni 6.649502078992796 0.10522378533359741 12.01279449380649 0.5147633921345265 -1.5326124829553347 -0.01492653940284526
P 8.605461452637151 0.8579216610009555 11.205030050009974 0.5206144515986647 -0.31775569772478823 -0.6356826309201181
Ni 8.321253699215816 4.663517213957261 0.1454487896845499 -0.32921407607337494 -1.505960170475129 0.3652691699247193
P 5.446798066511446 5.696979981060519 5.327783609598334 -1.2348843933053828 1.202830964414264 2.7150029201270596
Ni 2.3832093003823283 5.798920185978867 8.09587119281548 0.5555205194472304 -0.054383974067519235 0.5186442152461713
P 6.083201172306032 3.2534176121592724 2.0130718860802 -0.8563717281071961 -0.8965241319563657 -1.9241686116010408
P 2.620035363730263 5.151046976308321 3.3682761016664116 -0.4480777178815186 0.19407123748923352 0.8399022696972632
P 1.3552664635561689 6.228861422006173 12.287211007718067 1.0096066483063582 -0.665012490232487 -0.04786854154650466
Ni 6.61011192976833 1.803863782344214 6.698275194277006 0.1900207215689437 -2.0577993844160303 0.7627151816922993
Ni 2.0494411779390895 0.8026793338977983 8.387691506798063 0.14736997677795263 -0.15507917249675227 -0.6131343133059569
Ni 4.098342263197668 1.5601995964142032 9.387582479045218 0.5790718244046091 1.539111460416117 -0.8008577542002918
Ni 8.911172218033448 7.525276091612984 3.2166382160277225 0.24378660243648986 1.0801898578415592 0.265111332056195
Ni 0.43205308994924013 4.43599172965001 9.263611069818593 0.5036518556023971 0.9501609434452154 -0.7169032655645072
Ni 1.7320955346287101 2.508693884525712 2.773433585342892 0.02916710848225944 0.8670400064543197 0.7157023032778705
Ni 1.2290403962412346 3.82294076670265 12.5758035813761 -0.2105895468592309 1.777720118196093 -1.5799230951158403
Ni 5.354249981766071 3.4044879427777626 5.8551941816429345 0.18126894351824266 1.2877475598530015 -0.32832113194546036
Ni 4.071035543435506 8.848457388301442 1.825526991300686 -0.6072092060707737 -0.6331873753020901 -0.0720965608559339
Ni 5.859145096912579 8.194817087296615 5.666537062106095 0.023781161579997753 -0.6319236780983182 -0.2828205764105
Ni 7.228984908729346 4.981119172438053 9.22056293694781 -0.6289283429154201 0.17882562418407266 1.012487826508895
Ni 8.044698784453942 0.8164791595905435 2.99787596431461 1.310476368909085 -1.3708592408725166 -0.9944068006374681
Ni 2.728749612438085 9.006869317729604 6.1459571955475685 0.027516717363030026 -0.29712028086262376 0.5055624423615487
Ni 8.91878844023999 7.746183152055654 11.966651355252978 -0.24689352349658766 2.408871179794445 0.07909021856494766
Ni 5.301851837643171 5.330220434539898 0.2088492624974082 -0.5883355090947222 0.21228287540125373 3.2631785691734443
Ni 4.481634138209896 6.493836383533338 2.5374680086384855 0.2510556252940773 -0.4471477498680815 -0.3044021592360177
Ni 8.675545343518515 5.546037808027235 11.211421451866475 0.07977978843280453 -0.3788677345447604 0.46534421827145017
Ni 5.22632124939054 2.635707205578342 13.33518670593461 -0.13733778935293123 0.8606994089482726 0.04838636172318764
Ni 1.9128435003356778 1.9384475550372422 5.903976451040374 -0.6900725185249083 1.2727708839385112 0.6168027632964797
Ni 3.356419694212187 4.865932965677315 5.9874857643834165 -0.19738050436812457 0.8784811584117258 -0.04984520565690125
Ni 2.822679968281042 6.60787832614045 0.5053015577738764 0.5566088674154027 -1.377468518658918 0.4622704644421329
Ni 7.674616294831188 2.0542562414975536 12.71975109649109 0.4343853079960906 0.7764294459545983 2.5616947234878014
Ni 8.850123436909124 2.511028183399112 4.894398596174271 -0.6303594189349918 -2.1389279735672453 0.5485700562713262
Ni 3.388889333835515 3.030450876240072 4.576170496348614 0.08961220114219405 0.6125337036074806 -1.6303462847633987
Ni 2.456185891044063 4.9651910154195615 10.456900992255218 -0.5074542600676228 -0.7948079484617859 -1.0907241817139797
P 6.042025971001908 2.8616947988631183 8.835211386459052 -0.5360166450863477 -0.13276508238058424 -0.1989077396459284
Ni 4.193837972402787 7.139439373123088 6.901374758255267 -1.0862208945269873 -1.8501853752453554 -1.165444810456322
P 5.51223166787247 6.218169417754679 11.6355077170725 -0.9997786064723427 1.3367275892961301 -1.67685625539948
Ni 2.2860017720033823 8.67512425430998 -0.07275963817820667 0.05916262640308521 1.1589417192304814 0.32258731478547664
P 3.0517891141769136 0.6730470210503464 3.503702968187832 -0.8903303444408279 -0.5180762585578432 0.8587042328951148
P 0.48626100225751817 2.878382747279619 1.0414469846616072 -0.220519147268117 -0.7495033109877156 -0.8434501349495216
P 2.998585408089859 8.115579083186232 8.922847374045737 0.5655923018609357 -1.2693202063857494 0.33982476170968573
Ni 6.513179024786254 0.3991815847551581 9.392258400082602 1.745793958911458 1.6483545484153612 -0.23215724572767757
Ni 4.999015463800784 7.88087677410743 13.21905396386599 -0.3493293587660113 -0.06560375404273863 -0.7598484016674656
Ni 7.465499732227493 3.893702061962962 7.150040751653614 -0.5284966825602188 0.8090765425656582 -0.914866124798663
Ni 3.251330474343056 4.223826847341051 1.5044043608720135 1.5111157465341396 2.873665439099696 1.9638867561262694
Ni 6.8138733361330495 6.5520290813302084 3.969162163543729 -1.2682966502172415 1.7186104565181306 0.05224095958258745
Ni 2.8384250430349534 2.61474428628389 0.3027311015402519 0.09698535367781361 -3.118789786511003 -0.7037538726667428
Ni 4.898365988847727 4.63126727305143 7.892837538452466 -0.2168195869293427 -0.19941270430680494 0.11169823440795602
Ni 4.301078408880737 1.9969514926838985 2.3220561623671943 0.30305824361361355 1.0906293080073282 0.04621120844873977
Ni 8.06404142570686 3.262315410217878 2.5873890497216143 1.6897688496960899 0.03674003573351092 -0.09638242998649207
Ni 3.505045876598529 7.691789411248827 4.455347186661446 1.4710746714518537 0.5720658254004213 -0.46509096461006355
Ni 1.1975227843937244 2.254017300381192 10.208998451900172 -0.18119540996782987 -0.6402797633724973 0.8746029064032422
Ni 6.695181104005597 6.310616807254536 7.223689254226358 -0.6227929194416436 -0.726989960376548 -0.4183621930949569
Ni 1.0107697204085209 7.046680743773445 10.221699784005436 1.403811527428821 -0.40422883901736834 -2.4270470793725236
Ni 0.3697080863916877 7.124280161615833 0.7721650128601885 1.0691734521263974 -0.32486556929669214 0.5639478242789772
Ni 2.0153878767271416 7.2683842120670406 2.6902986752309155 0.2645068657029767 -0.5240450745467684 -0.2476615120108638
Ni 0.2028112094115477 5.280925534801635 6.817718063689237 0.5777826732795404 0.08025595673827468 0.4527280721693364
Ni 7.2847609206337545 6.703630350515981 13.362277388624568 -0.5329794009219209 0.3235738470684621 -0.8366063725548109
Ni 1.0509837398235986 4.220769373522559 4.803520221681868 1.8833446356061434 0.8007556814047887 -0.5468535878008517
Ni 8.258236783747254 2.544138610948471 8.780212558767788 -0.6600294351955986 -2.372988606965223 0.8803341524600645
Ni 8.33941545986219 3.2439705673069255 10.939763987682126 -0.2600935671266295 0.21422894338403103 0.34156257033639886
Ni 4.505883384153566 1.0800297410992739 5.254723716506215 0.7064005662609705 -0.8066316805695914 -1.567653533719868
Ni 7.770752791962339 4.441282807096383 4.827784114206705 -0.02288538923860575 1.4686274954629417 0.1517241399815903
Ni 7.945944210939293 5.639492149982283 2.3641659986320014 -0.35817498208209925 -0.4545941788437977 -1.5087665295756725
Ni 6.28670626350034 0.9337744740392474 1.1448967028514208 -0.4111903579368661 -0.5921371422289996 0.89207020995007
Ni 9.148428524703146 9.039503731391056 9.27651287700357 -0.9514251548696194 0.2606980334798478 0.5191170411175318
P 6.322041140564351 7.565508419254519 1.6048359679302198 -0.33066546380792083 0.7849223139169579 1.7228967425983104
Ni 3.965873090660543 2.076400041398549 7.1316455611199014 -0.2349345513624986 1.0341177460738449 0.6834290450664617
P 0.5357939089397366 2.9948230675527325 7.276719032162062 0.42211574660011814 1.53795369266259 -0.8262687380742285
Ni 5.084725425964083 6.822423277888952 9.000943860236461 -0.3481322531341166 0.24540845431062897 1.7738557501446808
P 3.9946261603128894 0.6959313887115693 12.455530433893996 0.020425357733887404 -0.25586358820568195 0.5275839409379623
P 8.515687064200167 6.842479939973733 8.443949940469642 0.4232478033220323 -0.10665861510151954 -0.2765306296367302
P 7.63551907723005 0.3526329189855997 5.228383671101038 -0.1653540720601991 -0.3569066568926369 0.06458379741865651
Ni 5.814619490166634 9.09522481861609 3.5470724104329525 -0.08912137754870458 -1.4459375100645937 -1.5111602266188298
