# total energy = -381164.86690246064 ev
CRYSTAL
PRIMVEC
9.27834540989067 0.00000000000000 0.00000000000000

0.00000000000000 9.27834540989067 0.00000000000000

0.00000000000000 0.00000000000000 13.57979637689719

PRIMCOORD
 96 1
Ni 7.969078180527102 7.766105094011704 12.69485594357989 2.656045210645929 0.08400282537521662 0.9583087693633301
Ni 2.202688503924035 3.971920540361332 13.44974306262366 -1.0223014701652071 0.0689317899747071 -3.2058959334018917
Ni 8.854408631350509 8.850548839615712 9.632258727712662 0.8622063325111022 -0.37887184830981846 -1.0394458431549776
Ni 7.751120566002818 0.6771364392859646 4.058363174198842 -1.9966660074398197 1.6120855387809978 0.4807983480429913
Ni 0.6887427216923511 8.622867518990306 0.8910468394960219 1.2691607979897497 0.10687741598054497 -0.9161167093763125
Ni 3.2111889914768215 5.535562996847623 3.6494479306028165 0.5473942907956703 -0.14869538045759553 -0.4348517061095479
Ni 6.241793544169167 7.554874279986764 0.7302753797271325 -0.66021995393985 0.7587405133152675 0.9166106182935956
Ni 6.00269058021315 8.176606934691023 9.870175919111691 -2.0980181227267614 0.5606028190661443 2.554451668772143
Ni 7.9062452246904655 0.7146348726902425 13.506112722973615 -0.68199796904689 0.00545562379793254 0.5206283355557356
Ni 3.883052547005852 0.31203168754898125 4.220559787839041 -1.1324133339226496 1.1207400113497794 -0.016892661990280583
Ni 2.720531523881863 6.116174024223474 7.185124788484303 1.346142711962443 1.2770563986877426 0.10283461336973901
Ni 5.4481517037382075 0.30480478422630597 2.1712868713585425 -0.8391165405711742 -1.0923478333603316 -0.21100760823325596
Ni 7.188463137201081 6.508889276547974 2.7025834923150596 0.9149406867903404 -0.6587351418642075 -0.7598877395458333
Ni 1.9244865919621719 6.950018935776724 5.2235368763059515 -0.6788254848561793 -1.2689535670749499 -0.19067275333064582
Ni 2.7488768694342736 0.6008303979250534 1.9491085374588768 2.4270974729944848 -1.783168542905174 1.8137307319627476
Ni 1.881648470713242 6.774268515006259 10.281454357310729 -0.5837890273746204 -0.47912867365005235 -0.17797381770673865
Ni 7.341091920944832 0.019856587239513848 11.328198329412754 -0.6838833589950609 2.2169519556512074 -0.5115284301369964
Ni 1.338290000585486 1.7429372052439964 0.9623713371492115 -1.2005023162810875 1.8592505707714175 -2.3117264177206316
Ni 7.066276605096433 6.328740920002765 10.852199719899057 -0.5961141245988767 -1.279282202694468 0.20712601379066262
Ni 4.509814064979965 9.207867203795384 -0.1940176274230299 3.8689870382419493 -2.036522991535757 2.881849003351753
Ni 6.321967727775839 5.233821922310812 8.794398148219942 1.1886191916902562 -1.4602775808363495 -0.4634711696184534
Ni 8.640320086906538 2.9553757272458805 3.755492925012692 -1.702221987857778 -0.18970704698326682 0.3528862228793342
Ni 4.937749916884482 3.502213576942263 9.796722968997054 0.7834300456421476 0.9575518365926478 0.2086501637446729
Ni 2.5164450359045034 3.4040672380704455 6.641987142979835 -0.6857484372282577 0.13811092007352987 1.3514628386237757
P 3.321462127938493 5.187810606895295 11.997681989316844 -0.7038903982446071 -0.1458594536706972 -0.1961918833766621
Ni 8.630614937496448 7.92386480282599 4.073232650723324 -0.7218948052418277 -1.466720508248216 0.415539121823865
P 2.582024382013977 2.1792142897677014 3.7385450990925504 -0.41580394544947746 -0.24652585574452385 0.2981811180269704
Ni 5.38719297369587 4.4535037860413125 11.952787786701492 0.5913331582704655 0.3661621140526339 -0.37987226454987477
P 3.850541224316605 1.0877375582623088 7.389296637240411 -0.31800329495922003 -0.45528452004260306 -0.37434130742931654
P 9.013476586882598 6.516998550529253 10.239886441562984 1.6570309931434364 0.3246570528303118 -0.5322461223003221
P 8.61341288490916 2.5047543205539182 0.9144644557447061 0.2714293038544228 -0.481301512931655 2.9425203530898805
Ni -0.21411266814231358 6.3680811049920365 0.8622357209986907 -0.17343324952390776 -0.42312876124566484 0.3532839725383851
Ni 2.7010469982975542 0.5007411735021144 12.731208501312901 -4.377420117283074 1.3789492169695026 -0.9253454270634323
Ni 7.507350594252084 7.311735235731141 8.651429977827801 0.9753675246178298 -1.0330934185743885 -2.1741574861935002
Ni 5.319294041207312 4.260625539447689 0.7304154827444292 -1.218589255689785 0.42912200271462225 -0.055647157050659
Ni 4.256255438709495 4.8396221347036965 5.574601635607613 -1.6396709045984341 -0.8388190639354134 2.1389829951748967
Ni 0.38094567103702626 1.0083798690610741 2.8612357779680173 0.6898226072976313 -0.27776707314699256 0.3612713616192359
Ni 5.959434933415984 1.2611869493447216 9.641655836051608 0.8326067644771146 0.8675956218474735 -1.2198501246800797
Ni 7.133043579431997 5.793371105364576 13.167160843743533 -0.7630196003065957 -2.8934724465232944 0.7156737640327804
Ni 0.9142816723380343 8.48233769779986 11.685999167559277 -1.0817523172326726 2.3260891142002067 -1.2229238785093972
Ni 5.156793097834178 8.508446962082832 7.947209120145095 -0.5504683017353036 0.39377293379136696 -2.371397608329019
Ni 0.1629240359286797 2.9059499806803513 6.023495414364434 -0.3845984663809505 -0.4171756289860234 0.3040810284511731
Ni 4.317214168751832 7.414279510377702 5.461210047217901 -0.4975015197302851 -0.37426057479005226 -0.22321494893272528
Ni 4.631777916792221 6.184453368878201 9.882860345267076 -1.3828110139177539 -0.6305733347180108 -0.2659561965549936
Ni 4.9046818934642555 3.523219751191251 3.1180974952423046 -0.8430143329636836 1.3216305857536916 1.1030503073795004
Ni 5.974502966534517 5.5550289657409 4.5485799203817745 1.134977237995084 0.6884354971421176 -2.1553845764613717
Ni 6.243537873126239 2.3476255392347434 1.7352538073219173 1.5899586249749713 -1.1440223789164878 -0.8533465681276271
Ni 2.4583904280087796 8.681645837836305 6.633214467294138 1.3941238678274117 -0.5205455460339422 -0.5535114594370015
Ni 7.910429758518333 3.136173567977233 12.744354061240447 -2.101367755925284 2.2148081698353277 -0.8292278207025526
Ni 0.07567882520400669 4.859310783889366 12.20104012717117 0.3687545573701585 1.579830278291718 0.5146322658733008
Ni 7.480424835563673 3.094300394662002 8.382007236393497 0.34876808694590256 -1.8459967910853046 -0.32250426815336714
Ni 3.6224980482160625 7.7889483806729265 3.045894338268718 1.2467801163017043 -1.463697662261492 -0.9957748846295881
Ni 6.989925099842491 2.044984465182847 6.140431330741387 1.272734888494253 -2.0456275249401865 0.6753946047977594
Ni 7.993925589819854 8.804184947070574 1.8704402293295062 -1.234565062292751 -0.4841850051270371 1.1620643240198631
Ni 1.510523928405259 6.879401448051879 12.902680676965781 1.600001353922954 -2.1171723270577085 1.174024581705533
Ni 5.777393794385443 1.7492835935771713 12.633923192905 1.2906562488593643 1.6022053035528085 0.9802338515711956
P 5.1002879736396824 5.887472085591271 2.2551556921498204 -0.25388409588180794 0.011273516031290261 0.0659110008705123
Ni 6.989656027822518 4.2918750071467135 6.455903428807826 0.7265418170955358 0.5461475628727626 -0.9778419543002514
P 4.193320421072177 4.891441694412443 8.097292853713714 0.7778700350558668 -1.024764586993719 -0.1474831053170492
Ni 3.1962044634679367 2.110805048275745 9.36157227561903 -0.39222847212238254 -0.45156721909201586 -0.8080355028956535
P 8.03117814706795 6.296730627971401 6.756967184121945 1.403467513825841 -0.6366884464768131 -0.4690275806603084
P 0.5187522978184288 6.16446781263601 2.8852722598626412 0.2683714908647056 -0.16854455397303877 0.785790575454524
P 6.973762221953031 2.828772702675456 10.878680118002684 -2.9255981234132453 -1.9768520580376856 -0.5988731754012525
Ni 8.526985096424475 5.373191950311718 4.558289708964622 -0.0381014348574118 0.33766040706851524 0.48399448638278586
Ni 8.283948113969531 4.160938995220159 10.184005750021738 2.0270957846845863 2.647046092471112 0.18477001469296564
Ni 0.7802216414761289 4.993141639617018 6.950954193004771 -1.799258249378185 0.5065314911430373 -0.6589058631141168
Ni 5.569401122945705 0.11113231125648386 5.654531798727206 0.135189889771993 1.0589435468682729 1.4775497376532358
Ni 7.72965975282353 8.420107834421783 6.192930065341927 0.022891302775876705 0.09483076922865605 0.6694119048517633
Ni 3.8466814325818084 7.11020957111629 0.7648659796465903 -0.12762544716117374 -0.11532400408600138 -0.5022166658177674
Ni 6.155996683179594 8.11290181437585 3.867349875054002 -0.39432289275756605 -0.18534414202888078 0.07324738663092546
Ni 0.5221713681411991 3.9886401189817726 2.012810874270395 0.13851792570396143 0.45078971749604296 -0.9271020047432227
Ni 4.575012998923269 0.5179051848727871 11.238965697078482 -1.2350312032958923 -1.2883376280285168 -2.230243530553791
Ni 2.2328802402341976 5.596558840272025 1.4328047950222096 -0.6323342832731755 1.437935979916356 0.793062426525589
Ni 2.833801565945311 3.347293041855976 1.817886752490419 1.4494282968266716 -0.4913046468909539 2.765660594382927
Ni 0.736113314726012 0.679817881140186 5.248116141413281 -0.021205430433021543 -0.43858031991404467 0.3416394463209213
Ni 1.5164527911901986 3.580838276847707 10.900625260817925 0.22472032983365814 -1.0799885404640304 0.3212932785644015
Ni 5.333489909847309 2.7412222343832955 7.5609451014581035 -2.0050984544778885 0.5926449351033535 -0.055644585947497716
Ni 1.4163208863778844 8.156361584774375 3.4685925641292625 0.9735104168044331 0.870629780688107 -1.8521193590432747
Ni 1.2919817781134457 4.151048278899744 4.222135250907715 1.6269909951379204 -0.1283111603742887 0.8726159578802004
Ni 3.751986638242068 2.688474840122917 11.754467790462536 -1.1803322690911155 0.37543634026570827 0.5602786029575061
Ni 4.073444197001097 2.4639574353185827 5.3536174247759005 1.5350856270861757 -0.9387570724836477 -0.6273183181158228
Ni 3.7459464353109326 7.359964075725062 11.544755841598622 -0.5360706382527348 1.171889537640401 1.8419290487738342
Ni 8.819067413278779 1.7439763799418262 10.135226704138697 0.4038025501132272 0.7644504192158512 0.26660617143416665
Ni 3.132109652641077 8.492311919229921 9.165914236708714 -0.2198203214288795 0.5060355253432253 0.524526127948245
Ni 1.4779662139884304 0.7772126740251807 8.03929391589109 -1.6174349760183693 1.1350965371817676 0.9791125934825587
Ni 2.1831854216486937 4.785000514649019 9.097241490204095 0.7159483578504057 -0.15945853251137054 -0.7866534376754516
Ni 0.43887316559917605 1.788011407762364 12.49589759716941 1.2746372477232886 -0.4777184235660869 -2.0591399576043248
Ni 7.453935159114529 4.34290590748657 1.6927487786770237 0.5046684697923696 0.15445028066350175 -0.32410169454747406
P 4.108915311910056 1.9387288523297501 0.7631114445094509 1.1032745075751644 -0.13935816221706968 -0.6319483606886666
Ni 0.5475420761210723 3.152123043919817 8.452038332681708 0.8062305884764308 -0.1990856599846894 -0.033421255772923084
P 6.4980985607124735 2.7115686421130807 4.288554287286416 -0.15364681092559992 0.4456773359701421 -1.1674968078893442
Ni 5.864164881654231 6.216055413706847 6.767885013291019 -1.006893363140253 1.9886688481669557 0.47738238038290687
P 5.819285524391707 7.515942342200212 12.149137990187329 -0.32818100682317025 0.6146242675879221 0.40937233089152075
P 1.9169432970573899 0.9338376411828189 10.560953381975775 -0.8943368944970598 -0.35954563717738075 0.7157364989499156
P 8.332510974402041 0.828595223660106 7.554698919256506 1.261901545324175 0.3465487106970806 0.6723478475516356
Ni 0.6236207980168331 7.223535283252836 7.9898904373547985 0.22251329488001031 0.02352302282260465 -0.022572228873561126
