# total energy = -381168.5959198928 ev
CRYSTAL
PRIMVEC
9.24066401862043 0.00000000000000 0.00000000000000
0.00000000000000 9.24066401862043 0.00000000000000
0.00000000000000 0.00000000000000 13.52464585188643
PRIMCOORD
 96 1
Ni 2.8626560182867045 4.506690248622328 7.913432859055021 0.6915632441378219 0.4119748015113744 -0.8688696034638907
Ni 5.7417696589181935 1.0407205272089126 8.847471770067374 -0.7158809949475801 1.2472917658308005 -1.170181553810359
Ni 5.631685630286288 2.842733146992287 12.91576644357387 0.5352463425792265 -0.6312089114194808 0.6134834691152595
Ni 8.708281498391333 0.7492394946944495 4.605939598871718 -0.9908226828306355 0.7144051817330018 0.996536188275645
Ni 7.1938568194358075 0.6383395154432034 6.898976146685159 -0.12462882642669502 1.2944730515022933 -0.23716729734775926
Ni 7.728530871368211 5.278599863978462 9.864727479522152 0.15646319732847247 -0.2191685467774935 0.2124685090494986
Ni 1.006003353065534 9.117541260338658 3.2814438287459375 0.8487378657110222 -0.39125916623057777 -0.9816078491005868
Ni 1.9037523289445675 1.9970183493409264 4.000238108202114 0.11038851445759698 0.5277484915402847 0.21404022441199266
Ni 0.5650425696605897 4.6640495135910784 8.444369062453754 -0.45719536391207066 -0.471024299375363 0.41426308332491885
Ni 4.809479081509229 0.2894323773354407 6.235077879055858 1.4743919087505448 0.02741104502310118 -0.47696920410488813
Ni 1.6231410893353095 0.508357565309318 12.855770509359525 -0.49175150462038525 0.7503134655938368 -2.1501690936987035
Ni 6.296634561397118 0.19610167229202174 11.367085699601866 0.579727198600421 1.1508360594042115 1.8927834124215404
Ni 0.3156047096022205 7.6053713033663595 10.531966247138898 -0.22516795889403804 0.3690209236576677 -0.284574068766497
Ni 7.974517343472746 3.864528794604277 12.02243635315541 -0.5663484633006698 0.27794730747859875 0.3074753988447027
Ni 4.016509993203199 4.619278497161835 13.411403311005687 1.2419400146005835 -0.07269048568619094 0.908543782125061
Ni 1.2527845222625187 5.792815086112237 4.221380131437369 -1.5890623384129472 -0.17027567773153254 -2.3361063892268925
Ni 0.274800710170515 3.6840771106351795 4.179007067281271 -0.06161211638484227 -0.13702360054662208 1.9486871655676956
Ni 2.772781321529052 7.431036938876345 2.949062693895566 -1.5293381830794373 0.18930569777979012 1.2579479599930659
Ni 7.35581793500967 4.205130424029562 5.720181619995181 -0.16883406018899955 0.8697666613568633 0.7851948508520541
Ni 4.532674995412634 8.549138785296504 4.009651572482087 -0.32906520920033655 1.0805289863485328 1.1791063671038144
Ni 6.804815630026602 8.528328810270981 4.52765916306634 -0.3820975543359677 0.4922155887409975 1.121474318412643
Ni 5.037612591025262 6.7934680947995405 11.471198411243765 -0.08638443823351574 -1.1092250687316445 1.5049656677723435
Ni 4.789704060836664 3.4966302441197583 9.193810927686862 0.34637747522653894 -1.7144699519871958 -1.8993132431202582
Ni 2.7678930103441046 5.923588961139413 12.290102346755228 -0.5853435163459338 1.3579101369110163 -1.1723042565803166
P 2.80304449568917 5.176398121623986 2.942557266534123 0.7892983314974665 0.2966389703508311 -0.6110136674185283
Ni 6.1101025206044 5.7536531526494645 0.06978918977919973 -0.8544153757117736 0.10702139775757698 -1.2704234667522571
P 0.2500994915911523 1.250751576212068 10.873842164111261 0.6161201354071583 -2.3166703919894682 1.4200297890598963
Ni 1.0515967885788238 5.312069548499974 10.71291230662481 -0.322188022464529 -0.5458696266210276 0.34508523877767666
P 3.2022873780060923 4.655982414036336 10.199002950464989 0.06552147874157747 1.9076317902882827 0.5805813190706001
P 1.2247298667662987 7.6257839298456584 5.215658006123736 -0.8582375776713413 0.5619477631298129 0.5564510016812997
P 5.535684373385686 7.913528961959224 13.260563334394178 -0.11883895921779533 0.7954471247076816 0.2747244296659268
Ni 2.82111923421045 7.142986964855211 9.293866063825341 -0.5362742696231086 -0.41254944306792174 0.012096269042901748
Ni 0.6415478739373693 7.264917524562926 12.780789914620582 0.25617597723977814 -0.6330055983085873 0.4725512775428507
Ni 2.139925216023746 8.311635242620667 0.963914901356498 -1.5086546865881567 0.831654170755858 0.5657663655449546
Ni 7.783087750831215 -0.05558166908570898 2.7106230719701347 0.8416187381677377 0.8309499455999819 -2.2435867846299167
Ni 0.5574652252907281 5.03596775285717 6.1871604165803475 -0.8351588414750067 -2.1280396087895155 0.30288829369465253
Ni 5.89144993221456 6.703879858621724 5.488774143271536 -0.9228090337948237 -1.3843966132373189 -0.07193149603297934
Ni 5.680799758732404 1.9442264366762678 2.4545605799864556 1.4574280272026965 0.7248685431581711 -0.33399504240178607
Ni 7.630108560534799 4.537775841866492 3.1799148067208822 -0.27619124401944045 -1.5317115684076201 -0.7616700282572366
Ni 5.04033858686564 8.444303453740307 10.03012057765573 -1.3209525858500604 -2.139748669696328 -2.7330011564766927
Ni 8.79848885904815 2.560855936433431 6.262709312147028 0.09831281423998552 -0.054700476866673536 0.9279736087148986
Ni 9.006329870715138 1.9015160882890714 13.13876029584781 -1.3014086022798619 0.5358983743409288 0.934952611135893
Ni 5.396362884282753 4.217291137676804 4.381457999715405 -0.2973416528448105 0.09957214056838336 -0.13183794258062456
Ni 0.3171580651980421 8.004993052901776 8.30106207502555 0.09908645918121643 0.6730374174194925 0.25020587569927233
Ni 3.0412595694826647 8.419972785781958 11.284612774600626 -0.7780096459575246 0.1445988417907187 0.7602597781732713
Ni 2.4022861444982757 2.7691959439491662 9.632631573340513 1.1160413203225295 1.0169132092701 0.3092499742466222
Ni 4.802687193567952 6.414794930247633 3.2348514774687667 0.8914685718103292 -1.7206961354025656 0.30041514956381166
Ni 4.391218912956727 1.8528455117085083 4.517813235717453 0.06508027743910082 -0.1854863240336999 -0.26736721796990726
Ni 3.7839594463593693 6.881882766666415 0.9890236332123375 2.079522377915419 -1.1100524497289461 -1.4593987777758222
Ni 1.3680802853146707 1.0908511286802538 8.804260577698656 -1.7410991245389498 -1.6079594324277664 -0.8054667137272129
Ni 8.25972119302325 8.933827622024973 12.189046446720095 1.8182952114049782 0.712213830508638 0.07611725197955278
Ni 6.678237016394448 0.6165481819151449 0.618745611782405 -0.13110517817965808 0.9898806306323404 -1.264344864658345
Ni 3.1963641124681885 3.7560156788295376 5.209395608221961 -1.2637535109312492 -0.38078706305466037 0.503995612095061
Ni 5.797703397297186 8.15795376187046 2.039543884450809 -0.8900457233208735 0.4764187309180569 -0.29397685013763564
Ni 7.57887832006344 6.491714216265596 11.796088139898227 0.16017432763147252 0.7317840393310816 0.35097486478923423
Ni 0.6814259588497332 0.45829349661780955 6.4064081037231375 -0.16626784212372012 0.648805027234689 2.8725413527975823
P 7.020289430046645 7.443761333019395 9.721623786698993 0.45693465405151623 -0.8650553719241232 -0.27102821176126224
Ni 8.323204553780506 8.042916737406546 6.369864974399899 0.0459587261183015 -1.4714765348759626 -1.4259867779742796
P 0.17010491263869001 0.08263463661888852 0.9475894205049924 -1.2881293686724526 -0.7824681959495104 0.29252443396182526
Ni 7.226042051679989 3.669670915668576 8.2739314859159 0.8928063167851463 -1.4700531721658747 0.14291296944786355
P 6.269263715026959 2.2528553691262827 10.68007468351171 0.7649672109512696 1.1231550485491753 0.07518059909789633
P 4.168334100516404 6.354370229229918 7.108269790711833 -1.082550644764252 0.7058040703275521 0.22184249406523082
P 1.1176305725630091 4.704616027961436 13.134581667647748 -0.6481442537222386 -0.2961543174049287 -0.4583523603346494
Ni 1.7230419063872304 6.587743195157794 7.2137621334688795 1.4819609793470543 1.2902155617775197 -0.43955245401932685
Ni 9.017621961959005 7.163464275981569 2.690254800677392 -0.32623262484754784 -0.4428352385356567 0.2644330750422478
Ni 8.060048928213527 6.0926376658982555 7.690762430016382 -0.8059426249223669 0.08612372837296134 -0.557373256385253
Ni 7.585180452819838 7.565784299365765 0.5329238701962417 1.3293595789668329 0.40401518034466544 0.38999006971016703
Ni 8.253844130804673 5.166639980581822 0.7035388674803175 0.6139015304892848 -0.9418331403058102 0.17202248521931018
Ni 5.32132869369339 4.339073846762667 11.08999330479266 0.5358762628537416 1.3463370873614362 2.1740646693693786
Ni 2.954203275204046 9.05816999500163 7.397873120328788 -1.094293901343109 -2.49215949560114 1.6672346731493157
Ni 3.503061746170275 3.260161655796878 2.5094713768755157 0.024622940755002758 -0.7521821433714594 0.06396750399089628
Ni 6.916184110935838 2.2963142112865995 4.62339983324593 -0.6598427731060894 -1.02049552730472 -0.2180272340841987
Ni 8.152372400895587 6.085503873393946 4.833221119179334 0.14450062564995758 1.6729618054410802 -0.1666941310278613
Ni 5.568045178243315 4.730166463550055 7.143636583524969 -0.8739200214036046 -0.35604173778918036 -0.8851688548445465
Ni 5.849238579676111 7.759718111914897 7.5468067479848076 0.7578321425683853 0.5176725953615213 1.1819227535066872
Ni 2.4523890239780197 0.10841239253860352 5.254365298924317 2.6048326923278555 -0.3318522850271704 -2.4171799567704566
Ni 3.8339144752172625 0.3158856257837373 13.405588161235011 2.0196395855168574 -0.4540732733433212 -0.5576522210782525
Ni 3.264708062418795 6.118446840075113 5.0945849800227565 1.7015946386864242 1.0446209595980138 1.2606262781561774
Ni 1.6161366661251202 2.8615656199505533 11.820242311176742 -0.00991571645181518 0.5414478434042482 0.9387825264049445
Ni 4.96724493568807 6.018074749166042 9.16688270911587 0.5588107601627279 -0.3249121062639114 0.3040915699741344
Ni 1.2001127382281138 6.095437587049558 1.2785364043234098 1.9115308682323726 0.5055475299632133 0.23623912910653508
Ni 5.465982045846824 4.5438192360346505 1.8889737352241773 0.4994049074005851 -1.0842257184738295 0.12787818660192815
Ni 4.186944797541894 1.5299767162414728 11.073533834315102 -0.24396555121651534 0.769984461660203 1.0879227077094424
Ni 3.6569927248448564 1.9670878390799726 7.58073938976599 -0.08524389687116932 1.5457917006497701 -0.6678494454606498
Ni 8.710610145685486 2.2019208298986266 2.717047181489559 -1.6209604726731244 -0.43033762028927824 -1.2267890178917582
Ni 9.193684330591903 3.083276868079935 10.100665653739142 -0.5364457622039664 2.4226024133376085 -1.0304354121262511
Ni 3.834302583099621 0.6730779431134734 2.1759804382948755 -1.3443557952653493 0.0039019061575674735 0.6962017713510977
Ni 8.029684106750885 1.3476214555160442 9.184491718178318 -0.13337391960917674 -0.8641786257461246 -0.14138521994942746
P 6.997954745483284 6.403354988381914 2.54491948753067 -0.5698215094509347 0.526289647606571 -0.34297873395763506
Ni 0.9509844404092451 3.9102423587478206 1.9601943038361715 0.5748418454836616 0.583670242408569 -0.43394693490709135
P 3.5104450365989575 0.5109264698639784 9.383115167639286 -1.5968705216034562 -0.19447464357523928 -0.6740406618730262
Ni 1.4810196790810735 1.6993118815801513 1.6988581649843464 1.4439161087591907 -1.0127433941631268 -1.2347000452087187
P 1.6051772387804177 2.760833143150721 6.695456993508151 1.178939245398331 0.598212658999118 0.14240646212509026
P 7.282899856445548 3.0361679636926726 0.9391027948107472 -0.2364784988108508 -0.20719491935538512 0.20756155866618445
P 5.794247389011419 2.4490254223309105 6.757440594520007 0.0813144799097761 -0.14709538296032731 -0.2514160939572896
Ni 3.197907303333758 2.633810977653014 13.562379125376022 -0.37975322247350723 -1.5249228276205606 0.4041972144484845
