# total energy = -340867.33113286644 ev
CRYSTAL
PRIMVEC
9.32690146330962 0.00000000000000 0.00000000000000

0.00000000000000 9.32690146330962 0.00000000000000

0.00000000000000 0.00000000000000 13.65086306920007

PRIMCOORD
 96 1
Ni 0.3696801244401345 3.291454116969692 6.4831495637694925 -0.39540378452657066 -0.6640529545326951 -0.10423329348947856
Ni 7.064819893563546 8.289236833162546 12.934629634414406 -0.24871977807204906 -1.079962058101469 -0.39882746549613896
Ni 9.133302740624803 0.886627355842581 2.782237021306209 2.6993009360107707 1.1323855660085078 2.3870484274923984
Ni 3.0202744637235965 0.5844553425011648 9.05463126144456 0.09478988868839158 0.21138350351543594 -0.8910751930266524
Ni 1.3798217678840015 7.82366590449237 9.164356658268238 1.1248514624149917 0.17496819811119546 -0.19293969498795158
Ni 9.270361554191487 4.619250429795853 9.924572790987666 0.8668736560797845 0.12356567526950332 2.475272232927498
Ni 7.915078863442154 6.538782664222882 11.038742959984265 0.9021443063566205 0.49593751767727495 0.17621004093809653
Ni 2.6120733045157336 7.0758536177179785 5.503045205735051 -0.9899130265321725 -0.7401007867268931 0.9341321721171267
Ni 8.759377943435148 3.3014339012851974 0.8768135903689596 -1.1294329111380872 -0.3110224927660127 0.4302247488604978
Ni 3.7958995699641913 4.805695185372446 7.394399006167684 -0.4543663791037078 -0.4530126932892907 -0.7771961489172937
Ni 3.8331418865733626 8.326012804710244 1.876706834741913 -1.7863284286903947 -0.5614268576293363 0.19295280761407416
Ni 6.071570200936326 7.461325118629685 9.746852418821096 -0.43438659354767123 0.09546326060633237 0.24610907992207937
Ni 0.1301522432062816 0.37643280093025216 10.125268118952729 1.425635565282448 0.08384290275858464 -0.6783513734332383
Ni 7.866504361839207 -0.037786074950848014 8.627781895918549 -1.0955938511014551 -1.4024753251159008 0.15804725398614072
Ni 0.750421021048267 2.7075061578954087 11.003919108863888 1.9500750470541577 -0.12887937417293288 -1.4708347875269057
Ni 5.261594117467688 2.517265353518432 1.6330797804177195 2.1421405669672717 -1.5637385149361778 1.0302752323993032
Ni 8.921097083852484 5.505819026160688 2.6270261925667793 0.36476009149878474 -1.8909427596683759 -1.7556669950507957
Ni 6.570027783341521 5.545225183855091 3.8060789499660066 -1.2672029029324305 1.6707735395405099 -0.1093292199551472
Ni 0.7000203121845956 8.09107748964177 13.4250912643956 -1.1608109112287364 -1.9780543058759026 0.39279848569323966
Ni 3.737457206860493 0.8088130188853265 11.34302098762329 0.25343003906352485 -1.8225614428805 -0.940319017654129
Ni 2.8980081155068107 9.27751528743447 6.269500102686856 1.8244607167857416 0.6814212706078135 -0.4621043711779138
Ni 1.3972630731830624 4.667647720275439 8.075113565497453 0.09872419074579127 0.6420479110165136 0.37660799197630623
Ni 5.932981775568011 -0.05302343348939129 2.4463165485561715 0.8111766196277965 0.8147388830577582 0.6769097558907051
Ni 1.1485705788011575 3.8745066935259485 4.295217092662742 -0.2160881080799569 1.5866871533125513 -0.3091682131660934
P 3.0094366044949825 2.6932266721131293 11.627736772623678 -1.0259411238003235 0.6147924177346702 0.048657355996387174
P 1.1181835345956277 0.5693998585365958 1.0719407583000427 -0.33871815890906826 0.7052970487841467 0.4984762249387287
P 1.2965325399050631 2.16646194447657 8.975647331073136 -0.2551745325584573 -0.4504202499717662 -0.8761219141509297
P 8.044135195753976 4.562859984962632 8.320405471691101 -1.441605458348143 -0.2507149541252069 -2.2606676513716035
P 1.8158823810642146 8.399480805694576 11.280144615675113 -1.876237592247717 1.155021558240469 1.717042083589746
P 4.406830254295257 5.700070398066326 0.12277186626342225 0.9032521947088187 0.28744213434291144 0.006229525849479594
P 0.47375808256938134 5.6326275752762145 12.082855975776136 0.20419547040742897 0.41879568108794973 -0.26948940651923264
P 4.217913869892861 5.8071898586864945 9.319784803806314 -0.0599871791869096 -0.38889297999124633 1.640827901021013
Ni 8.458585378785566 7.605910741488532 3.0749935278565013 -0.2962893003208962 2.360892595032637 0.37420863850619424
Ni 6.552157440585907 3.637081095829213 12.415541879179804 0.543713242399657 -0.6206547900527182 0.14509969268653722
Ni 4.122910053969741 6.370003059574858 3.6865659029921525 -0.12257117256671793 1.4541848376750504 0.15918239603184842
Ni 3.5095263946153312 7.8246172484177725 10.38529000025804 1.898261404816976 -0.9443931877235026 -0.6913315877429901
Ni 3.6291905373891025 4.673803475086873 11.968803829472122 1.497636481100782 -0.8614069765382585 0.4530317194526843
Ni 3.518489546696827 3.630337746240324 1.0417365213586098 -0.6269473079296493 2.436396381797907 -2.516001592326061
Ni 4.42876712598691 7.721181913783235 12.566001584432955 0.787841544446282 1.4309374371113357 1.266288361537961
Ni 1.0794582406909747 0.38153834666325004 7.489723667493097 -2.1814231666169785 0.5972891187435843 0.2933944952716044
Ni 2.355611501409702 5.379486149007865 10.21724722080714 -1.245485565859997 1.0884646962558415 0.312628660910868
Ni 7.275365361917023 3.0668716622659007 5.984414972397782 0.26860186170795675 -0.21033243654310224 0.6392364097096475
Ni 3.3625903926466645 3.332259309848511 9.292087637915355 0.19661560117764204 0.19601601992043016 2.4539063656572124
Ni 2.5212945748495517 9.490868153058011 13.22002814858479 0.6073835268651088 -0.9037376189856694 -1.8042713863220605
Ni 7.51813527401823 1.9431013138338358 10.685444604863527 -0.1301854945788661 -0.7920386132467649 0.47969174524237385
Ni 5.787817884832939 5.767662451276109 7.927575045709363 3.0544476727895074 -0.46919161704199847 -0.3461514752586619
Ni 6.514905797075505 2.9798236930914968 3.790011497218043 -1.565958148295316 1.1984796294241036 -1.239391794257433
Ni 5.0830399203312036 7.202886012463011 5.948172499600408 0.9620697790676592 0.9923452901227491 -1.1617015413638059
Ni 6.796121196044483 4.374447253226626 10.131465844819695 -0.5213361602560376 0.5169362314161291 -0.5333352415994428
Ni 0.3072439822299879 6.302280429747862 4.719212426412545 0.6246639112121113 -0.83856426761213 0.9675511138972046
Ni 4.8777548242711335 0.6839202152823286 4.722269784635558 -0.11398265956675854 -0.5549150246527476 -0.06146067840864254
Ni 7.793185591274545 5.426251231772298 13.161970986501869 1.93726324000147 1.1427221720478256 0.4712657259622077
Ni 8.8182493439954 6.62912302953128 8.832217311276617 -1.263556821539411 0.13057707359032994 -1.4388605486131543
Ni 8.17768709445839 7.48977216737949 6.408656536340043 -0.9725858481076346 1.5542323752179557 -0.6704431743297551
Ni 2.669265862854687 2.6600322306375372 7.316097804966253 -0.25101705874665803 -1.6067926658131748 -2.0297491631470335
Ni 2.5099344091520885 6.47872674720649 12.954532308947918 -0.9184803245124826 0.8235120012646979 -0.7823337272541753
P 3.6733161071056037 2.409548971219579 3.8023108818693117 -1.0645945745064633 -1.280072302695931 -0.4321178521181525
P 8.802272362189363 1.2968776352505527 5.914427770952278 2.6562714677241224 0.10135005840441255 0.8675796810078735
P 0.8647818877829764 7.399730262910435 7.061782121833116 0.9413022075030045 0.45919593928186725 -0.47725433944547485
P 7.079789570036803 9.059023299233507 10.909782694755107 0.7173411244328741 0.0804791284926743 -0.4954495222972628
P 7.280504484494447 1.7956709861000086 2.1388580475979064 0.21246439528444053 0.9500115623515445 -0.1927823434744809
P 4.687411423980633 1.215453787517503 7.053974572813948 -1.71058784332397 -0.3326824942379496 0.8406088088459845
P 6.435160791563756 7.9238927851039795 7.602261125037451 -0.5203329158025038 0.6075030831621085 0.3802874977104225
P 5.231925244656824 5.094250855608997 5.735300902080306 0.684855235990027 -0.6491922353707787 -0.8726948907472519
Ni 4.425484056754146 4.2440478471377645 3.1118235954313307 0.580792920860774 -0.2106733648222888 0.11678953288793437
Ni 1.2512504344361106 5.0170894017378025 0.5382125662055797 -1.1838112287786515 -0.5908459342214019 -0.09894222029386832
Ni 7.858147458337625 5.296952400028511 6.2355501822116794 -0.6669315616320707 -0.432396559700836 0.43755856351774963
Ni 1.7131838716268026 7.183150289461507 2.645441226354194 0.15515656270190697 -0.40378120995698846 0.3238821223375003
Ni 3.363812216707722 1.1539148932056291 1.3754204031938266 -0.6705586168616968 1.6226422312509217 1.2185805139390367
Ni 9.285032769825404 0.6649129232668439 12.317528272229941 -0.42565255610878305 -0.047524270833208475 1.3227158483980703
Ni 1.374188319541417 2.541002317147368 13.325548978334233 1.1660845009228498 -0.2765745955007882 0.6009909930752036
Ni 0.5828623077711759 8.629995169580296 5.030929590472176 0.1541404627325668 1.0155057873996123 0.015272609888354341
Ni 1.4637638789490008 1.556557219280743 4.440311964328717 0.6034047447230189 -0.19367297360955033 0.8843946956826834
Ni 4.787097344320934 2.8724244254344447 5.665039489738656 -0.21787039679136025 1.5369705028137142 0.12896576323915207
Ni 8.230412067108439 2.352104586547431 8.522956853000823 1.1843627304067474 0.5196508021338148 -0.848957695031312
Ni 6.924664548788685 1.2976517680525965 13.293237794405067 -0.12889325813000382 1.3667431618216137 -0.8215355942646174
Ni 3.9692120486097267 7.47585643074516 8.054418104359439 -0.2936274372180169 1.361130957841159 -0.3941943375995018
Ni 1.7793022744423337 2.8259391497068935 2.232161569426899 -1.57407614941676 -1.3087581006663975 0.34818187542512935
Ni 8.12179097539033 9.443487494812434 1.0943187924198483 0.2791523835302934 -3.073686723524778 -1.218058837107612
Ni 5.249040108412855 2.6633805881789074 10.691082716656727 -1.0734052308195579 1.2067428978741603 -0.16846099312029697
Ni 5.393737654086455 0.6814103461614851 9.676495872086905 1.1996443391561662 -1.2430335047750787 -1.246785772728659
Ni 7.422842324156998 1.0733024858795415 4.422742880482812 -0.6544714814918471 -2.632853345910498 -1.353007043182444
Ni 5.806900724748382 2.8874314095126206 8.099848507557939 -0.6133389731175953 0.03213416153038337 0.3835479136292491
Ni 4.755190015215004 2.184705363281363 12.942751500005008 -1.0977013843627612 0.3420402813037658 0.9329898309825674
Ni 6.771432888490143 0.8529451174326885 6.699365788070473 -0.4459339320656384 -0.9424720594413898 0.5115687964566286
Ni 6.235966162006512 4.668104738435683 0.9797919068432549 -0.9647897491019836 0.14276204569229606 1.0370583167594074
Ni 5.808047933599604 5.912677111591511 11.887921874700503 -0.5070158869786235 -0.08424682306522266 -0.06654786312356281
Ni 5.603462355131741 7.025451043474061 1.602870880025672 0.7904252460130581 -1.615567069571695 -0.3895570959378065
P 8.153996765335602 4.30371203430252 4.264392616789552 2.408633866972658 -0.781687351919428 0.8070433141857132
P 2.251942994244428 4.9470816811095935 2.401173413915538 0.2580816789029233 1.1339138297275762 1.6782824463230448
P 7.706380121532107 7.057666160320562 1.1126629417579197 0.6706529763477159 -0.6187136071659473 -0.6585690485999883
P 8.615202704230397 2.738751277014048 12.397822632224106 -1.662530582805427 0.7140012614263639 2.153851427646297
P 5.097422002027008 0.24447020619533547 0.41411254920708457 -0.17405648493020348 -0.8362836991080694 -1.3382805356055467
P 3.3164781929682916 8.513007847459376 4.010036827981128 -0.39906349276634495 -0.20473308807845386 -0.03730593553930994
P 2.1352914405677668 4.97885843359831 6.05175519927437 -1.397325405483845 -0.9026017056090132 -0.9457975242701968
P 6.635539937577138 7.993965794040795 4.1845487461247695 -0.8747769700872611 0.14001070819940406 0.4341994172375297
