# total energy = -381176.6294006945 ev
CRYSTAL
PRIMVEC
9.10708661975262 0.00000000000000 0.00000000000000

0.00000000000000 9.10708661975262 0.00000000000000

0.00000000000000 0.00000000000000 13.32914182644148

PRIMCOORD
 96 1
Ni 7.835946978449999 8.139012614246413 9.14036595476719 1.2414095960184104 0.017279098795421853 -0.39216419454335044
Ni 7.459323402262705 8.244044646749572 1.266150086715049 1.1896257785778994 0.26058799026454477 0.5652742563998845
Ni 7.109438233031908 1.205341157188748 10.486195765645652 3.221443137107871 1.3819556078959943 -0.7785274661342075
Ni 4.617875880445745 8.307803361702714 12.306823548825516 0.18394083392345095 0.794068242082284 1.4688174999865606
Ni 8.255792788770647 4.028228436029774 9.623174520651338 1.3955929961737705 0.2951377032149562 -1.360310518822393
Ni 6.287022756122379 0.5825821664470175 2.8479581781974765 0.14093527689620244 1.439973836281991 -0.29597202619079344
Ni 8.689235479740494 8.94337784504294 7.010582626822312 -0.015970664396643464 -0.8290419299439915 0.8993554307575737
Ni 3.140032470889057 5.030827626029995 4.819804584779636 -0.01544975889616694 -0.13273525758391333 0.6641761103741206
Ni 0.2806430772924681 0.31569716524078184 10.756244568819424 0.09448495585346309 0.6632127180195869 -0.04393012572404692
Ni 0.7731880297151675 3.9035342030432814 4.94887021944839 -1.569694989629929 2.941932341796895 -1.2237988249151825
Ni 2.440471595424737 2.1134452141574287 1.5124976963928127 -0.8901670793900862 -1.1711662863211314 1.3489331302233865
Ni 4.005442504760989 1.2786896345823515 2.913550149731118 -0.14106794581932477 -1.1252044748790364 -0.07070559404567824
Ni 5.4325412264561 2.454915435149874 4.272469576521899 0.5847249089253285 -0.24631065440992417 1.1774192092093787
Ni 4.599224566601433 6.290993445983766 6.52489531078866 0.23557269916712978 -0.5830012413660024 -0.7672734904869432
Ni 0.6752832033714634 0.2708010485465944 0.9117760343817799 -0.7141627267048926 -0.41118033063453696 0.5327454305342437
Ni 3.9434596717412647 8.470437718456497 7.307941762006009 -0.08221128069243261 0.1296126527945316 -1.0446744385437685
Ni 3.8382181762408325 1.5535688366150218 13.106478594309404 -0.7337751016191814 -0.2819222329659467 -0.7398115376212484
Ni 7.033302987065863 7.9028658525359425 3.965966015444122 0.9628537084215353 -1.1800941849383806 0.5039197645518031
Ni 2.387313529551076 2.6694146514463153 4.385620576941172 2.3141599668627886 -3.1842608716306193 -1.714686438873376
Ni 5.723111939110718 0.6860641727703394 0.48917715170999077 0.6820380782562061 -0.2120321928430284 1.0050192860459917
Ni 2.005298557955661 8.757729879849421 12.281844631046129 -0.10948708568925015 -2.030800230119367 -0.38528932180038805
Ni 0.581104086253203 3.6510037921111698 0.9860069884899897 -0.8214150095263529 -0.788837589810964 -0.4922330722424942
Ni 3.153328817672601 8.768612848620883 0.8535289283830205 1.318497953661981 0.20511901066296287 2.3727852327051653
Ni 7.45650931242975 0.8110270648185548 5.247203812923758 -0.774953375629704 -0.29569640393190366 -1.065535084042862
P 8.947967816809314 4.523162177330092 2.8160478566256555 -1.3021717056981315 0.27544999497804173 0.5990495530781167
Ni 3.1745938654394323 7.537790062459289 5.124428443134041 -2.063459668025601 -0.9823665816434823 -0.6776463769464136
P 4.122386606848307 3.67688613290489 3.134440719570498 0.115269239588666 -0.03315283260288484 0.07359602821959584
Ni 1.7213304832586231 7.859771117618321 6.964037216701755 -0.5458261749776019 -1.2696482791491297 -0.19278979967364862
P 6.677279641306224 2.2349883950979588 12.552679375814023 -0.6750907004040955 0.19390077334964026 1.267445872181172
P 7.353817801243969 5.993911166239946 9.557007891938216 0.6682914180940748 0.40265815209613876 -0.47947268725303227
P 8.830941750940454 8.950344766474045 3.0922940323927164 -1.154056366113722 0.3455194981016178 -0.590768286905931
Ni 0.8802436569137377 7.006883328148699 10.782209784103369 -0.2637244790109975 0.3898167773570964 -1.042547879119069
Ni 6.324279848376816 3.714762507064313 10.961846161275096 -0.8174989623013986 -1.8237420934521624 -0.4038447162050722
Ni 5.054196410856416 3.0055207982911525 1.106868959335034 0.008592112544385203 -1.3259017023252198 1.0679431792637222
Ni 5.891228762141004 8.501037530232324 10.471174536614983 -0.9086566535538415 -1.1381795469824656 -1.3673226884741678
Ni 3.0367034636246144 6.681213902820258 2.921054389285666 -0.612472768462558 0.30838017004715923 -0.6085415517289519
Ni 8.067731445565046 1.7322954158116275 8.452102420525463 1.6283210268032535 0.17748325122356529 -0.2959632844400451
Ni 7.675871713097706 3.2471135979307735 4.672997434241689 0.7631129313513503 -2.97609793193501 0.2956642651423876
Ni 6.303798010078055 6.4760676647064885 0.02494795368413667 -0.3472596207211761 0.28531197537378605 -0.06575107825388031
Ni 8.516209936904504 2.935405336725055 11.67067714043186 -0.7468920986171136 -1.387321757303914 1.2574674208122214
Ni 7.570193077429049 7.294175489541622 11.375022851904244 -0.09018375737494792 -0.16464444758768418 -0.44243260378059934
Ni 1.2613224199822024 2.615509804451935 10.356636526870274 -0.9963554397234065 -2.045113818528562 -0.42391500459238607
Ni 2.1328433091224617 4.405981290984985 2.654218566348356 -0.4037552418150595 0.5886967490888829 -0.17034664017878404
Ni 4.4028939885468885 4.20970535545147 9.692072364707188 -0.8700841925972821 0.5101235793696699 0.20976216586192906
Ni 5.9596320913815495 4.5048113973514345 5.657887893885334 -0.5947100451624985 0.026488018988199545 0.13832740695971016
Ni 1.7551997392093075 0.9967706544238734 7.641623602334559 -0.5110031537611458 -1.0926391393485053 -0.8338601772682414
Ni 7.583389246257373 0.10956007607903226 12.459495663287163 0.5115592833749318 1.3172540539525508 1.189250911736984
Ni 7.213231701725091 6.255858304962595 2.414547362031562 0.06795657054563135 -1.4059059480640046 -0.3550611190434659
Ni 0.5610475489097796 6.688818320330025 2.695165850189568 0.015122714574051375 0.016200778129578552 0.6159149613748875
Ni 7.751187321248326 6.465412373105978 6.913279778918603 0.4665338677041772 0.11324398162852109 1.4569181774458135
Ni 2.9396583462784216 2.413286941213177 8.742437259630979 2.7568638220269035 1.36378407919329 0.8432171930031092
Ni 7.846283522011179 5.161122717421885 11.842289263390589 1.0572975266244178 -0.09757259363985131 0.1777439610841197
Ni 5.002367979661109 8.726119181434571 4.832280383039072 -0.1575965396019673 2.1521940945485323 -1.0596572851058461
Ni 1.9267226127170207 6.831562799429522 0.6556874846220451 -0.160621185360904 -0.7622413273796743 -0.014071904712033827
Ni 2.2726644133469454 3.3101437459368737 6.530426955334087 -0.338615571892933 -0.24017060295045733 1.8827399121426092
Ni 0.2745167399765162 1.7917555857772143 5.991716358311977 0.3842876200087511 0.91128072144025 -0.5395573112497546
P 4.0457231498456565 6.6044958032965795 13.37006227653685 -0.8453072427629184 0.3091867251088546 -0.4832997743086064
Ni 5.586560279061093 5.939541857816826 10.822317394538114 -0.0018853899481709468 1.3977606932490507 -0.14664595412773454
P 2.7985258215492594 0.5434043895784376 5.174812490356833 0.05637606479688355 0.5185272300523328 -0.11606833845119367
Ni 7.764501882205546 2.1040558076274056 1.3799923150253297 -1.116274005158626 -0.7286593776591709 -1.0123531007032438
P 1.0256583338741476 8.484726737705387 8.974258155093379 -0.3909046111046364 -0.8642323618021953 -0.2844843372661681
P 0.05504141143176799 7.622449541705742 12.786832596215648 0.7551615377147575 0.641083233110399 0.7248634009518484
P 6.310983501593272 7.759010308842207 6.068985436589358 0.5864850861495448 -0.5596877634510425 0.7587240582550353
Ni 5.696856207756639 7.246627389160197 8.394107580832118 1.0340655526796705 -0.7525608668671169 0.7070947641145178
Ni 0.38140479677726646 2.012602441599772 2.876561716538404 0.4629600343099897 -0.09252268992076969 1.1596258897816996
Ni 0.7636674811346766 6.055766500043937 8.444757554990582 -1.239369168549614 0.7890749026327507 -1.051431297651628
Ni 3.710782710116088 7.517244474552663 10.465389715055457 -1.2062505316187744 -1.2447363463987982 -2.1495126910616267
Ni 4.766785857334597 4.562240686952138 12.523568572736218 0.43757193325418836 0.3693826778724606 0.05091684145452522
Ni 2.906544978535295 0.6380734679685848 10.450980482260304 -0.5312102248366399 0.7196530603955025 -0.45697502037114845
Ni 4.36769509791785 1.7312116724779003 6.3642517632176725 -1.399782608775086 -0.417962386553377 0.2539756271543497
Ni 6.331447125718356 4.606910947892741 8.19947547447287 0.4878930501062436 0.9680105700321264 -0.48142801120719014
Ni 8.8512050191551 5.773738234843403 0.5826950943238092 -0.6245096450224342 0.9482611553193413 -0.048350880499561884
Ni 6.961484500261052 4.244339606696549 0.618777372376138 0.47867153150797564 -0.10258701613530717 -0.7267423631421162
Ni 0.22330576926882936 7.861091645209837 4.986965163691926 0.15614463764678915 -0.14329606381889515 -0.2799291137953179
Ni 6.375124714193613 0.2836283803579788 7.5285791548312915 -0.945156034031456 -0.13264424053200383 0.36280039666925257
Ni 1.4948554477701546 1.8544214503097924 12.610661465585796 -0.27965143465389897 -0.11744027909805581 0.6261536083837604
Ni 8.519852771639721 3.935654898321061 6.940458058169376 -0.38613598607139954 0.8246193753962636 0.31434358671944573
Ni 3.3523095579970157 2.9426454707613 11.444894243543084 -0.5615438428231748 1.4398226554161073 -1.1476404352850493
Ni 2.5562317762231093 5.828927181081948 11.708558068134703 0.8366020016794367 -1.3027247499881243 1.2757824170713254
Ni 1.8523450345107184 8.872406317314066 3.086123070351258 1.098612840433437 0.3312994978474939 0.47660719277977914
Ni 7.924413219994755 5.432277120937797 4.897220287155109 0.706623480905054 1.954052543644667 -1.8714687101041638
Ni 2.8484053361612243 3.9439514544305188 0.3358065236878659 -0.49369474438968525 0.8005849601548792 -1.0443098561154982
Ni 6.540664231648732 2.419579938218265 6.718367174284742 0.7073169074276527 1.4462105612203224 -1.6066965065549426
Ni 4.513463129847576 5.2306462183435105 1.5109786343082268 1.0602825773946707 0.001829854119887171 1.8401020228674247
Ni 5.861648944091038 2.437238579597232 8.83066307408321 -1.5716032623962353 -0.8963824641721788 1.1039828464960988
Ni 5.088174951849156 1.4040031494738314 11.042914716181308 -2.0288492770405835 1.1391254558355028 0.7239894829873272
Ni 5.146924769041376 7.543964667335483 2.1754890646589686 0.10917906753052811 1.3511008272986667 -1.139484381836818
Ni 1.9045832846137367 4.617092670977675 9.735405705299968 1.1294462808745258 0.9768505369212597 -0.2703975201557988
P 1.2020990342744047 3.938295953504094 12.16724105027619 0.889434829209752 2.1097261551923085 -0.5096258137976448
Ni 4.239458208151357 4.047608316821131 7.3408921128947355 0.2140811049522571 0.2902464365609259 -0.23346927967088177
P 0.7969739191187698 5.9409534562767226 5.94359815429449 0.1029539125564227 -0.09498477830801706 0.8541808911034643
Ni 5.096334901656044 6.232407556354632 4.032345749989254 0.7709216287624916 -0.7035875222922077 0.5301465594588161
P 3.8818502292818993 6.109625811604128 8.575010753783017 -1.0030127971389242 -1.0538273086876302 0.7654649765232946
P 0.8246093741288131 3.007041681793106 8.243061081371062 0.10942563632369542 0.36534501746797726 -0.014357297162936563
P 4.393349761540619 0.6545354381370325 8.80886981527977 0.7312279097172955 1.1917631366358765 1.4059846238207399
Ni 6.5460920554042055 4.107287056870831 2.968346580526943 -0.8763939368653939 0.03463610201663067 -0.535091305058601
