# total energy = -340864.3872845413 ev
CRYSTAL
PRIMVEC
9.34764651153694 0.00000000000000 0.00000000000000

0.00000000000000 9.34764651153694 0.00000000000000

0.00000000000000 0.00000000000000 13.68122554422360

PRIMCOORD
 96 1
Ni 6.482770497102099 1.5085605930108983 8.914672922366695 0.32477172403130516 0.4903834206282652 0.2616459992154139
Ni 1.6416336894895032 8.943996489636529 6.625844640639039 -2.2411051558586434 0.1903865895487947 -0.9318544318265435
Ni 0.9875040782658586 3.4734172053746075 6.2369974998301325 0.9926666780179096 0.21425876818070194 0.16237210661373974
Ni 1.6257333426849156 6.818369704026437 7.275361188283576 -0.7363240932932803 -1.278057072038115 -0.40465024282550316
Ni 4.029611523552007 8.990622550695486 10.086182618941937 -1.9139569611753622 1.942602907046829 0.07946534251617927
Ni 5.843036261586311 9.107486828032904 7.2226058753729045 1.7223478120733757 -0.8296618229161776 -0.5307625957762601
Ni 1.5406791066032337 2.830757156484431 3.6376600293193477 1.104167451703079 1.0402937929775697 -0.4470019683188366
Ni 0.5500089804463029 5.470719498960375 10.560319556525927 -0.6133148047478792 -0.09550619802912584 0.1048369885117485
Ni 4.634899681481137 4.45964065606126 2.7273525554338565 2.397976387258812 -1.4007514004462585 -2.8068990322074243
Ni 8.897604119741663 5.182073520724717 7.047048660027651 -0.6116937242046885 -0.9917243687092984 2.882947378622254
Ni 7.234975616070442 4.746314280872011 2.416487221316655 -0.5138236539290764 0.594167542395467 -0.6938708092250759
Ni 8.097165144505437 9.36531361554856 5.651604872846849 -0.6335236755955863 -0.9781013786092252 0.47674243280606277
Ni 6.0878417774389515 7.717043096998942 1.0419840319675027 0.1238837207305544 1.028261544403384 -0.2842439391205879
Ni 7.129421991074909 9.161469486937369 10.463442417070674 -0.5858250839680427 -0.8329651762577976 0.6182721487531545
Ni 7.232049802696053 2.4482047208714146 5.8197194919982085 0.29531896598782686 -0.4052544520684053 1.1142112090923264
Ni 3.382109393741915 0.214550922985075 5.185922881579585 0.5829305360290671 1.9936115368842118 -0.12268661509865968
Ni 2.828476330722926 7.345586317856852 4.873293646555843 -0.3434546451527892 -1.1586313870789142 -0.42050006537356616
Ni 7.820493501517677 1.2772156882097612 3.333307200562967 -0.0986840815364752 0.39019498663212154 -0.04993262316438497
Ni 1.795589428391064 4.085015024734129 13.575619820997144 0.6367313838996067 -0.3583819558865827 -0.44618075796912193
Ni 4.027190483092049 2.177478181098069 3.5003281450663923 0.9226033455419208 -0.02623630798870965 1.2516852669128056
Ni 1.9264938708669266 0.49528224887538136 11.4319502079901 -0.11214509213738752 -0.14752038631288786 0.6853560868858455
Ni 9.287466414967371 0.3129564026534661 9.475863557632307 -0.7732495055647199 0.08151399751509186 0.03079281701114052
Ni 8.538467538770323 1.1029194703859297 0.6929186054037245 -3.4431794446125417 0.22031320190489798 0.6005274231752239
Ni 0.509945902039612 8.57578334385199 4.221383166626383 0.48158690538255766 -0.8637471946356607 0.48701090461160645
P 0.112740095673585 2.851247197751718 1.7156941584478016 0.4278847878734114 0.19759236326861454 0.6897788985438894
P 3.5638556858768906 5.764824502789144 6.560530764570248 -0.5840250546448265 -0.41032441039214496 -0.5633682976264233
P 5.647128284907567 0.8143744467331574 1.137897429062053 -0.1460304320309227 -1.1500001937664777 -0.3932947086033678
P 2.7477033167673466 2.60164633921198 11.99719024374704 -0.3282388566442992 0.10162208111887659 0.7006711199763611
P 7.594729141714975 7.557731156616471 7.624040557044279 -0.5704421737540691 0.3393758470977252 -0.27524893471082923
P 4.3678561144538275 5.653821199847065 10.31474099030248 1.507475835788707 0.019079128118638107 0.7492582848564451
P 5.8395869800043645 7.918297927512032 5.0407380394485966 -0.09696504196283946 0.4864285497455752 1.194349409305814
P 5.091504173170545 9.06046816581828 11.9241458639702 1.3632508323976393 -0.26400935724126795 0.6921101177802274
Ni 8.489588694889555 3.164206404699153 13.338647632964754 0.12045823998877318 1.4566728942042269 0.4566806290591813
Ni 6.397893866305125 2.7334201128182527 1.8010652797479878 -0.15389929325603816 -1.5588745019756571 -1.1472763670774113
Ni 5.130717550504609 1.8885050352326858 6.903204270413876 -0.47486269928484676 0.8575469793622198 0.14989351453075475
Ni 3.8742162470796604 6.680164749584447 12.955423101563818 -0.33035821698014717 0.4564314891628526 1.0510852271661189
Ni 1.2041918732553596 6.395304568207024 3.2954109066297055 0.11223816607182606 -0.31062962820296824 1.6178712922248393
Ni 3.301027907449739 0.5654540968632458 7.707168243169215 0.30988683649967275 0.5428254404780651 1.4759327708751033
Ni 4.208441349959157 2.931076099404379 0.5878996657916263 0.07567913600086966 0.7038145507013492 -0.02027494819895218
Ni 0.7086665855693262 1.4369389250410283 5.214571548767532 -0.1093965828579729 -1.2534865817876024 0.19359866872818915
Ni 1.6864836977013846 1.8673045728265694 9.588212921679535 1.741925477094987 0.8743727926703071 -0.7646545648068572
Ni 5.583218425352621 3.718119897115048 10.209997806264008 -1.1424882016601485 -0.31205761889874645 -2.1462425049507874
Ni 5.700260307974749 6.110266781544892 6.973785545321223 1.869073727509426 0.7509732106650228 0.6776880288176264
Ni 7.346147176650664 4.672981993581013 5.301474749339484 -1.535112623669369 1.2301692472179009 0.2814334662549863
Ni 4.794407922441443 1.8609201302236693 11.406352612640493 -1.7386473205643473 -0.5898691721304293 -0.7889304066350865
Ni 7.340790975169754 4.410453339843895 11.462130954449812 0.39300597371835544 0.18929695602904176 2.3332864032795944
Ni 0.3517528749507969 5.1661731739201295 1.6169016862116796 -1.1519866280688869 -1.7614506916121082 -0.034121367163741236
Ni 2.6708656620150193 7.209101330382554 1.7416338776616347 1.7556595388516278 0.8572466745129816 0.14330969066564997
Ni 5.013741101408426 4.094072894254203 6.053066662693257 -1.5496753519748923 -0.5218331544971142 -1.2941616909094613
Ni 8.077226614385399 6.359848944791503 3.7298306287298555 0.5729076045754262 -0.32329128283103675 0.11765856575644898
Ni 2.414936446751763 7.350362965250822 11.125750284272762 -0.24734166677759983 -0.5109645872137265 -0.8267791020517439
Ni 4.681320094315693 8.624783707138084 3.3056577967926617 -0.27989260413042766 -0.743447591711939 -1.3616073832569453
Ni 8.679514177767631 3.3500282707358333 4.011992144544384 0.48902870637258355 0.6279258697928346 -1.0194156639769796
Ni 0.6256482669091838 8.815541130560316 0.41989347934040333 -1.0744421567245044 -1.5363171855004314 0.8253642239820883
Ni 5.390759730255825 7.728166796409559 9.088328826400923 1.6137948081626208 -1.8750214604524287 -0.6940746977057659
Ni 7.340604022238483 6.022875633822324 13.172858708278403 0.5572621847286855 1.1523054448608863 1.221038488561226
P 4.312078707409164 2.019671211812328 8.9656905077812 -0.4748405877976596 0.36860903293122965 1.1792230951873368
P 3.3383250172382772 2.539306884279709 5.67539650288038 -1.1351482163553095 -0.016393353756358864 -0.3863954103803733
P 5.059329573698827 6.527293337684257 2.354237503791394 -0.28690297400998976 0.12122931382684282 0.23905165885466573
P 8.738011749962286 1.5184223601354367 6.97753488635786 1.4524850813751244 -0.5546574001159867 0.5903193722939705
P 2.322394745772683 8.341606102142098 13.116354989095752 1.5340954952587644 -0.6973263718738442 -1.0470334256942484
P 6.2568472273078175 2.770268535571741 3.944913432804396 -0.5274461298085175 1.3961907776587696 -0.7587909069372286
P 0.17003743004948102 5.272184833597276 5.015688216187613 1.1488745648024665 -1.5101266431479927 -1.4182225606478285
P 9.071264697599174 7.6860463009942315 2.218834973789154 0.19460371295393583 0.3548261202145244 -0.3016706192374675
Ni 7.736738588308328 4.588236229835928 9.230791633852608 -0.20440655797697052 1.2799535177298795 -1.1566498378725112
Ni 5.9640135034116915 0.7657994013657038 4.781382911719802 -1.0670319803033623 -0.5341163427398413 0.15012285693274144
Ni 7.2708144929950675 8.426566861758145 3.394530546495551 -0.5432316747775483 0.26923666707847826 -0.579363644613415
Ni 5.28509393350153 5.9019638255228895 4.487319037535912 0.5703804672781982 1.3397620052470798 -0.21700264947442624
Ni 3.1743859918068518 4.80094192738936 4.150199903280343 -3.240672160540812 -0.03749131207723865 2.634567500388127
Ni 8.775757546785874 1.0828874638002561 11.825791796357908 -0.013047834322893657 -0.13934247848778586 0.3244621632106864
Ni 9.006952889241996 7.065642998571852 5.9588442548620515 -0.4720864220912902 3.0348885197106568 -0.3575422335941068
Ni 0.5774817136965572 3.209243365842305 11.422893273234683 0.3607782240329013 -0.15023521414088964 -0.6251789031753169
Ni 2.6630603771344608 4.6453877409254325 11.062064768235341 -0.6092426915610346 -0.43206205917955265 0.020252322491132863
Ni 0.1519600163602443 7.862436391648297 11.827925864068366 -0.8337393354196609 -0.09494878286375906 -0.3647955727224104
Ni 1.2297950771929054 1.7884104358302624 13.621287748283336 0.9123893811233963 -0.08137618638564695 -1.0744850941472979
Ni 3.6974709458561805 0.6956116623786813 13.607785072822297 0.43692890035355075 -0.6284627161329112 -1.0390352379801202
Ni 2.5611803772384008 1.664647595328947 1.8699088271591726 0.4767403759235338 0.7985771856962312 -1.7820434281617956
Ni 7.37963979428784 8.689684417228767 12.91484403306682 -0.4838062816313798 -0.15526763435847454 -0.18923447822222247
Ni 8.882844185817829 2.644075306963904 8.789298547597824 0.8221814553787324 -0.3915594710798159 -0.4842461973822757
Ni 4.047157056151778 7.835103873096496 6.885692389341733 -0.9457306755880036 -0.309215521464261 0.0701800605595114
Ni 4.687302588116362 4.443955305127635 12.31578421204298 0.7487378935766008 -0.20731704675554619 0.5164176399084976
Ni 3.1195807400047966 6.4157385235949285 8.860604265113846 0.5213657279423924 0.3605583947126113 0.26365557344627494
Ni 3.4084417141114165 3.9703007061063236 8.052919929026217 -0.8787269558739447 -0.3289597939707238 0.16331955812867358
Ni 1.373571228986767 6.394341760610978 13.706399005009056 -0.12427272863885694 0.6630106293111097 -1.526731084473893
Ni 9.090782583623852 7.197585029816269 9.189104869237829 -0.43585932143845574 0.2590759244953926 -0.2230239159678417
Ni 0.5806758045273199 0.7369161082490108 2.550399736456666 -0.09702314889428451 0.3550078972080273 -0.4721288452934514
Ni 5.726013074257311 6.897572313359341 11.56355011537029 0.11473676412396369 0.6429740223752087 -0.4021992101818493
Ni 6.500166467356854 1.7501692137388063 12.896661925736073 0.6415545163198628 0.03147801600362321 0.9668240059231931
P 7.791394277765367 6.493389423598285 10.998870938407164 1.4091910465731794 0.6692383553883764 -0.28457278321491636
P 1.6146657291536801 8.55642436781889 8.864175066101119 1.49667694540099 -0.23210016723749707 0.03946514797415784
P 7.6421123621455775 2.515685381413635 10.592469852116578 -0.07394698380111137 -1.1833718272483877 0.06089297883063061
P 6.5684323302104115 3.855735949823535 7.451274548962899 1.1640697844856662 0.44186541842321964 0.482877084948891
P 0.8938687026388438 4.432457699854476 8.60335703168513 0.8741406220548429 -0.13416607649316892 0.4874855302551797
P 2.7866082217648147 4.958945197252935 1.5915779769063843 -0.46433351761874875 0.4477681570608998 0.443267698087385
P 6.515094658918832 4.135202539133794 0.0797587943034346 -0.6927204976707166 -0.09148242158171342 -0.053171956037289074
P 2.556300905732231 9.39316960230792 3.13796662603063 0.363855063186012 -1.4658213934727142 1.2522925614795015
