# total energy = -340862.93068215664 ev
CRYSTAL
PRIMVEC
9.37667065946650 0.00000000000000 0.00000000000000

0.00000000000000 9.37667065946650 0.00000000000000

0.00000000000000 0.00000000000000 13.72370531852430

PRIMCOORD
 96 1
Ni 1.3682625674315616 2.2852540956587624 9.17815362530284 -0.033252077184910474 0.2000444243535329 0.5920774926356578
Ni 0.6931975867848834 6.121925270951775 3.0055877679560905 0.22886032014396068 0.44627383190356046 -0.00501262272324298
Ni 5.946056432019013 3.5981380449021767 2.3128833940592357 1.5714911622984034 -1.5513247146528573 0.6376729218772695
Ni 3.14391335437217 2.028895913934424 0.9831308139115749 0.3291978781234589 0.08456204031279631 -0.47817505148753137
Ni 8.119043647290596 9.144410737491825 5.640799849348287 -0.08581005378728447 -0.6333508974631479 0.5519970796750042
Ni 3.3672375246036457 0.398977345734111 2.7618543358979424 1.3895596454954973 -2.5438929194196898 -0.9081360051636811
Ni 2.900082404936921 2.0369879808996068 7.2346707440364915 -0.23423546841294499 0.5079569107356542 -0.3097618808860343
Ni 8.450358935990222 6.560331517715544 13.379130968102315 0.9149466003276113 1.1626903876396364 -2.4422973206633745
Ni 7.084318639556051 6.455097140484663 6.881752543307798 -0.6454649071178625 1.4419361022146844 -1.1706842044783903
Ni 9.440807303852699 8.57724404627163 3.5340878814887677 -0.8539199241325938 -0.4800193037851217 2.86294419602745
Ni 6.818058693387642 9.038351213223937 3.067289075315295 -0.6621621652678854 -1.1523388692019831 -0.5813158832437795
Ni 5.2990286349558735 3.1823670816308205 14.125947171952095 -2.3445686610616336 -0.825006069311721 -3.8534421485288153
Ni -0.20051448066078786 2.5235059259233457 4.304275437494653 1.40009448358855 -1.0865008876612514 1.4240967600404184
Ni 7.8768723686002335 8.732577975987995 9.47860653948427 0.10332003764658981 0.721875264857802 0.003387942635626423
Ni 6.061802057300843 7.509635053778226 11.911586334111368 0.8009377155086076 0.48621591951413684 -0.970639265904225
Ni 0.8464208278872696 8.132405403287567 9.725413644255266 -1.212798102929305 0.8975908826579833 0.6384437386050231
Ni 8.375973805938314 7.352332023178097 1.8076589906397376 -0.4386201720130446 -0.03885785340746211 0.5702112886901857
Ni 0.459777555022222 2.47529108428375 6.814272393688289 0.14555349239450419 -1.5926117463271023 0.7625837983207575
Ni 5.639233007645063 6.218373707572716 9.174749893775191 -2.801504343554414 0.2790469683006807 0.35102628685245996
Ni 8.27500581395559 8.810938814490932 12.351252805440746 -0.9754143186953653 0.6739591579028135 -0.4633169034287763
Ni 7.807681914213114 2.223696251363946 11.503786478750905 -0.5434877566524124 -0.7979632062613161 0.1360182992105593
Ni 2.539830709916838 8.166573991956312 4.6845041298140675 0.4405672684370864 -0.3982407397547335 -0.38779331916916443
Ni 7.467271254764673 2.338916783076772 6.096810795679994 -0.30145258968939054 -0.7028640138626218 1.237687667082133
Ni 3.950982169930957 5.417962328335227 11.508712981628664 -0.180773749049379 1.0980081169699025 -0.8889807723914689
P 2.7102704564129354 3.86632958527085 5.861106606892167 1.2150668443588235 -0.6160699988955132 -2.424968856687256
P 0.24697213417839603 8.409223480861302 0.328480721094093 -1.3690018759488036 -0.7042449533705484 -2.3371402298080457
P 0.6573674520370764 7.954820633584668 5.817327868243565 0.16921998277350855 0.6577910327833832 -0.8692210732660386
P 2.325517520396301 4.700140666165329 1.2571818359100775 -0.3367294106138136 0.47315780077859804 0.46106358861822533
P 0.03596609647549541 4.382899760449179 8.711506721197544 0.9990291299008279 1.1864229553698857 1.6327973174070527
P 6.017909860934654 4.126485318699591 9.372357606464709 0.10619144565711387 -1.865146367430562 -0.07483195750922596
P 9.673161208136865 1.2373454886738728 10.825670329401479 -1.0829648494835349 -0.3179647284118008 -1.7149186094888402
P 7.210894319698583 5.327177400922826 1.9872062975567875 2.451985494485416 0.30725505530378056 -0.8990978062208129
Ni 7.5545680606115475 3.203933424643475 0.07924880923480578 1.4140496602170616 -0.5175404406590313 0.8344098791241241
Ni 5.280434696610616 1.5956937195063174 3.693351573968872 1.2120643100870738 -0.36705505818054845 -1.5747148114420235
Ni 5.574974682138228 5.694011518897207 3.210111713083057 -0.2456488524562092 2.6490885768224377 1.7505918945207335
Ni 8.391979783122054 4.974877122804799 10.742614591791398 2.095468873942346 -1.665605365076009 1.736295018282087
Ni 1.4342368237085348 8.559915958494507 1.890179320342854 2.735558375680908 -0.3219697358061358 0.23870121749378245
Ni 2.0868249866005892 4.68635695997898 12.56871843170948 -2.0026551351437187 -0.795285659429153 1.0027469450720472
Ni 5.363568260588961 2.3200040379217617 7.968519012066054 1.1980217159510786 -0.9246854248819301 1.140425662704165
Ni 6.713902633307395 4.1867210524010225 7.276747616921268 1.2252574117385802 -0.04245971182610752 0.7337154520258397
Ni 1.0670370155700266 0.672579225197698 5.368439441108559 1.0107335628219496 0.034120338722476724 0.1491008434261303
Ni 9.396549417322381 7.2795596805167015 7.68799246116123 -0.5052436255695492 -0.1862327152814212 -0.451695517139764
Ni 2.0536784550572267 4.29224610642903 7.7432576216317885 -1.1005373111496595 1.6195016287394108 1.7841165086407402
Ni 4.6010292550158685 3.8035433970914 4.066800933245613 -1.6984797472065265 0.4346902408310191 2.006018652299313
Ni 7.767868569677577 6.496935845929214 4.0842293514011 0.27459638872849484 0.26806758647104156 0.2034601349033012
Ni 1.5641787286952165 0.14763568292793366 8.004433536851735 -0.8751035001887445 0.1484035602487896 -0.41436875566484765
Ni 5.465145736178564 9.009086623422853 9.336003315814985 -0.8301477614136606 0.23297434231233427 1.142875666906554
Ni 1.9506569721528628 4.229122358098077 3.7126600146348103 -0.04796932879042706 -1.2799820569749698 0.09996063425605364
Ni 3.508103251159781 9.257099568068382 6.683609422711315 -0.203249818664708 0.23341451517354642 0.8661390919066051
Ni 4.492766213092342 5.261231274658478 1.211194891270398 -0.8258023399607712 -1.313681248999628 -0.2725279362352403
Ni 6.192015885742902 5.038179027882378 11.259229774989926 -0.055403416470969094 -0.24124172452744905 0.586313593568687
Ni 4.892446809142084 1.8377806081588035 5.887881690575921 -0.29496106842777586 0.021334499811718095 -1.0903464866595867
Ni 5.659889813582836 1.8837450487883831 10.296237237116735 -0.006442670301550195 2.7020497024005015 -0.3608461011563592
Ni 7.188512206319798 4.09508284793899 4.227999032927244 0.6161892980821968 -0.4394676076150045 0.9643035534941845
Ni 1.7870434420538146 6.588442776998995 11.093544000627489 -0.20084558009858958 -0.36971846394532454 0.5366977303137724
Ni 6.2070654424973855 0.18080846914974655 7.0630561006797485 0.9743884485340122 0.40221926478650727 0.8106001782990362
P 3.3371009044111797 9.32321447440848 13.779698597216838 0.03122579078350106 0.2224204780558879 0.32633546897399923
P 4.715780953184941 7.826800946127374 3.50298921486452 -0.7035854654096786 -0.17165353191566565 -2.100293549024499
P 1.4813077115013724 1.3692471178734436 2.5756514679937696 -0.6743970167711805 0.9899035134504759 0.1047256597448648
P 5.7476460763025905 5.052928531168859 5.5822959867574795 -0.17374409589610723 0.5698104537073413 -0.06383046419239975
P 8.715418668286622 7.124300764167337 11.058424617532012 0.5319797560128128 -0.3298116004480578 -0.7139868632486607
P 3.621842268874347 3.157828333950769 12.461646226987085 1.8589533512459726 0.030279367709831723 0.46493721264101867
P 4.685053602727346 6.462776633931344 13.162118235036846 -0.07391664478380819 0.5199112548840529 0.869160138121116
P 9.330143834185154 4.730811756597674 4.516059738880184 -0.3113559648460315 0.4988611190819731 -0.3885685067722921
Ni 6.6030516302223505 5.357192124393915 -0.1424653866074216 -1.0085833492481662 -0.42324214689507755 0.5717066422887896
Ni 1.5091564240003221 5.942558933782613 5.63212642878885 -0.962659075912226 -0.3752090547462506 -0.4720488839851354
Ni 4.440641299697844 4.318669564954969 7.486500931395259 -1.3006434419790633 1.2488100022475395 -0.05868620098729893
Ni 9.016541076768531 4.552664386642271 6.7373649391709876 -0.8474302026431922 1.8355480849481551 -1.6565586814927082
Ni 2.0127492866875585 6.7730412965164435 13.626541930477664 -0.2947970320460858 0.8763029198134843 0.6233742458664102
Ni 3.939983334994503 7.46008872487437 1.47020667085238 -0.8361592577150633 2.3697914401841635 -0.9924301365270713
Ni 1.2346543841327287 9.459654412311584 12.255420416096294 1.97821191449969 -1.6528922883847148 1.11012392639683
Ni 2.422050347055118 7.274449394889789 7.423935094981373 0.29721926833433326 -0.36095742992324287 1.1403313032181457
Ni 3.0916665442562947 8.172462541265853 9.79709266709263 0.9924463344769876 -0.4904633819365811 -0.8345978267652143
Ni 0.16002038981972247 4.936310875495647 0.8186658820970706 0.7870126207870832 0.17728861871425597 -1.0316088636090621
Ni 8.668544690582161 1.0536658829021808 2.203780202425303 0.25537122195029566 -0.18256169418773718 -0.2829607015327901
Ni 3.411879854639841 3.5474383854806883 10.231955469932709 0.13380149406489858 -0.5662499900495925 -0.7558914739022465
Ni 2.9871729240245455 2.0743446376658747 4.110003006635397 -1.495684499580734 0.6555695996520322 1.9556851941520832
Ni 8.882754736723072 3.470540307634262 2.365610289723913 -1.242062142000745 1.1130578122141734 -0.6566414925599724
Ni 7.788525375615351 6.313490656929399 9.110921019794434 1.5561478470731134 0.38781903020077724 -0.34452216718535505
Ni 0.8481451976611944 2.484892795259819 0.5810057197647038 -0.4130955453793788 0.23876755195534358 -0.20991128984528365
Ni 3.1913311789873844 6.097189613183348 3.2170016908420562 -0.24034106709005063 0.30935127571117693 0.20621275794777388
Ni 6.163351402877821 7.744333125781158 0.632206093410921 0.5162430620038464 0.2870251014101508 -0.05700392818886957
Ni 1.7275015819971378 2.3851156404782285 11.922729569779298 -0.2837487446517242 0.13690173025677713 0.22264930623724236
Ni 3.629296722220025 0.7764605488213053 11.060332770055087 -0.3117884243977598 -0.10512289518328348 1.8842427219403808
Ni 5.581444585042024 0.896480060687991 13.38043432535395 -0.9951156537790348 -0.8071654415858744 -0.25088310427195504
Ni 3.79734541764298 6.14712038559308 5.876710324895366 1.5427125475038141 -0.4437081280589132 -0.6827515593834629
Ni 5.045464701152305 8.43414667204723 5.384001901759908 1.5245423043526904 -0.32608247242292876 0.10915155672670235
Ni 8.19708567898378 2.8425002690931334 9.258162882545614 -1.4671264854373829 -1.6464529605172742 -0.7650970516609146
P 8.4157683971321 0.8545560275384779 7.649140225390388 0.16485604937785803 -0.06523248674624894 0.16650618338677128
P 2.853780404155839 5.8028559144149865 9.262774329281973 0.3557126365845357 0.2790695940085 0.4251491341098032
P 6.688566868602963 1.4749784586607018 1.380165313440372 -0.31049695927984583 0.39084521862161076 0.7017856931967785
P 7.4014095185382 1.2742239352255125 4.285226730611954 -0.29536473162409776 0.4171758860963396 -0.665770451444434
P 9.207703265898527 3.59860687844593 12.396156744594354 1.031832292473778 1.079138019538277 0.8311633471623685
P 6.360280244595984 9.759051513352482 11.41739545931056 0.7293908565085568 -2.1943660999308916 0.4880200626024112
P 3.7824458876224982 1.55001057900299 9.164128001007915 -1.4001181377376337 -0.704767915753554 -0.8532995169397756
P 5.262300215138236 7.663356196104078 7.699067247131771 -0.6731436039800536 0.6129617922838347 -1.8681653567625436
