# total energy = -381168.8811307066 ev
CRYSTAL
PRIMVEC
9.20645069408940 0.00000000000000 0.00000000000000
0.00000000000000 9.20645069408940 0.00000000000000
0.00000000000000 0.00000000000000 13.47457119309425
PRIMCOORD
 96 1
Ni 1.5868053853608581 5.558016990164764 9.859020221428244 -0.6011802262678743 -1.5019500208744714 -0.10949994120505656
Ni 1.7798830640400485 3.2559900892808136 5.261482745283516 0.13978085157678508 1.9886999585152074 0.5170650436845095
Ni 7.858893084743405 1.2602525881669384 5.8262027328436 -0.5779531374191337 -2.025982754126066 1.891847273760516
Ni 4.825073057539944 8.762782389183752 8.665645130565396 -0.6972068155768445 -0.5741931561560691 -0.565904948005348
Ni 5.133958676334791 1.425407102654159 2.4826896811414874 2.1657934304995217 0.2704129467747665 2.369509904388003
Ni 8.91496501499755 3.5543895610217024 1.4803162143830562 -0.32054611598573185 -0.922874082704804 -0.4694199310027206
Ni 5.181951902491313 8.707654163934324 1.0296310045834116 -0.2677148311173131 -0.03558920995851935 0.4208301950194753
Ni 1.155335878924708 4.167962657209635 3.1230553894070567 -0.17576266898803278 -0.967417673643134 1.3910704257130686
Ni 2.1120702089047514 4.312798535570356 1.000350809596224 -0.005912251719376915 -1.0343213774442186 2.3991228421584294
Ni 7.335257802927827 3.190845245949994 7.285727099547413 0.13491478173373536 -0.7947534410747666 1.407010751092409
Ni 1.183369520521987 4.83465697245054 12.605339372924597 -1.0081678589773024 -1.1936181875667444 -3.569031859033692
Ni 2.0247746458093823 7.523548127376941 3.810662156828001 -0.09434997293749559 1.3748915019603611 -0.6086749919830228
Ni 8.364861188159912 5.001275312558112 8.573532752598533 0.16046331962680105 -0.12658620726338202 2.225366404967148
Ni 4.3567225106313145 4.304660033379225 10.165391558607256 0.32849879517390523 -0.6216197250691488 0.8560899352007193
Ni 6.749211993562837 0.12345113527298307 4.349308556090004 -2.694737999230436 -1.32086362568068 -0.23590539991620016
Ni 8.071838283477415 6.257836114097625 11.54218307905498 0.08161427053838204 -0.593071738228127 -0.5485554009833069
Ni 1.6597112664146683 7.63273662962447 10.981964125116214 -2.8137057707166124 0.4075237077185562 0.7758923425042057
Ni 3.1418945489474543 -0.38265230296502645 7.108886837513582 0.8540369093264325 1.632578259417711 -2.419915867644381
Ni 0.7570445785930813 0.942169725380078 6.909773409924318 1.1864828620735437 0.5074776571063906 -0.8652248076224518
Ni 9.352648875482359 7.120498933456652 9.126879091282007 -1.4750357129821308 1.5906294257897509 -0.24245862765368564
Ni 5.534439270581633 5.361901182839563 12.427757991630148 0.8000900227963318 -0.22743747165450506 -0.08545189911691736
Ni 4.649183821836819 3.2597187017100087 1.296479050012959 0.8124436592656782 3.825513797549663 -2.086653332533245
Ni 4.150111349801713 2.401815617229732 8.781391387463088 1.6963683572904786 -1.0635612481459424 0.8625979115225659
Ni 6.5683328617199015 4.375024934110917 5.594197419758571 -1.0127840175930751 1.7706128177273508 -1.5556683363335337
P 2.2547701907628217 -0.06472226725551102 5.2301274163665985 -0.3972616636709158 0.7097671687403583 -0.8916511201347807
Ni 8.095102983745504 4.881352089094678 3.4621832772603276 -0.1236212110977871 -0.5350802493150074 0.5004505750562801
P -0.03854464606743119 4.084101100129303 10.77839017228758 0.10502339349094171 -0.29146333968716254 -0.4236761491087026
Ni 4.392857828617955 0.9448211831075054 12.5612377133701 -0.5876320552697945 -0.19516421344309615 0.46260316519120326
P 1.3302492308809324 1.9605136217210384 1.876482665952564 -0.40443169905679377 0.17499262359122764 0.08886838099763404
P 8.985514044738093 -0.0440123569852059 8.384497626308626 -0.9685954960013189 -0.6034952475542962 1.8211216251101796
P 5.233710566878802 2.1814592258895433 6.8398669904246585 0.3442694277446006 0.9829188546025266 1.7126321274475087
Ni 3.113906939602388 7.690295357790705 1.3258328966036863 -0.9100753882782391 -0.08949804416183296 2.8323274995828576
Ni 2.2114262220797385 0.8137351384825934 8.864407792392804 0.03853183752661106 -0.753103112523832 1.179385074686498
Ni 8.817266162902206 7.976367392389146 6.292665036766481 -0.9663401243082389 0.6824101168836441 1.0637098579086648
Ni 4.491827170874358 8.430125715346483 4.902871246358875 -0.4062574394116229 -0.03866039268467536 0.9524692798634178
Ni 7.613624038505931 6.786599388809652 2.1703083731136408 -1.639916444950337 1.5617765061138007 0.6176969929759749
Ni 1.445523196870926 6.8119171275264065 0.10568176527399846 0.8306038751144726 0.20924820233998803 -0.02640420102514162
Ni 5.080855870182703 6.070687389503377 4.666352010621911 -0.33451080569594 -1.0740549485884148 -2.981433999435943
Ni 5.9624563581018615 7.474901243239001 11.069750392020167 -0.539134107669407 0.5788231987289129 1.2780794406356182
Ni 5.558910015857681 3.9966306144755266 3.2317145207541453 0.43159694661767606 0.9844247497240917 0.6451602313932502
Ni 0.8723028936173225 6.01061530036635 6.926899249037374 -1.1417089002919627 0.2220265850515789 -0.5551551656880117
Ni 7.20655162574229 7.95568970469539 0.05441196340500437 1.1629901782682424 -0.2424444865862986 -1.2573049270924281
Ni 3.5873026213534835 3.432956479685706 12.432838110984296 -1.6998041224449048 0.30982872956822766 -0.3915682128305643
Ni 7.600062937004193 2.0801790645720835 3.346301685541132 1.1532750078630074 2.109401939083671 0.4188219063401949
Ni 9.111854164159919 2.354374778099755 9.029269541755953 -0.7765171205723982 0.24318573562769732 -1.6517167800193748
Ni 8.726140716422776 1.4079700855161474 0.010955676026522827 0.3341624212175858 -1.56507060348404 0.5846272070051995
Ni 2.682704420229069 6.048067140766262 5.297244281382192 -0.2310755826277246 -1.0323935642938864 1.4602896650212078
Ni 3.669460985101962 8.334544346852903 10.910818517387002 1.3061060077555313 1.2956192492915943 -1.382339473597974
Ni 5.292825185169813 6.1572832623651195 1.7835481519611902 -1.090081148813342 -0.7529514174373162 -1.3434381685470862
Ni 7.218621282272349 0.45278980437079014 2.0458979257045535 1.00495166603285 -4.125807333933945 -0.9997801491342393
Ni 0.6052854494996338 6.4197867838308715 2.4118267114408587 1.2241340967674144 -0.5258232494931138 0.15972669857109265
Ni 0.5031150244243883 8.946303772303672 1.768388810662642 0.8245833799520056 0.4024774035439004 -0.8138544235702757
Ni 0.8963805234594782 1.420196251703729 10.799410339937795 -1.1284875165056822 -1.8364628834529404 1.9204569670774088
Ni 5.28951086301053 4.422778792555937 8.059625926965499 0.43250223204076477 0.10048256819779469 -1.1814324441338298
Ni 8.703437609631678 5.690258444320203 0.5047758680842074 -1.1368371740219583 0.34331811957492486 -0.2744215537135274
Ni 6.942216020638488 3.074365234952039 9.786957651234962 -1.248978923725236 1.4384957090745678 0.27503579025875863
P 6.76248769510086 4.507993697851311 1.4310534187105175 0.8351529279377359 0.350188621442513 -0.23895575670674976
Ni 3.29357081998692 2.904708766198457 3.299572505030357 -0.5170465317417483 -0.28989548097941037 0.2251121659554381
P 0.18683110205398398 6.548658677124373 4.7293047981023815 0.8652870283189549 -0.8469051833776576 -0.4332910464906473
Ni 3.1504749607598237 5.8256485045269635 11.409754733955559 0.28675873512264166 -0.4551536508916935 0.23591902676295498
P 0.4089137028521326 3.9093074320288297 7.264949982188877 1.0198964602681402 -1.538247569753925 -1.2167558020254723
P 5.606534983996507 7.667187167180141 3.205789156308189 0.5857158120836881 1.16991184508874 -0.36520694922821617
P 9.55003517296862 8.396973287303197 12.89357400273197 -2.1219288679060875 0.9149347732530695 -1.1627724058304811
Ni 2.6274565111238894 2.4892953093339503 7.218071657180935 -1.2103157028270832 0.8365516080574754 0.3297054138874967
Ni 2.7174679770997834 5.071087826263256 7.804417596830348 1.4311950616480964 -0.9515627088887483 0.1703013887631454
Ni 4.604532537190907 6.671877809846206 6.625514125417997 -0.3807076159669766 0.3462548336057456 3.208977914761325
Ni 6.982245667162288 5.956315655656744 7.114882998686754 -0.4315704642551148 1.735087371127231 -0.5122295699690791
Ni 2.0452221722420774 3.112820578450178 9.716148999591944 0.884607840134754 1.4727816268406313 0.24406865245328285
Ni 7.769802263811758 1.6452847585713397 11.388410499249769 -0.8918889471771995 0.9309869416199257 0.06778327819256068
Ni 5.821496395377416 2.3726403757775882 4.816674012801291 0.5621591078096705 -0.9516755803175286 -0.2193132998854739
Ni 7.856628297934561 4.0065275487011665 12.615513421308554 0.15563170256611258 -0.8582617460410573 -0.34324972823083466
Ni 5.692808631092763 2.9822454918248225 12.137004476981721 1.9433487840739176 -1.1482166195034935 -0.5497617625865823
Ni 3.4212919069751138 0.10150387806321186 2.9711020042092735 -1.0128938036980621 -0.08827831282211894 0.8784803870807775
Ni 6.5176329391332954 1.0768048566505568 8.422320486661368 1.5486921621260168 0.108609053959671 -1.5592465406030953
Ni 8.447047171259717 3.187309968980091 5.234870579634553 2.0242315757629137 2.684138626448035 -0.43618610865025526
Ni 2.2215625240168824 9.45557699142902 13.045931551104177 -0.4628520479772158 -1.654274770554538 -0.5117942822038734
Ni 6.83835805319714 2.291522340929107 0.9803488753649436 -0.7999223868702159 2.4028396288883846 -0.910085158470252
Ni 3.129263298940405 5.341831120875008 3.1006873974120652 0.8791252197536279 0.3907518875768561 -0.5659304019266447
Ni 1.4904875008318819 2.414934809110232 13.045338655695682 0.0167147416515196 1.1414029390157696 0.14940783314358785
Ni 8.105690401754329 8.69062223061578 10.904337176275511 1.1255559446811843 -0.8058804042258637 0.04477601866410998
Ni 4.5155521936645675 6.563702017147346 9.274116011918121 -0.6114181019457986 -0.6771139014817112 -0.23575241927810367
Ni 4.105239110345182 4.079101997539049 5.641829753057751 -0.10185656572718588 -0.2808889066054259 0.30923917561334485
Ni 6.918214804335006 7.575564572376817 8.968378078529549 0.5857366380192944 -0.004037660404483369 -0.9370799418915409
Ni 5.409894408996086 0.8209456304691252 10.410211330063138 0.5713562009279064 0.884791931121102 1.5173846102619868
Ni 7.2626004960359625 6.854782360786483 4.7352742605692715 -0.7519977952747953 0.10926751347927632 0.5658607250309738
Ni 2.2779152071751567 7.441914531303681 8.370888651264588 0.23187288171803935 -1.6121719278472173 1.6336311261622576
Ni 0.7104083832317752 1.4605481239930145 4.606025823452673 0.25205244198970783 -1.6183546596191611 -1.8123827025752852
Ni 3.7557898709008732 1.5949070617502195 5.384236031612962 -1.176156283336555 -0.8843003361966641 -0.9993420331555564
P 6.300627695754161 5.476843716613627 10.119119938683472 0.10329046996023501 -0.044414521559633185 -0.11648588560458648
Ni 3.9910146797056285 7.248229226895289 12.884681492249602 1.4948720309817674 1.4746078814160928 -0.19725194921006028
P 6.168183699688988 8.326774102679469 6.636361165329299 0.3178626556162977 -0.5035765222797715 0.41506526751124
Ni 3.3835914924132564 1.6053563830024071 1.168803074631933 -3.013868722925881 -1.4795042902764455 -0.8824709962974091
P 3.6434067303498114 5.299242081128206 0.15108521692105947 1.3257744327187362 0.711784199170387 0.014593324433142608
P 6.397691302768977 0.746631162497619 12.995873318113409 1.6751523853344956 -0.1801325159209543 -0.5419931743847569
P 2.94808956068331 1.498405048212394 11.090595637111976 0.8759519642319687 0.21085282782294656 -0.44629080118442493
Ni 8.743872339974946 8.546734616650632 3.857001904485059 1.8095362342654255 -0.055121623564492156 -0.36980048213616956
