# total energy = -340889.6330668827 ev
CRYSTAL
PRIMVEC
9.09803231593487 0.00000000000000 0.00000000000000
0.00000000000000 9.09803231593487 0.00000000000000
0.00000000000000 0.00000000000000 13.31588993757386
PRIMCOORD
 96 1
Ni 6.55075596512831 2.3202984172008914 11.630004408761376 1.009023007888746 -0.576432329899233 -1.916230330590571
Ni 4.570441908980225 0.39045478425129426 5.924425600993824 0.7097800242561647 0.3795408493523851 -0.3917003675330544
Ni 2.6665786164577843 1.7875631483564745 4.3963337787377395 0.9495292233984873 -0.6859536112605283 1.2913679302144083
Ni 3.1903159315683247 4.458727172986022 5.054671929556909 0.36932379961006717 -0.006621619081575693 -2.118770524782764
Ni 3.9004173359455208 2.6421413022725546 2.233646939999491 -0.4305913881712971 0.7885578537870161 0.4843963498068948
Ni 5.225927826740172 4.811785406147603 2.567610223417231 -0.5306816060266796 -0.5487744589726484 -0.24795590332283102
Ni 5.172322221684561 4.478160569523493 11.691803701514388 0.06805427246576021 0.637543852498573 -0.219823406752673
Ni 5.848624436859178 7.98328660736036 12.360341656106105 -0.8168826688736383 0.5506603631414516 0.45050381082450797
Ni 2.1388381672290375 6.426222101923762 0.15357205221608924 -1.3501790868153458 1.5652374680792076 -0.36915950611806103
Ni 2.9820346830044913 1.4055276829983339 0.22911301263305095 0.4038909960619754 0.6588423568660331 -0.08326363321634693
Ni 8.267600110073843 9.03992295589288 6.5527757282515875 -0.7647334976739087 0.3062327846868532 0.46784795852991035
Ni 8.826228378237383 2.6154658721939645 0.7978773983445292 0.38199650998172924 -0.33440719023854015 0.9631223887018897
Ni 7.073183163618348 0.5107489645033799 4.331512119725483 -0.45931858090266053 0.928836470935826 1.5193998409198026
Ni 0.9498709419935532 7.4663273261545084 2.421028189253455 0.5461187665173564 -0.45670865408363925 -0.9153852305269268
Ni 7.727349866725704 3.83081739048126 4.08422305858936 -1.4505696095199663 1.2075237419042428 -2.4495182638918456
Ni 7.645576754329262 4.344528674232112 12.756396279106843 1.1249172826559206 -0.3821204371541032 0.10495680191906441
Ni 8.653620513486016 7.518486344108314 9.06784117715453 0.09768983594400596 -0.3013911403238358 -0.695504488173757
Ni 7.127016219476129 0.9959160823850073 0.27323937805739223 -0.0868490365747601 -1.5108714917338173 -0.4993941087673077
Ni 2.0323729957489354 6.750621534011824 9.125805649382944 1.1695472626604697 0.3177027329996657 -0.6803452639348154
Ni 0.3980452724213377 4.954278784691558 1.5416205959692024 -1.4086531717918385 0.0013616562342170097 -0.7909497510579604
Ni 6.651352905912406 1.9888025200850998 6.711474521548606 -0.7428642084046432 -0.009022258103268333 0.12742875776933538
Ni 3.5284260980112423 4.785355622935358 0.609656400728951 2.204146319246107 -2.1249342303913146 -0.25635029803411336
Ni 6.091405423096276 5.792889892295249 4.645381489476247 -0.008633250194965776 -0.2806665061819747 0.5678574437460284
Ni 5.715247286466229 2.9501278844759735 9.191998381830686 -1.9471506743185112 -0.107587297563376 1.7500213667292441
P 0.3283461584073305 5.84463040077306 12.348862669022148 -0.04283123623291333 -1.8559472174297973 0.9561711541950373
P 4.208303839795985 6.260865368745599 12.43834545380897 0.2345072340170929 0.921692146581561 0.42840955002862996
P 2.5303810761179166 8.379878924057431 1.0753082397843248 0.22023941124416907 1.3283061980016544 0.21472568051479146
P 6.3653380711986856 7.84761675288153 5.765806870379169 -0.055601391414388114 0.14644180853672842 -0.23017055431495198
P 4.997039535499665 1.0315985642295602 12.412526148549752 -0.7177702415504928 0.08088279168899619 0.35055834607710595
P 4.054911018812006 6.2799166479354245 8.113917061866296 -0.032070655282299604 0.45516290686307415 0.38603931259253516
P 4.767714538718992 1.1974374931083245 3.6657845472453894 0.36167219660208033 -0.5600289488405452 -0.10212833133133378
P 0.4451403257156122 5.773329123308562 3.611415617297693 -1.0972144174240137 -0.647165177638421 -0.26546023075518155
Ni 0.7142391893702874 0.021626932073607098 4.244573144710139 0.07349806918915085 0.19953380326570153 1.4087986962307675
Ni 2.0225016309347232 6.75037588714548 4.7603906228890915 0.2725276791249242 -0.011444751501831904 -0.3775947813696078
Ni 6.010851446999471 5.815762344961544 9.343866372636912 0.00016506482295455444 -2.2213477707260583 -1.3999695279749116
Ni 8.504849492802148 2.544610398301721 10.01738368018975 0.3908513892691979 0.5653907273730908 1.230397304068307
Ni 2.456132036257285 5.292934833059686 6.972293266201056 -0.5690794890785877 0.44544799356815545 1.143162602019354
Ni 0.6957447097441765 0.5665562933240043 9.362907643991441 -0.5059324241064577 -0.9086419982658223 -0.15162746650272593
Ni 1.658170936017557 1.4197388091179646 11.55289221820302 0.8791424461448085 -0.07826566578112328 -1.5537132694896918
Ni 4.247034162389626 6.941161620006336 1.4894351937223458 0.18775943633859277 0.9146766344956763 -0.039897093305253865
Ni 5.640188521749869 7.841066169779011 7.789995276462791 0.006418244821517978 0.44736372253362955 0.5665922038803597
Ni 5.1952219684471155 3.076763393092581 4.703850902485478 0.5772339998649221 0.07962860756692093 -0.6049247809119711
Ni 0.9778564886926469 7.592880952482336 6.891519117727748 -0.2708294654868949 -0.37002828187625947 0.13948748870608235
Ni 5.023296456102262 4.57054198733318 7.0190980922717605 1.7449537223983496 1.8946564610745367 0.5452620749440158
Ni 1.0096814049323832 7.400039064369855 11.224695267521913 0.6902769212262305 1.8781669480599459 -0.412151950519187
Ni 4.661085602661327 0.5839590090996954 10.123205620801313 0.5419882892887504 -0.2287381927437996 0.24520508005057123
Ni 8.061038389574422 7.239613464582757 4.713279193137062 1.6573814345043196 -0.06657177438296277 -0.7034589671341434
Ni 7.528039277799486 5.996285497628453 7.196040259509293 -0.6598183476260572 0.798176864934019 -1.2639293743874813
Ni 2.4002337271157925 4.9606837992806865 2.8127021098043845 1.3205419806752032 0.6745248005982963 -0.3528803093420632
Ni 2.7042626653614397 5.347331966906851 11.137170379240176 -0.42247801503554333 2.6225252245116125e-05 1.086038346202536
Ni 0.9348500910181944 3.3736230820538053 3.8567213074388866 0.9807156763036208 0.10079470012157479 -0.8858802790892744
Ni 1.6035827434965682 1.313628460889249 2.301971341365178 -0.8584787471478699 0.6074640023940571 -0.39216625142587946
Ni 1.049812824467397 3.4982115334508754 8.171415714851861 -0.5230477436305057 -0.2656288951225618 -1.0458278354219215
Ni 3.7986740431184844 2.875123707952135 6.624748440484094 -1.5363146143972704 -2.996586024586033 1.1295300988375838
Ni 4.218284380995239 6.885008565966412 5.827273175157803 0.2119856558758091 0.7609758304036893 0.8761591951467683
Ni 0.7116326031774103 0.2640276205694754 0.22118862668542072 0.3739831527589495 -0.3907814552632109 0.585933584521449
P 0.4374952493530477 5.622774888335674 7.810061896033507 -0.3285779851512728 0.9321881610168784 0.5859675230831779
P 8.532134491030556 1.770941043733833 7.918639630564171 -0.01342295827412527 -0.5030329910714757 -0.3899815850697348
P 1.857053917435693 3.322028142089384 10.144337619929397 0.019413371529605275 0.5586135565502572 2.122197548186442
P 4.06029705380741 6.370596733744874 3.678460835351972 -0.5355888135203098 -0.6435602338959819 -0.24960115223573787
P 7.044833695635781 4.276348021773398 10.660781042715925 0.564039355551519 -0.24500504822462324 -1.6492901728557532
P 6.64789565371941 7.7377398193688665 9.828338400867105 -0.7791507015405033 1.1706572078951967 0.4157062435293486
P 2.5363675812310515 8.675810613745798 5.7646887222356975 -0.6795893596053973 0.027369393151888348 -1.2200990074660922
P 7.095455146166912 4.145927731808668 1.6865103961648285 0.42395331402948916 0.3566112371394052 -0.8511619017714824
Ni 5.520203674588736 2.9065210166837905 0.28841580538143585 -1.0218294156247951 0.7534602387529347 0.8499953922672071
Ni 1.5333186416899687 1.1785681745602359 6.912304481833324 -0.3827593562896827 -0.29401464535410654 0.43056876246347786
Ni 6.96331532813777 0.66252415538232 9.179374862310206 0.44068965294756357 0.16389394257490483 -0.6257818268666384
Ni 2.8135482267884595 1.7516714117739243 9.066243562720084 0.7221213194303371 0.2777948410611345 -0.8202618697585162
Ni 6.523898574407984 2.088698912398509 2.353423442225836 0.5955952759809291 0.5893037865452625 1.0557294108063495
Ni 4.4768049627425555 7.154237531479929 10.426009054124863 -0.985443420796593 0.28604833931917834 -0.667765884607908
Ni 8.38022464927673 7.528457787275482 0.06768480970998275 0.27193966783193807 -1.2312560525241762 0.7658884372139584
Ni 7.417197952885619 3.878300019942434 8.278928069825158 1.9901554600148115 0.7326916387470155 -1.0316901104689589
Ni 3.396813965843138 8.515284935605743 12.120642173336815 -0.5452728735772931 -0.10334446312662202 0.5624172465670637
Ni 0.5032358096060746 5.193047538778362 9.961936633439764 -0.7435164972766614 -1.2477982731535735 0.8010099635074399
Ni 8.677511945746037 2.3031759208134743 5.578425621125205 0.7672585780886078 -0.6044072178456042 0.6569068304062171
Ni 3.7597526618510195 2.752254784619476 11.254270240426576 0.022404850057761414 -0.46760678905338177 -0.020839305342854435
Ni 1.1089136409034541 3.746387652715464 12.44365870454768 0.44906450727482017 0.37735335478276305 -0.6383573495388039
Ni 3.1616480324627187 8.572902772811648 7.893299791595927 0.9080943532924683 0.0328296449355112 0.150259896731238
Ni 5.539127581329345 8.062848897959702 3.428109376615421 0.144475428838977 -0.4146220093262343 0.08028835263810688
Ni 3.0685569681502587 8.584348097176882 3.2379586863942262 0.3591440308635879 0.04989842749233987 0.4767275204077273
Ni 3.5921396167153232 4.410589485214596 9.19061366134707 0.5541287813060263 -0.5535585106248532 -0.6927978878758714
Ni 7.647569223356279 6.351882081742262 11.178889405374344 -0.41906873224367824 -2.3462223946149723 0.49578170882570094
Ni 8.274168889240537 8.889796328428075 2.4274868822318965 -0.6812150681342783 0.7239946251936499 -1.0719551286365927
Ni 4.871568574990173 0.4782453350699659 1.5050947265502 0.22281771349430657 -0.9665926066386773 -0.5605933059844475
Ni 6.127533708513084 5.8499982397042904 0.26343897789345744 -0.581382731925973 0.5118822139319894 0.5166210141685554
Ni 7.8768305339123454 -0.5449430082985274 11.387482716438754 1.0991987948438942 3.265251906762706 -0.6414956380574695
Ni 9.394445972220444 4.898744396833539 5.592780496151809 -0.2115423976908034 0.48865589641419704 1.3399250131875051
Ni 7.314162739502253 6.328090727835197 2.382558980180705 0.7161802713555537 -0.14161353391014966 0.6413840521802696
P 8.548620125171894 1.896093573120287 3.3107693273819296 0.49244673091519703 -1.5868123660365059 -0.306116313713647
P 2.0305169972032218 3.402818667020447 1.1394111542617218 -0.9130077314336857 -1.5961850655006575 0.7251739902137317
P 4.989952168504024 1.4079750536296916 7.997882580237264 -1.2968821751644182 -1.4209970380691723 -0.2651319008814853
P 8.762187330378177 1.3774056658179379 12.043329826072549 -2.0364078061141315 0.9687636461480672 -0.05218259554082626
P 6.648559810061749 8.06828042311554 1.1732512846086915 -1.5154778801575772 -0.4289371403973258 0.9445765073789023
P 1.6474170620909223 3.0828408785265844 6.026957693202789 0.9569028901547391 1.0925910597193893 -1.1443792480352741
P 6.8738361825637835 4.103458118027339 5.958607817347258 0.02731257177202393 0.27549473217304815 0.9654502655041178
P 2.6098068962359555 8.815247053508577 10.031006163633364 -0.5484867525289006 -0.5544673955923677 0.7136641898019193
