# total energy = -340856.5305789574 ev
CRYSTAL
PRIMVEC
9.36412285368676 0.00000000000000 0.00000000000000

0.00000000000000 9.36412285368676 0.00000000000000

0.00000000000000 0.00000000000000 13.70534033641612

PRIMCOORD
 96 1
Ni 0.9178788302189926 0.47439864581163843 11.476564301388061 1.0673088881138328 0.2360236706616193 0.44005150514293245
Ni -0.3091789955690279 9.064517908914597 13.435920894458983 3.09077916023069 -0.914448063424638 -0.39897093305253867
Ni 2.117602780896738 0.7386392149831982 7.94891936666977 0.7902624951829487 0.36092991911941713 1.5478120735139085
Ni 5.737079797297608 6.2706194348988875 6.611264693069168 -1.4154804791263171 0.09594637089033799 0.02493121602404093
Ni 7.566117763052779 5.316490211625117 7.661216987258815 1.2098819577237745 -2.012766769656424 0.5474128027384314
Ni 1.624057312735672 5.067039338359405 5.398575177650866 1.8359260371128638 -1.5643900324772475 -0.7628799894049377
Ni 7.686053450758296 5.1846433594316705 12.247434827823664 -2.348955477275419 -0.9874159711419317 1.1678667896342532
Ni 1.6453045078796302 6.649304570034043 2.734681632829565 -0.8940741277539763 1.0232165257803087 -0.27281487134803983
Ni 5.372328477223804 5.020864847722623 13.532406945285038 -0.42006606315994105 -0.8553826247210494 -0.8835038084372977
Ni 5.332175117692164 2.487878933555351 4.214844212687693 1.6368745728002196 0.702782509892409 -2.0162367304828956
Ni 7.343335912162559 -0.01309385322600119 6.592693764285785 3.107123405916668 0.7319982122244167 -2.5080139461348936
Ni 7.063432910819213 1.7975276917757006 0.05215816524982238 -3.060936880058277 0.0731972501192804 -0.005129607917081488
Ni 5.163761365085691 0.8234678690553017 5.6555220313981724 1.2986384957338923 -0.8214031824518111 0.791438774879237
Ni 0.03613334151696402 1.4378610905045288 6.933011278150187 -0.3870440997079657 0.543934614381844 -0.4107381008907958
Ni 7.217276087998626 4.164272329878323 0.9988784943861314 0.8032475945887069 0.19351947875082154 0.7802655318712368
Ni 3.24271152648586 7.949981258220817 8.173330574966357 -0.20084763698111863 -1.1495620777877944 -0.17045565495282256
Ni 3.8739002389929116 7.296281193961418 13.627316077793663 0.8828612897572924 0.055019807879305244 -1.4767994897507728
Ni 3.259791686883647 4.373363832905842 7.301520420793962 1.5936034208164103 1.5246901427844646 -0.5332182564056042
Ni 2.826167241960214 6.180358653059923 9.857661938377708 0.8429266583458838 0.016621410606764923 -0.20133537525081455
Ni 3.4100671331904966 5.602161512751927 3.2148616881969017 1.6116731338339276 -1.8908558563815243 1.5620564992480646
Ni 5.901120504451358 9.026480841186629 12.514442495349142 -1.5709494308623202 0.5362236188908314 -0.7499329423259665
Ni -0.08894980461545113 8.283138027207922 2.4081378075227864 1.2624317067960322 1.9180635271445674 -0.8191336696913442
Ni 5.7071707883554295 4.878230525804257 3.777027449885921 0.4141777226999641 0.18667828745927206 0.7097879946759648
Ni 4.046855591266559 8.561168203946249 10.395048357717702 2.222527392856456 1.827470193036027 0.855449730513559
P 6.534519149992334 8.780223133872477 10.391128535819393 0.6304470935527916 -0.8096316437381799 -0.9782224775681218
P 6.936389853737643 1.9042318736467467 5.5161117770373504 2.4633191743306804 1.1634218664890221 0.2699172380852706
P 0.9535673758922644 2.55195762741613 12.033782060470616 -1.2072730593460177 1.2072123813114113 1.113037243388883
P 3.6252453161843325 5.36824571958486 12.33553249724383 0.14755869574999103 0.9931220203877736 0.23617947951319324
P 9.372738018285855 5.183182556239754 2.1335789111898658 -0.20274022601814112 -0.20703756784191443 -0.21426391038702455
P 2.021367688567757 8.372471760867404 0.35480287577193353 -0.14050333156510642 1.438256596480568 1.1059248007138178
P 8.437234035709013 3.458901034766407 8.898151153601413 -0.2853909082408375 -1.35620241019129 -3.1061101341608057
P 2.873577796836309 3.4856262418800505 1.8306364215555564 -0.3009584236617913 -0.5887980505534376 0.5662844428319538
Ni -0.0926757891671395 2.0072653192919523 0.07855375523298204 2.6933298060290003 2.1325940609294176 -1.2370284362315793
Ni 3.4604648433115996 3.3576655007420215 4.573348726291449 -1.9929661899907287 2.709955587511139 -1.2253000920510575
Ni 3.280271023939547 2.2157668825688903 6.46930458800861 -0.04578286266206954 -1.3269131743088696 0.6941533734625013
Ni 7.220178966136408 8.902284477504692 0.7864786466938432 -2.4872540878797227 -1.0170139965140228 0.09067072431369545
Ni 9.062682540801678 4.551160436783468 10.448568066455373 0.5175766932136054 -0.24060049139902437 0.7826687419960908
Ni 5.6356476166896945 3.499344682111826 6.483105432523007 -0.08659681135463795 0.3506496202393316 -1.1488686512651956
Ni 4.271454082023649 0.41119549745370737 0.3484596188347289 2.3661181050976343 0.6627548045465619 0.730345250002026
Ni 0.572640469704899 3.0365509939651973 2.627724619636841 1.7716888244003488 1.7807625045668427 -3.790315652381975
Ni 5.681213439329845 1.5118095700337655 10.394911641521533 -0.3541308939197127 -1.0022118985041837 2.3244322953230743
Ni 1.257620450517351 6.1420874822563265 7.724357395992478 -0.8808943958389087 0.4790625962988072 -0.5306309552944023
Ni 5.705550795072087 8.644593175976889 7.666095695354893 -4.671377941257317 0.8781080913430231 1.5307682306577441
Ni 4.664719156708889 7.654758551608402 3.778904956552454 1.38321442000376 -0.13437099341512343 2.5216847587537665
Ni 5.456193563036625 2.70463965334043 8.570251403280597 -1.7278934244819533 0.41533934710823306 -1.409821995288959
Ni 2.395080474376583 2.4140428235024163 10.632137652177976 1.539206848343401 -1.3967541063614073 0.9223241237386051
Ni 1.915918299182075 1.099610238591767 2.3613612037754903 0.5159725819512792 1.34764449331895 -2.0672936970597107
Ni 2.8467776767384647 5.385934547979279 0.8288372571978955 0.19085555876541327 -0.3090931369537838 -0.3086290528331717
Ni 3.913547935881197 4.026966193961241 10.053100550034628 1.4753175058886077 0.43071480112303884 0.6033520371082125
Ni 4.922391729990643 6.669053505493985 11.182036412704111 1.3652064134621131 -1.2957231218593104 0.24150834792527434
Ni 1.5921350173430968 4.158391660618558 8.762399462106496 -0.6606647547867526 -0.9740256658779547 3.1580219925387483
Ni 9.332697028230514 8.675082760546625 4.820579365987911 -1.853274041473008 -1.913230110311666 0.10281275899286811
Ni 1.891599671685883 7.76990917244809 12.097060121812747 -0.23207625597809708 -1.9528371831803273 -0.8596635114845904
Ni 0.5885753978567164 6.703719488932916 10.056814361226385 -1.2050104885640858 0.09465567710337247 0.33875055480890043
Ni 9.792906218422216 3.9762407395342594 6.884741096780387 -1.829399548848256 -1.164815147292123 -0.0009407666467145089
Ni 6.647338104198772 3.82368981133231 10.160865687044419 0.1206050499792826 0.5993344313083871 -0.4322564345785459
P 6.71095795603132 6.521624752586766 0.430753404803937 1.2363362952605612 1.0028731862372664 -0.48585853617471814
P 1.466112649671264 2.64630116689404 5.174327841507217 -0.4129734179792178 0.5958122770877416 0.9304914900407458
P 1.9973768053774437 8.751625102153813 3.42682891340543 -1.4187321532943953 -1.3620876653274736 2.391124654444301
P 4.1625680594877545 1.514693719925497 11.89548145468827 -0.647949106992297 -0.4484775244230986 1.0091479635023846
P 2.1180241664328676 8.289824011047846 9.982819061082022 -3.5139511160094647 1.2248138964432584 -0.7609722308592636
P 8.389158628098135 1.1134410482998436 1.5939994142373946 0.3548176355740922 -1.7372350135978534 3.6181972650147487
P 7.124318438728431 4.8043944157513225 5.589640743855062 0.33477357243902345 -0.03053339270216677 -1.2360676149802068
P 6.900131969384446 3.069503342890534 12.060370551388093 -0.12321986189431036 0.0228121127985091 0.6485111501433541
Ni 1.8289349604018952 4.701791719765271 11.48099165875433 0.07452059691639425 -0.8792270354388149 0.03938750065868701
Ni 7.302096314360007 1.2245370038696628 8.829268664628756 1.5142897733867469 -0.3451153206846637 -0.6083800864504233
Ni 7.657914261067861 7.587561604780264 12.029423997614733 0.6852007922549038 -0.3014711016321518 0.0468311014209258
Ni 1.834197597542003 0.12978393589101672 5.685441340875678 1.1286314982827144 1.7288429328794161 -0.25926310080553416
Ni 0.7087873271914731 8.498063378880081 7.339305593612555 -2.3298596369862326 -1.5087423612059565 1.0189266401557033
Ni 8.534770741138484 4.131544719905588 3.8752674009545762 -2.1332594624275583 0.05266082072882544 1.2840107185183887
Ni 9.084220023759414 8.946024296154947 9.861376685981767 -0.9763738543951572 -1.1191487556032595 -1.5222072284616106
Ni 3.550285511368385 3.2987089821759743 13.131511983158942 0.049066161399031624 -0.1090242871202187 0.12577836665010594
Ni 3.461410619737135 0.8629797861597227 4.2567009061976 -0.6871923687636358 0.07387884956733728 -1.3627237562495758
Ni 0.6139465527809298 6.648855092128838 0.5238327876734584 0.006771000175246403 1.9564403271505528 0.3444802582038261
Ni 2.189828261789356 7.197096402879529 5.823234411190065 -0.017379886039344265 1.8714980206802028 -0.2234887714194022
Ni 0.44916233425898655 1.8343006028952793 9.48256045312426 -1.0127840175930751 0.7369447575964148 -0.7084211962354251
Ni 5.365689313999007 0.565112651205019 2.847023953174025 0.9533269998780226 -0.492836510154448 -0.9215327381855613
Ni 7.468599785869358 2.2779259312095226 3.149240723273889 -1.0135322086130094 -0.6601376786386889 -0.24085143106756585
Ni 5.145023754912461 6.420014653641377 1.8427929260667448 -0.43100482155963193 -0.06921769664624208 0.06018361146843183
Ni 7.235348845437074 7.541330929405333 2.5277579242823562 -1.70480131854918 -1.7658670755122492 1.914291204586329
Ni 2.380931284485653 1.256805771814167 -0.2194678877516359 -2.5819318764702825 -0.03442372889550846 -1.0315062765929268
Ni 0.5103241037974452 4.44646954136282 13.702270264135796 -0.0875208658308041 -2.2193363967229844 0.684451572793705
Ni 7.899836379421392 0.7893197216196594 11.648909112840473 -0.38537571086660727 0.9247311905182011 -0.452651196184814
Ni 9.380884805317693 6.067296231654831 4.290607459259195 -1.1358940933823987 3.2468530925405434 0.6188545036191859
Ni 9.568448189510502 1.4545666859813122 3.9617066841869972 -0.7036919090805559 -2.0863507136911617 2.1241739551865226
Ni 7.372224231695001 7.534523211966082 8.180429516631689 2.6597100610920257 0.13818702472710395 1.7231497391493809
Ni 7.241950552169771 6.146516712447201 10.034556777208017 -0.7385563250579087 0.6905350599836236 0.08100620464073792
Ni 3.55211151535828 8.379429304275053 2.017453485143264 -0.8747597436960807 -0.3374233513570447 -0.5179734144313918
P 8.547964790480854 7.031847723855542 6.47560851562911 1.3620400999189899 0.2963931728886121 -0.5533520510410018
P 3.95625770099869 8.777966380223427 6.395254975950703 -2.1710958165490415 -0.7030709876671053 0.05181312801654947
P 4.759896103136034 5.673506766080185 8.965087777809451 1.1529268804949693 0.7407538469298598 -0.5176391710204247
P 3.781860273779176 5.933473549503088 5.556597562936382 1.0437691531206799 -1.5984329809945699 -1.3424351812038688
P 5.06123358208384 2.3525767199656418 1.3493186252406695 0.32349619975299126 -0.027648872065520122 0.172419977768045
P 0.2129251749939966 5.941067853276445 12.221792113331723 0.9301901567502431 2.2933895670846565 -0.904736749674145
P 6.651561323683093 8.771982705610387 4.374264661540857 0.08054469162328709 -0.5683230705285374 -0.39455917713808825
P 3.139575075487378 2.5103060082004727 8.69524371741967 0.8233078556736917 -0.01770770169240821 -2.084012038255656
