# total energy = -381169.3623957315 ev
CRYSTAL
PRIMVEC
9.23566233291815 0.00000000000000 0.00000000000000

0.00000000000000 9.23566233291815 0.00000000000000

0.00000000000000 0.00000000000000 13.51732537927813

PRIMCOORD
 96 1
Ni 0.6346996346115705 3.5224261043737415 6.176362871306566 -0.05064044786468699 0.3522012809971676 0.38677696208950807
Ni 6.146564007596696 7.541195160396574 10.62173824172435 0.17656356762277334 -1.6763687742401 0.4946707351497094
Ni 4.148262274084534 6.4790478425743165 5.608757551027271 0.1356102651388632 -0.41086485627664726 1.0228714837360642
Ni 5.95138676080275 0.9722843257574729 0.6279326650035676 0.4778318092154996 -0.1889989651726487 -0.15244173487390522
Ni 8.749607658622738 0.7323630668714135 3.491890234829672 0.7121577804597218 0.236063008539987 0.1596246257755896
Ni 7.193943501748698 6.625183723709064 13.157236878108481 -0.7677280615258585 -0.6830132976852817 -0.05132718951906644
Ni 6.982428368730434 9.162571052989108 12.01280627609272 -1.8436522021125281 -0.2851715931411798 1.19045393090615
Ni 1.4625963900665537 8.106131374333966 10.505313485509687 -0.5177430435881405 -1.2687427366157245 -1.832625254874405
Ni 7.670983919644922 9.16496308946853 9.73915158968038 -0.4932941665171569 0.33765500775187657 -0.31839641663258067
Ni 4.579539986360921 3.6838839489037074 8.496679816825594 -0.7832477544280123 0.18434681111261797 -1.5238583909117884
Ni 2.8592409172004634 0.011491934329518153 8.705562786150285 0.01301286731990017 -0.1548716844716365 0.0014061363189072557
Ni 7.245136776673169 8.731478053954374 2.109338404467772 0.24030481453547647 0.7892553940746729 -0.11786631089188086
Ni 4.331036026701398 5.278430243145963 10.424588257509535 -0.04791225030024651 -1.5964205785502312 -0.709836588525713
Ni 4.888362055082634 0.5813184313397052 10.397755888460635 1.9946770020342488 -0.3588784359070271 -1.9094716717104985
Ni 3.8876318901104097 7.381067251206519 10.326439029424144 -1.4081767463760522 2.340378020019053 -0.15520952742702948
Ni 8.198016976394864 7.504335633024472 4.123703725040395 -1.4283683908325786 -0.3755047316097984 0.44766402738286776
Ni 3.6122798607764435 1.6250793930877006 13.232393001872754 -2.868634047323376 -0.2846298617050969 1.532025757213929
Ni 4.275308041694315 1.4961495504130453 7.446207299442094 0.9592271674125415 -0.10833703124520698 0.5281459840890194
Ni 1.8053318099559845 8.03401008913007 12.713003379062464 1.36087718995914 1.0724310398317467 1.4674969814029242
Ni 2.4113020705268635 7.298777502049559 1.4014489185493362 0.805687057268135 -0.012196542066191897 -0.7387501862362696
Ni 5.1077829148437 6.122200331022502 7.971531758706734 0.23510964348778218 -1.1489861506796664 -0.6870224188446749
Ni 0.07927799975178886 9.038295984004138 5.667909195968414 -0.6716577634631465 -0.6012409043024807 -0.30998710952296293
Ni 6.137688536335211 4.18237880981807 0.23101530993970054 1.9619250044142083 -0.3044764641173789 -0.3748241606030061
Ni 6.825459055972667 5.151116641335782 9.263355215466698 -0.7687745005125018 0.6451697444749469 0.07458358894384574
P 4.531237473668339 9.080179711549237 12.4133652527158 1.0225457249655292 -1.4101017313129072 1.0451079265367613
Ni 1.456371553822806 6.553847469782199 8.51073741808169 -0.9914091514617247 -0.43692607214007334 0.7626596458640156
P 1.1100434613832004 2.7504540535282023 10.311096747572343 -0.37481670440383835 -0.26216459072304527 -0.18990579325763424
Ni 4.226469860600936 5.525299490616846 1.5253351661606225 0.5752812470139254 -0.2326257007236639 -0.3383525480395334
P 8.44203240428219 2.4047632217723036 4.897543226759058 -1.0028598165008276 0.131278984753361 0.402750454699629
P 2.7382445082548577 3.011453863985635 5.467379882997536 -1.380411660447642 -1.256954485731545 -0.5383586629559631
P 2.384712599390737 5.1834691656115215 0.28744705239748547 0.4966563981211705 0.386324962153754 0.24400026110919265
Ni 1.8683374966842436 1.187549137581317 6.214833098145893 0.845578237036118 -0.496839460666254 0.6727769646692543
Ni 5.325596769402371 0.8065549875142531 2.907833429682442 -1.6330084049765943 -1.548270501207566 1.5765320671564202
Ni 5.378812654322957 2.0208459846560616 12.164592535289668 2.571670089532958 1.5547057153099482 -0.6955919056812409
Ni 2.1848066936104424 2.2583872134234064 8.295515090303427 -0.3236543225974103 0.5461377926807498 -0.12288073338733677
Ni 6.196381168870843 3.384685440072179 4.6146927633801385 1.009042805383088 -0.09136569349819103 -1.712683292400418
Ni 3.2079518104574083 2.9887987848967428 11.01472766970444 1.2635943596455657 -0.8269122851954984 0.5198089249782337
Ni 3.302312569956474 0.5230728048488756 1.928111625249762 -0.9778213854749611 -0.2688872541588595 -0.12310621913458153
Ni 2.6218751660126904 5.247269119278894 7.020507003497455 0.3765658258844612 -0.691603610457454 0.13909873790809593
Ni 0.42780048550224675 5.966163820135089 0.28158979550462976 0.7231867845803739 1.363505885831239 -2.524922034744142
Ni 2.906592156698526 0.5738403157513335 11.175381088067002 -2.452300454622673 0.05375842466837838 0.5279886325755487
Ni 6.985245245665661 2.0371469282320476 2.6719693971493186 1.0128295261190299 1.9714342294562244 -0.2933232757140368
Ni 1.2309382780458966 3.861227132215937 12.106751430798061 0.020078001696797677 1.344915267313245 0.6873438067398356
Ni 1.7512662441237903 1.5883676363089214 3.890245582479817 0.43051888306214886 4.206225270171382 0.35189557683129075
Ni 2.3075117000413496 5.889988079276883 11.455378655428571 -0.7220344161434855 0.13084909630479402 0.6244247986181117
Ni 5.326483392962311 8.415544525428974 8.441515207205558 -1.2813732808955416 -0.35296052776069536 0.6343605696745849
Ni 6.613168127339455 2.414950157049535 6.552887884491805 0.5112525507677905 -0.7314636798771854 1.2289055500141286
Ni 1.6250424504393697 5.052923082072391 2.4719803704102796 0.37892275615241194 -0.5066711020446951 -1.84918290212277
Ni 8.347052855423582 4.894494534705555 4.473869235075368 0.28942008400488867 -0.5251439640379021 -0.6189200667497986
Ni 9.083615377844005 3.774227195396793 0.5218324554311675 -0.7154817026266324 0.394300781270379 -0.23655974567074745
Ni 6.66566363061759 4.476931780621994 2.5419063387371144 -0.6704855975319162 -0.19866348484560625 -0.056444713251289885
Ni 0.2165855115016718 4.954341625001527 10.039100957839233 0.20752916276635228 -0.2410553195482558 0.48659001502410393
Ni 4.717280650662484 1.4263741233781584 5.146802663576947 -0.7981660663007415 -0.35330325581209476 -0.2552112993336637
Ni 4.503705964999775 2.719717770116938 1.6077643738150325 0.36212445364815055 0.7775136801577125 0.8927860050701721
Ni 6.861893742888965 0.042969841406024396 4.818885863499228 -0.4973009736837048 1.7534093093648708 0.06173141557152594
Ni 1.9521511300848522 2.431103330032198 1.5791883117649144 -0.06848570357622398 0.9256855840116702 -0.625313114760336
P 3.3925911668149804 7.30648004422654 8.113152324649244 -0.02964790477341991 -0.4631394973106475 -0.8336406050582676
Ni 2.169623265146464 7.843949399129946 6.3079544317934575 0.7852686415127831 0.6801110364368224 0.17357774552157204
P 0.22796846501861395 6.923126182497343 11.779483897764756 -1.4649132798361482 -0.9158673123696678 -0.8047565750340657
Ni 0.34222099351142365 7.869014986022426 2.088331891060644 -2.431625699882141 0.7559526661574851 -2.1447394380427
P 0.7812963752842449 6.648143579646685 3.7349857907735595 1.871293103758248 -1.7001995581111107 1.3115333494186896
P 3.997924166702153 8.444442912085778 4.694999615887941 0.21627502727978237 1.618014759781239 0.4329151512084673
P 1.3228977654034568 0.33909287476400923 0.8971974694588187 0.4611978002032444 -0.9083342372174162 -0.02821425765068689
Ni 6.138279618708504 7.567027307241919 6.038608353511878 0.055302372116730565 0.029707811477077864 0.49562487153286255
Ni 0.543972184575844 6.15982641834747 5.948623450707602 -0.7100219650636418 0.077431342805286 0.24248845245035658
Ni 5.889415468227754 6.414998526030711 3.9167934931365718 0.6961626905830463 0.16975837177548184 -0.13223723490157224
Ni 9.197093957854284 3.244414204359954 2.9107934593799514 -0.08749001259286868 -0.05851213730327987 0.6230109489897205
Ni 6.830843446966888 5.14906632435342 6.105802412994648 -1.0729632581861328 0.4328027940003191 1.2626319957322965
Ni 3.362307430845769 6.863750110967589 3.455379815484296 0.028058705909429098 0.18114193102207513 -0.9693364879324016
Ni 5.774394532649663 3.4014019884418873 10.340239879274339 0.6301956396636179 -0.30924200382682226 1.5976706489072485
Ni 8.729991112359057 8.35017450920754 13.303427249649515 0.360079912414296 1.1465150634313543 0.4675360837164464
Ni 8.987795383735872 1.380417468854585 7.408926625879019 0.20400623721475833 1.5059447438561613 -0.4864594029835106
Ni 8.523047632071737 1.2770057605144625 11.291805844281665 0.8237449432111102 1.8939375806306415 0.12119717503732674
Ni 8.545508762256892 5.636025843326476 2.0878183882488455 -0.70386031633762 0.21656376216479478 1.4830647539341941
Ni 2.431906832633394 5.011685850873084 4.53317049774225 -0.8791658431835763 -0.5266285190032285 1.9403897014455938
Ni 4.384667516415704 4.007307599378188 5.96660159051781 1.9934176757058508 0.44618512884449607 0.947033196449511
Ni 7.007928031740801 0.19290157965676596 7.614417336520729 0.8467254632666836 0.9944301976762356 -2.3585261516829896
Ni 8.197601371601143 6.953040491983247 9.54462360993085 2.257916056768395 0.5464918335860589 4.2516299235584265
Ni 4.1269648373218 6.946289223000784 13.112332165496126 0.003395398834794152 -0.21424514133394712 -2.1699197939630697
Ni 7.86613345945262 3.1118270395005454 8.693599833054549 0.08636926872486415 -0.7567260539884 0.5595509807628621
Ni 8.845196761178803 1.6886576908650877 1.1843785347883222 -1.0346443080012762 -2.324182641206113 -0.49368368864609175
Ni 4.847789791553282 8.075755281743927 1.4399191453886635 0.9724650062590543 -0.3718064568226048 0.8134934406864313
Ni 4.017827018490396 4.043215853555771 13.081905276764633 -1.1565904453894855 0.1093986397405019 -1.264774753106912
Ni 0.7712442806734214 0.7737231323764213 9.611886013313033 -0.11779123467957132 1.5162008743665307 -0.2782195873033789
Ni 1.6789048317057442 8.824730534003514 3.527386578478366 1.7088091541569925 -3.071391499732697 1.587566470593711
Ni 1.0986189473868861 1.687050685662696 12.690713108625838 0.5398475887966638 -1.0979818917176574 0.24714677715797434
Ni 7.761973662483798 6.920161534968793 7.5548602460141545 -0.7197163095332703 0.09187297215191274 -3.278297941313386
Ni 4.4899632998207 4.590484245928935 3.540714562429927 -0.5554852953339208 -0.9473761816112265 0.7698091124246033
P 7.632046368304209 2.4575080879266706 12.81637075622459 -0.6478642605879745 0.17974196535075496 1.0618095555621583
Ni 0.2900496619723936 8.51001611287303 8.036833431028755 0.02928306523483344 -0.7639310563772714 -0.719752047867212
P 5.817451189279264 5.319279576537796 11.816061737443336 0.4798020455679931 0.8414256483203251 1.1971177160795705
Ni 2.352988100136622 4.272851355580314 9.386078693221773 0.19825442233264567 1.9753417920407466 -1.017992558377208
P 8.692281904075346 5.013329798723807 8.063922551483557 0.2943326908151576 0.20420421215817733 -1.8439949301639273
P 6.680948651364477 6.779585522407838 1.8992926652868682 -0.746352938284192 -1.4610489117847354 -0.6709363119160897
P 5.983397565581429 1.8022286274961934 9.0252607705406 0.6438507685532073 -0.6785102676086057 -2.4038356742530667
Ni 7.696095684847815 4.347678689774444 11.503243397738434 0.5417368353995767 -0.6509814660607175 1.2104103194234186
