# total energy = -381174.052259373 ev
CRYSTAL
PRIMVEC
9.20334905432901 0.00000000000000 0.00000000000000

0.00000000000000 9.20334905432901 0.00000000000000

0.00000000000000 0.00000000000000 13.47003162978639

PRIMCOORD
 96 1
Ni 6.16062054014227 0.2872714929822462 -0.13020990106498143 0.09658529002591754 0.11566801768898144 0.3220286140685293
Ni 7.2605219746936935 5.069305830147051 5.12688290141829 -0.42907315175455785 0.017069553887777054 0.37649229233404835
Ni 3.11141298779642 8.118734262867337 2.621793904128145 0.0714381013363286 1.6810628372816596 0.6439487275836523
Ni 5.978449451326087 6.1751710348082485 2.4858401929929315 0.23675437818005676 -0.3237805637626295 0.05825091322209323
Ni 1.6142029797280402 0.4723020623124836 1.4693109761073118 0.051142327201769984 0.531710047291194 -0.5161309619060144
Ni 5.559292127437825 3.877637803366357 11.417818260803397 1.3169118401217839 0.31058154857385223 -0.16263693023935216
Ni 4.163447804537751 6.577927990894629 6.961352392208489 1.0072486895971429 -0.9739374770395227 1.2807395039662846
Ni 2.968650639119213 2.878964003749217 0.3046244073988832 -0.5832632367781374 -0.12093029452918527 0.6260525640295218
Ni 8.909817323910271 7.031947600548056 8.495670303182134 -0.7008886353038059 0.2185090588166237 0.08704521174596622
Ni 3.633150838912386 6.08673605489339 2.04543785842349 0.20513418017161444 -1.3395640303036607 -1.147654062131804
Ni 3.3508473136851653 4.084952441472518 7.93499308272287 0.2342562943485514 -0.002148156691254365 1.4203576047129602
Ni 8.163131218128996 4.918104010496597 12.268262002141146 0.7703012215696734 -0.7052749372969596 0.7872291076732636
Ni 8.823407080761077 0.3173434356268293 0.1417840326854337 0.3492036318214244 -0.9556600188865735 -0.8563830409611056
Ni 8.230987509825555 5.148012870237785 1.1830914259083176 -0.7421790094121605 -0.6016602512280864 0.7269087135166513
Ni 5.360140859836866 8.413002141709846 3.5893189692753262 0.134842019514271 -1.0374041301346004 0.9887398321596778
Ni 8.360377392500443 7.8393942159971335 11.240148529951245 1.5646931655399634 -0.03928594208381621 -0.1493576966319428
Ni 0.7046286418188534 3.067034439232631 1.2636492594698479 -0.21242197208227934 -1.1579063359874318 -0.14321173163520495
Ni 3.5186243647672617 0.41792591580078026 4.456061841576671 -0.25341718354771836 0.8205606319458578 -0.18385778729134142
Ni 2.2711288233478415 1.3696239817847207 9.431312206614356 -0.557743238130162 -0.30999096617770483 -0.857079295697182
Ni 4.059265894595385 1.8937547036237443 2.3241327505333604 -0.6928847911627228 -0.7805067013477655 0.36176887008094466
Ni 6.755571032034871 1.6078802790098066 9.911572404750794 0.3957652816310474 -0.7090981676977917 -0.1570653496888456
Ni 4.083001331498332 7.259242709191751 9.974827942314828 -0.31075304115471 -0.9706662624874187 -0.14423425936244835
Ni 0.4184348609968768 0.3724797787605503 8.21476568699301 -1.3195713892318177 -0.14174620283327202 -0.03928748474571299
Ni 1.2522352661208618 8.126777989836384 9.927843925667588 1.2490701978874617 0.1965865477119195 1.0202451018568108
P 0.15055574455522777 8.450800295785227 6.2689126657189345 -1.423120512170078 2.2282743226425628 0.2805361512516975
Ni 0.9811782332920134 5.16050181474236 7.926696263658113 -0.5792525729568475 -0.44801909672944135 0.34160653620045683
P 0.34317447508223914 6.680250824352158 2.2122375138487067 1.097820940659761 0.2850967740391864 -1.4497260305727484
Ni 2.77196586903279 7.529443830569659 5.531590047143963 -1.291167384167828 1.1985179388612068 0.039494458550196496
P 0.027191294427978855 2.754912063456535 12.59237818224912 0.23570485386961987 0.7903972209886001 0.5311338630727498
P 2.574839338197495 6.464708392298252 8.527782628285571 -0.02075394471789974 0.1894460800123963 0.46697198368286025
P 1.073736313529679 8.766594807786321 12.18321201396452 1.053224642106625 -0.361145634674649 -0.4905559416503874
Ni 6.106983422550034 7.341262954899027 8.626935828369943 -0.26772614397122274 -0.3933780123457935 0.654687454157395
Ni 3.79426466536566 2.802309310470951 10.271586247379107 0.9283947554127172 -0.3860606527487738 0.03452348769816635
Ni 0.5661108776703938 5.781019209975942 10.48916722122208 -0.7105876077591246 -0.48866180995146813 -0.377887115799046
Ni 2.371132412873791 6.469172016531648 11.842285917027061 -0.707319221420498 3.7776473128856876 0.7288051592084158
Ni 5.307764601048703 4.999360378242281 9.1209357061312 -0.5863339052836611 -0.25424405032438796 -0.15565278561203516
Ni 1.4118305399998876 2.8934408716237168 7.334203065931113 0.5946599086508533 -1.2866594689951454 0.8792702299719245
Ni 9.162844996175773 6.952596326031883 13.366217848727743 1.6096537894110536 0.06890119384708777 0.2928391369887666
Ni 3.531610290114318 2.9059482228261615 5.508758379106417 -1.2650732581839372 -1.6389219422475514 1.3212660033254213
Ni 7.8373510725335995 2.810684358001654 4.054089010819538 1.7078642737452199 -0.2250455743835608 -1.6938286215877605
Ni 9.08058546339619 1.2547201703332682 10.70113139121012 0.41643078040019893 -0.775354981943497 -1.0256367051860271
Ni 1.6031037409126256 5.223655195133219 0.9952989315627353 0.30931785137008017 0.8483601706566292 1.4957505769319788
Ni 2.8745463962604942 4.983355754444598 10.364839180461354 1.6506050350124346 0.2592718425562825 -1.7352488364057599
Ni 4.051940028843254 6.132890849801603 4.4388202876821445 2.073332447054623 -1.3378647882243668 -0.4230606270118908
Ni 7.48904112874572 8.135392324439392 1.8169591991067757 0.5711687675074486 0.1902238387186853 -0.23518497681040784
Ni 7.644697369280636 2.021359136605273 0.9527003106829441 -0.1182774302873705 1.7375885402825302 0.24529404021995174
Ni 0.5514232531052858 6.599988418291436 5.745507167775975 -0.5163626183008462 -2.750066339489096 -0.353335651711927
Ni 8.185937116789523 3.7098515489353256 10.20151470959393 0.024618569879628568 -0.7352172333823467 -0.35148085789137534
Ni 3.7335961891872076 0.5098241159198181 0.25489319109459263 -0.07673920183426784 0.7710111031525044 0.2928813030806117
Ni 4.102089077189186 7.614317114446735 12.968097539834734 3.2611373703736994 -1.393216011301162 -0.8446084169236808
Ni 1.112537632638956 8.487144320728902 4.065632771388506 -0.4467129763235081 -0.13140702569079304 -0.08018010919501675
Ni 3.778333668359455 4.8239445475442695 12.715278783590055 1.6132762166549894 0.41655265069004394 0.9916927441404148
Ni 5.673275603995793 2.5134622041510606 8.183623394867306 -1.227206822155467 0.8193450143712018 -0.3165511358937258
Ni 8.952548473014723 1.7743044377984818 6.094300287382934 0.6209658935352338 -3.459023610733649 -1.1451696051470537
Ni 8.110524875617461 6.702357268493639 3.6496910976180765 -0.5389525877862201 0.1794815126005167 1.0561227895900263
Ni 7.386230517794646 4.5711837723978785 7.692169163421423 -0.397925779617476 1.5000965126055004 0.9919745370468915
P 5.3703105604098615 8.150927577441399 1.4706178516560588 -1.2319728760855426 -0.40301939209029947 -1.136448680334288
Ni 4.804516277942826 4.005398693279778 1.6612854722088843 -0.340225082471898 0.8458926829527431 0.8965020204691786
P 5.832070186517488 7.055278090097872 5.364520733594955 0.11736057490005594 -0.5497008274416598 -0.4894146289570926
Ni 5.210264322433029 4.0946159578540975 6.572890077687698 0.04626494450481064 1.9505373314025567 -0.40568331207570774
P 8.793367349837766 3.8908722191346543 6.292457593298931 0.46122968188244434 0.8972574105779644 -0.13232362396779146
P 6.821715500829553 3.5029694682291024 2.380706656770703 -0.18477901355403017 1.2457113087175578 -1.3526239488114125
P 2.898778814005923 3.9856759165124203 3.6153966584821897 0.6558927873194058 -0.19490504624443852 -0.391585439221745
Ni 5.00255394032267 0.26703332867453744 9.10568759761596 -1.2273657163308347 0.5730592996619421 -1.052593179170213
Ni 7.016357127452442 7.397670280520649 12.980611333381434 -1.7527369658881944 -0.9401616661406582 0.3974863780872122
Ni 6.02454902614069 8.526102096770071 11.001351996143685 -0.2833340257118088 -0.25888283464797995 0.52542370006185
Ni 1.591884858561058 4.4823530484788225 12.393466201720466 -2.447497376807075 -2.4738807518966106 -1.13307744986921
Ni 8.231309627038275 2.4213366813133326 8.147214026146193 0.23928228680823305 0.05134647279277609 1.2158751991927317
Ni 3.398548271214431 0.0006976138492607199 11.099588542674145 -0.2128929981814269 0.6978027972896305 0.7819619457370532
Ni 1.9110293895744352 0.40995029361384966 6.3018192398354484 0.19375139225596955 1.985514361698374 -1.4682775683226905
Ni 6.88492410131402 2.6133553534897924 5.94497134924072 -2.3309734388757017 -0.5091879549292779 2.0170111467550744
Ni 1.8470845211751807 1.9279543482656023 11.794817804225847 0.7592200240548473 -0.258531107735516 0.6125822974572289
Ni 9.243935703640629 4.627535877925891 3.253484164968621 -0.46954745771952033 -1.1986372380478905 0.27869575560884907
Ni 6.480262051998128 1.105441850610196 2.729863308660587 -0.7031447783278342 0.15703501067154244 -0.1977836533438142
Ni 1.830435662952059 5.937227651446947 3.766962010415569 0.25269033268402286 0.6628080263820005 -0.6131230004520473
Ni 4.735923718331479 9.05011317507294 6.400069591389311 -0.20844370416082167 -0.24514028825090683 0.2812884560366898
Ni 7.145296046029522 5.755378679843484 10.46313002675053 -0.577887831398837 1.4574663366397997 -1.0167345176003908
Ni 7.643979508063718 8.780270984303492 4.587825267941853 0.055394160499588466 0.8545074212049477 0.9083460642919582
Ni 2.823311352740251 8.798410785054056 8.16164027560155 1.3401214454690273 -2.183447910356491 0.5095931607874966
Ni 7.327052984143637 2.096633327543313 12.021275408116471 -0.6493017643654495 0.5542619644497809 1.233314991935734
Ni 5.298846555930845 2.442835704425114 0.09782423649818 0.1283705528573144 0.5283388168261158 -0.69351522565787
Ni 1.812710012903561 1.6205809005398828 3.3742836417477298 -0.11287322855266367 0.9144398358945219 0.35334645034520434
Ni 1.3764344599965006 3.43237057854996 9.765125955494973 -1.2704075259126573 -0.21416877957005695 0.15952692385546074
Ni 2.332367907160253 4.932829368792337 5.981421212697146 1.0957344904443775 1.7078966696450522 -0.07424214644402698
Ni 1.2468329002961123 3.215245170479262 5.048419750074329 -1.0663406106632927 0.04317499272557726 -2.2193793341457777
Ni 7.3415114453202674 7.478420464074917 6.769404585818827 0.9394561554332014 -0.8766554180568966 -1.3757533357400242
Ni 2.243297896168891 7.59191616313934 0.5232214309642618 -2.2801206178898923 0.2451857967768616 0.3699742887098725
Ni 8.808249165065398 0.6880708967501864 2.833770958804695 0.5691491659742585 0.9155487526879844 -0.5289360840904826
P 5.311261873643941 6.259225220630124 11.577990584660638 -0.008903216026900796 -0.5645427775504986 0.34268048599092593
Ni 5.191885234610158 3.3416439647503275 4.158926199206065 1.5668243529503532 0.7004070676816969 -1.610168010043311
P 5.602842374597478 1.217124489934455 4.7073316741956175 -0.23323093840783057 -0.13308544183448046 0.7060946049847775
Ni 6.125482153909059 5.297622510522511 0.11350214140867652 -0.8910931907487816 -0.3882028959027572 -0.47065945983677654
P 5.1320174497890365 1.4502361151049665 11.52625211795366 -0.5269671332895699 -0.0577444058993199 0.12229529319751198
P 3.6291013653810573 1.734996934497789 7.48904112874572 -0.1618234331991213 -0.298768357989008 0.9171307524631237
P 7.6546645961770645 8.657102565508554 9.452567340979364 0.024279955593287217 1.3654031028539517 -1.442379103289374
Ni 6.777005631704109 0.4961608240911576 7.300420332996003 1.2510268073932003 0.47695429170655274 0.8659184912553667
