# total energy = -340860.45300184464 ev
CRYSTAL
PRIMVEC
9.37193410760290 0.00000000000000 0.00000000000000
0.00000000000000 9.37193410760290 0.00000000000000
0.00000000000000 0.00000000000000 13.71677289609316
PRIMCOORD
 96 1
Ni 6.953965811793236 0.7001125384737329 2.6561429853181147 -0.6147651640411606 -0.41127906099593037 -0.5318769118863613
Ni 8.763958093812237 6.220733795015225 2.3970605500532174 -0.9251127422273357 0.031240703181836516 0.6533972745910618
Ni 1.4645709028456273 5.698407785696248 3.4574227420071875 -1.0574366233054435 -0.7219912216103759 1.2205250392599172
Ni 1.4856483828836369 0.48418973463215376 0.9226959759582705 1.4759811076145355 -0.6176080328065944 0.15040490694953454
Ni 7.404708987617187 1.7137144018809514 0.4751355089919932 1.3329956330575237 -1.0512520917612862 -0.07803323805534303
Ni 8.243928208374678 8.223909756902383 1.5034681785902937 0.09591166099766063 1.8200975547210396 -0.4846274919810944
Ni 6.453195251156972 5.545448447456874 12.224154928345547 0.5360549545234511 -0.45831096557375267 1.032978490263079
Ni 1.0457110472036721 4.022855899917908 9.678403956085553 0.318373019593813 0.6981092727864558 -1.1865047164504146
Ni 1.8386891445696383 3.3174491558090167 1.6324878480839626 -1.896911832767617 0.12757171110510288 -1.1836577339199228
Ni 0.5076364396384196 9.29410029626225 12.645932267107037 -0.6262893626306762 -0.24289057298478164 -0.09429855087426985
Ni 7.66599851338851 7.459675381758106 8.595218292750275 -0.8744375844699714 0.23480368221158918 -0.12708500127667144
Ni 7.364381554712095 6.0025270508067 6.713043373446816 0.6478017827811553 0.6349115570820485 -0.4181912147347314
Ni 7.866332979058805 5.363295534153738 4.397035059214283 -0.08539533484736905 0.26961024836781305 -0.3896635396086837
Ni 4.161438691079334 7.131348410583546 3.586839781511355 -3.004889145135089 0.23373436040681037 -0.7083826296880057
Ni 4.78528149175968 7.958009239499804 8.502026590547539 0.5177893234450437 -0.8516925774639719 1.237328226860185
Ni 2.1641295600075567 6.6697056752735095 7.318021407756105 1.251508375015309 1.9552833307279744 -1.5181302301787598
Ni 5.88236948230189 8.154323145394061 1.1574132566643336 -0.6325669681092718 2.922453921357309 -1.655346149241846
Ni 8.040510376349335 6.362503043808008 10.541285436336139 -0.612138782161907 -0.41319016197571423 0.4824878199302723
Ni 1.7101718107496187 6.746105682952414 13.371713596188197 -0.6155994870169978 1.565888471399645 -3.6075842653855936
Ni 3.215163865842438 4.941108641867277 5.839120817503577 -0.7054495152016109 0.7880649733109976 0.5354376326544262
Ni 2.6504017384211447 0.8225446754112805 12.347551437313292 0.5771854060151737 -0.40260981535670665 -0.27342268013536786
Ni 5.948151088521004 0.7096278632770193 6.780982398921044 0.39872127893557785 0.6936568934420569 0.14852157388389262
Ni 8.358996816603527 0.35071089884142626 4.741106879861434 -0.7348639638079859 0.0013976516784750123 -2.3970273930819816
Ni 3.1766639601082707 3.035335192223352 12.744857718659377 -0.2261789166570556 0.4016258541768825 -0.28270821920235184
P 0.6170603318926603 6.92888651584761 10.928825225042111 1.3259143007307101 0.22790926908460107 0.19107513097538706
P 1.210038541639625 2.0313761119246734 4.660836263353852 0.40305127376949945 -0.9530405789858555 0.3442426882717233
P 3.0041079074360475 8.071606454057703 11.767633017887789 0.20396895621891967 0.4506501065943852 0.541565599929035
P 2.8481589221837225 8.635525107400106 8.151069209836393 -3.1217910352311717 -1.2738520328178318 1.5428007363422462
P 7.228244838379446 5.0156342627042045 8.758502690908669 -0.26731553879636544 0.04749238915400853 -0.10613256739472045
P 2.1990306430051323 7.118808762610733 4.792613155892066 2.166705915011462 0.6903962204129143 0.12000701138396751
P 7.699240764030937 7.564444234290302 4.326311632086301 0.3864951691830311 0.08416506198469376 -0.29023075283164207
P 6.1133220570358455 7.926407077344104 6.931593130447423 1.1037666167202347 -1.2560700262440625 -1.5743389161598433
Ni 3.5357121316228017 3.205173383974711 9.259685616650168 0.11246365181907084 -0.31423225795256204 0.8892201420957846
Ni 7.674170840019521 0.07936809924317065 10.163442787957123 0.2914697674450658 0.10958838715380481 -0.8038242930277834
Ni 0.11910791187330474 1.0406876904671791 8.227567622824498 -0.2370899071426046 -0.23702691511515306 0.723904893693321
Ni 3.084650310035715 9.084431384118922 5.476449456223508 1.9048809670160227 -1.724678002868449 -2.2391935406582273
Ni 5.5205659621296554 5.889239110077728 10.097424071802498 -0.5136166801245928 -0.444145472706648 -1.235004720933331
Ni 4.986365712166765 6.06866479052579 0.5588006400703918 0.09372673753119988 -1.7299842455727108 1.0210647695446284
Ni 0.4328596509646669 5.098332210172145 0.7639504055377192 -0.009450861000254692 -0.5248904532661992 -1.971841492196972
Ni 4.511517921555014 3.2508147035768036 7.078033351250408 1.1210781114154886 -0.7283508452798165 -0.3239697969553001
Ni 6.311903971008893 1.9320242373657859 4.4911180323603785 4.756409207897047 0.3909138670760171 -0.01061942738705913
Ni 8.379568212194203 3.464944656404034 12.8344140475821 0.0586715456992796 -0.07121338692003219 1.9349448762809383
Ni 8.107669656897302 8.887255260277357 6.726718899845865 0.14535397478918838 -0.9099087807933879 1.370058342237776
Ni 6.6999676508371975 3.5188895097160757 2.5357782970672655 1.117869374670204 2.3472261532891383 1.4534173633814065
Ni 6.229534041238298 6.802796512987949 2.758346739457067 2.093014241754266 -1.6627876931215557 1.6483566052978902
Ni -0.11902731323909982 1.3021177952516496 2.3333463925208013 -0.6614499696922091 1.1679709193122854 -0.6771897490249692
Ni 3.5168839157951624 8.11154026572598 0.3872164569757324 -0.556147611508268 0.8691735078575547 0.616379816826448
Ni 5.308319768078609 6.154061855046173 5.2951540749005765 1.352309245784471 -0.20811743116965445 0.3040326917117409
Ni 7.254467510298677 2.7398193627175647 8.165348288798558 0.6766346478524476 1.209377250173214 0.8575161261242844
Ni 3.901273797413196 5.8816384714335195 12.07351701820996 -2.73941811574663 1.0828162397208125 0.9994322788765175
Ni 2.4824004457749207 6.157060873993333 1.570611526850103 2.9035915372351675 -0.009242087423558277 2.570376310422199
Ni 5.975760806703296 3.4541950478653067 13.52412092750261 -0.8921833384891666 0.37898703373144405 -0.7433162083403972
Ni 4.882777723345013 0.5859839352461349 13.362907726804599 0.31988714224549425 0.8213198787093855 1.26155521772835
Ni 4.108468518925119 3.614998695038347 1.4840317242324335 0.150063978670348 0.38996127335476066 0.17578580891648438
Ni 0.6953487843148534 4.81615264304701 11.795039365097725 0.8766849857432515 1.3541283012710807 1.187692823221245
Ni 0.44497662470461463 4.645208563058885 5.6407619555647255 0.34777127025027205 -1.7465457494758179 0.26359798073546215
P 4.708225448686086 5.138219162169373 2.862265557556427 0.41030409867717077 0.26800742265706745 0.8017231875243805
P 9.662932767091892 3.1305446718614744 7.8905603661847525 -1.4991670588126955 0.85236080717559 -0.7462027858595729
P 3.0623451066162124 5.162098850536135 8.29364069619754 1.2768265420651235 -2.4253961740326617 0.6868702095375266
P 4.169639133512975 9.161046946284651 2.4534093044900924 -0.3096040151519313 -0.4084572752764192 -1.1968734612792484
P 7.418288920287297 2.0686576662115574 11.39643038489647 -1.498413725586439 -1.4829860781774589 0.548333514780488
P 4.522248786225322 1.4263896428745957 5.045344231342931 -3.6556757215761815 1.051073400091577 2.5454857178281065
P 5.649551892660168 2.141711893377535 1.573190683144661 -1.5352265235394142 -2.837217480685307 -1.362588516223292
P 7.351345194226158 6.572874851017079 0.3595102078710781 -1.5970983213435461 -0.7566484066729292 1.0227665827270838
Ni 3.5794134608434502 0.8725214517788612 7.305402098342507 1.443484934759043 3.1195063529620533 0.4835000632448706
Ni 0.39760337166053716 6.980825775238739 5.692515650658499 -2.4180240499383063 1.4248153833739978 -0.28772315591844
Ni 8.088822697201243 4.0008318545247015 10.797021153894688 -0.523246232794557 0.4162916837191734 -3.3562620166936905
Ni 8.82302002320287 7.326125319267383 12.82788462101808 -0.3015621186840613 -0.5990716645653038 -0.8189007277449315
Ni 9.56312166775672 1.4758078519632678 11.033141413151968 -4.133466907361733 1.3551132908921695 0.5102585622856374
Ni 5.196634428099526 7.655277020652412 12.492043232994043 0.7006387240765287 1.6054281813654803 -0.1665943722252034
Ni 2.6695017403408703 1.5000624176984252 2.7429702069989244 0.9048341944839579 -0.8009546847894722 0.9750165690363144
Ni 5.312096657565189 9.097936341315352 4.280826823785514 1.6420152364608946 -2.176377633773271 -0.1764967189405799
Ni 4.981651629259197 2.0889291599075177 11.610123605589518 1.29899330797015 0.170772414862293 -1.498575962195916
Ni 8.77870951825858 2.9319252701515874 3.989592093826798 -1.026269710784336 0.2726194675077821 1.4655115755417791
Ni 9.566964160782769 5.803870161359974 7.711899435568216 -1.956468095064695 -1.329275246783143 1.6338386141873733
Ni 2.121862136721019 2.8425451335920076 6.970246735902632 0.27102281244462356 0.012393488568346397 -1.1131223469035219
Ni 4.874436701898224 3.606029753999496 4.691849868041172 -1.3229593318674442 1.6664101203654913 -1.0478569500368082
Ni 7.044264397905385 0.009361625082244402 12.437779733918866 0.2960293617912902 -0.12587478301865418 0.18533282917497113
Ni 5.202407539572809 5.470997802093624 7.630119937652845 -0.41756926488001633 0.19685599932322226 0.35376528305017785
Ni 1.7622329052854757 0.27759106813597945 10.18669268234498 1.8699715567333473 -2.0550583313357835 -1.8375522598623772
Ni 1.0283448531127735 9.211261769781164 3.670663298277901 1.145862260338704 -1.2458110675202156 -0.32230757876152877
Ni 8.328125665316197 2.0133538824390835 6.36621526694854 0.9509433301371945 0.3751391207402636 -1.1391406253441543
Ni 1.1331980530528578 0.24893919086954877 6.018165997422718 -2.6375111563974833 1.1467780872847542 1.5797446605564471
Ni 2.508445050944164 3.6204156730116543 3.9416246601538143 0.10123641564468372 -0.20047842656715795 0.3412910618425671
Ni 6.8996085933759606 3.9274308657929584 5.847432785954316 -0.2569941022656993 -1.243134292019001 0.7538757290237984
Ni 4.363666287460022 -0.03406416927263362 10.39631286043042 0.16961387577781759 0.37098473225225786 0.26689053544380487
Ni 2.7654890905184133 6.764081052766954 9.896308924012523 -0.516160272482053 0.4420104286415162 -0.274336707309205
Ni 0.6291979238878698 8.103068037200252 8.469531283061638 0.30393807511540555 -0.05402273407335857 0.5947704660867886
P 0.43693175637885767 2.195010083229096 0.01197358314653664 0.3024391219723759 -1.1286348407168239 0.31227153468176544
P 0.9792359178530269 7.817214671864847 1.5524505927382066 0.42265490693303986 -0.09456054628640488 0.1312674147891352
P 4.644233881901058 4.238813379916064 11.304760684809416 1.6848475011350725 -2.830839087962789 -0.8471754063199087
P 8.94340251812872 3.79734841895989 2.1160590350582646 -0.5996208522005544 0.11824426305658992 0.18105168530111398
P 1.892812064631668 2.4502734553034684 10.795320147835596 3.6264664470020773 0.5924253628933797 0.47263972349159894
P 5.536329555470665 1.7910984626518915 8.792999843541798 -2.4869738376351425 -0.4316861638973727 0.3738764519777561
P 6.171765438768628 7.848404468915312 10.60760592877232 0.8927803486432172 1.5270475872730476 -0.5934664025633843
P 2.679267295787561 4.789302051535717 -0.018696071555280167 -0.4764994635573213 0.20659148144343129 -0.0008127257092824712
