# total energy = -381170.0322302043 ev
CRYSTAL
PRIMVEC
9.19597731070293 0.00000000000000 0.00000000000000
0.00000000000000 9.19597731070293 0.00000000000000
0.00000000000000 0.00000000000000 13.45924233784498
PRIMCOORD
 96 1
Ni 5.141544586015631 8.132628226470505 3.513939332963461 0.01567524464341171 0.07080766684118128 -0.825017896386263
Ni 4.91432117805892 5.883623186059124 4.152405015360354 -0.5525020443358807 -1.5146456140642688 0.017247988447170293
Ni 2.722202454439809 4.643085821804796 1.2265392473094205 2.817195786147742 0.5983450708119243 0.24864855851448145
Ni 3.5766558994884017 4.2649380311783895 6.386949381158764 0.35431575623700917 -0.7668950241016017 -1.1951096845106064
Ni 7.225509418300456 3.1952343408733035 1.1804241789585965 -0.645043760420044 0.9035614984191213 -0.6550885462505557
Ni 8.625348700723633 4.4329025601487775 8.328902572163331 -1.0577027324826365 -0.7482506695275372 0.5782513853858429
Ni 3.4143836805882395 5.09689811527097 10.044767138834237 0.20420241238596445 2.0113212954591493 0.29469701613311183
Ni 4.755708958202296 2.4344327306472917 4.844492442538321 -0.0035720336219744932 0.713227616485133 0.4762420961308766
Ni 0.05987408988082655 5.097955652683047 4.044031340163906 -0.37875486311597995 -1.5759409705396406 0.3649418684922876
Ni 0.07266477498046588 7.3872574664833275 4.336998630437347 -0.07934552910886335 0.515348575214035 -0.3441910090981814
Ni 2.6396133805453093 8.566172585534778 10.107514052084916 -1.6108748063023481 -0.4248699123064877 -1.907999458040346
Ni 2.9015056236631667 8.559422738052474 7.123896625759306 0.9220459303765539 0.5425433904612722 0.4079584812631296
Ni 6.855049464860977 6.536923819353089 4.989624278983082 0.9161236513548481 1.3699804378119889 0.24354620429090962
Ni 0.8661231404914296 4.781660006696927 12.697974013314614 0.22623085294091358 -0.45582522303742146 -1.00253225795808
Ni 2.177202848120071 8.504908983454255 12.327818446730262 0.07450645584900717 -0.1227002419454145 1.6174743138967371
Ni 4.63141612636196 7.4842290491820815 9.130790890245176 0.321804156762549 0.31762380013261426 -0.23133603537796288
Ni 4.631250598767025 3.7456871618483634 8.51330766970165 0.4448067604397307 -0.16502908462061255 -2.0791827351878127
Ni 1.852741174117214 6.435970378398427 0.2733127275705444 -1.0396214495008935 2.426644958838098 -0.5294047961967849
Ni 0.31167742608746535 4.33028464726728 1.5104098766434966 -0.5525938327187386 -1.3050932502203008 -0.29472452693693757
Ni 3.173191582814611 3.4349734742025126 12.254425350332088 0.6639215711611534 0.18356031065558065 -0.6610054259556228
Ni 8.875819539791053 6.042272189825733 10.774272078847002 -0.6702156316999811 -1.9798173113135968 -0.19471761282398078
Ni 0.22827450818454 8.171637563009918 11.090833488582767 0.2143734393816953 -0.44586245539775465 -0.5091450175064843
Ni 0.035595789692777255 8.350297013808532 1.7625415092467542 2.04696552702532 0.7606289885872319 1.0728550147430427
Ni 6.235921083943358 1.4687999176681223 2.817167474848865 0.15638297890984035 -0.6316681104440863 0.49727731953462095
P 6.2297046031558425 7.549695212978423 7.506192721834305 -1.0644613913627086 -0.0944816134193534 -0.2699349786970835
Ni 3.816201917290188 7.751969933987602 0.5377467388683865 -0.6648188861644421 -1.7277561275731406 -0.5079137162025446
P 1.9238352761413071 3.210839914684568 2.4958278352060104 -0.32543326887470403 -0.7725331962239856 1.8857820414030426
Ni 1.9346589416544826 2.5465592842599896 5.629059217408088 0.9159339039415452 0.8809756426988054 0.9942419929248295
P 2.717641249601632 8.25271849659502 2.928165682022764 -0.025341049867949904 -1.4214212700907842 -1.3014453690550682
P 5.285489221765616 2.217444445643992 6.972506926628296 -0.1265119023820208 0.503313755536688 -0.6353203624846929
P 7.413530374190329 4.061145973882318 10.576272567775865 -1.0823164172662587 1.0739767870523116 0.12402975939011543
Ni 1.3965379265019955 7.01829645737575 6.540855099732768 -0.8808195767369152 -1.0529569902675349 -0.29504694327336284
Ni 6.223212243043436 4.53818730650421 6.676672330571501 0.15421913848930213 -0.3683922889347333 -0.4847480767193587
Ni 8.26290763966095 0.9246095573680605 11.634034361704224 0.15759422560912215 -2.1084902259026785 0.4388579990554636
Ni 7.342454664121229 2.3127607523934075 7.8088102708923905 -0.730331108934639 0.4191407231321943 -0.062008066271680304
Ni 0.4305602643667142 1.4815731304105186 7.946700275058794 -0.5314056286768977 -1.9788428632154693 -1.6153492971339343
Ni 1.3486176877686427 5.705349966315355 8.656769516633078 0.26242864301770935 0.04074118647310403 0.011220294195851644
Ni 1.8214656546522103 2.7107718544118766 0.45796703609901346 0.27861168053547497 -1.8826990316023446 -1.6321653402500083
Ni 3.749043693634522 5.578712160213455 12.674272300915584 -1.183909959140045 1.5838535405184981 -0.5509940923317865
Ni 7.304521256948886 1.004292702373722 0.6135436637841009 0.02064904370891928 -1.4380416522562849 -0.7054891101902947
Ni 8.954868162349468 3.175141130043832 5.919751422848939 -0.8650589714685488 0.7194751400567415 0.36460942485353337
Ni 8.467784822301589 5.614879939706504 6.275129973194442 1.2750254843006428 -0.15953129473083494 0.14777801084964873
Ni 0.8614635386940414 7.900521754463246 8.51723711088583 -0.3230529415679856 2.2687828242795702 1.0566766052109673
Ni 5.450244354589786 0.1641509571026614 5.4978988295734945 0.5052323127156396 0.3258680424192775 0.7300035503918911
Ni 1.3334995007646833 4.144810977143888 10.465381953538675 -0.23470315207798287 -0.7899521630313815 -0.0480775722335172
Ni 7.001421838669993 7.984159169792328 1.906865019269588 -0.3598469704678835 -0.2848630607618255 0.9574219958830027
Ni 7.103221309554318 1.6684997649783295 5.296467379700729 1.0696210811867772 1.0140184042208085 -0.10997970905495252
Ni 3.8038976994001046 1.850405395833147 2.7337204162539575 2.8060690801069605 0.004162358907805735 -1.338522476413024
Ni 2.101464777460333 1.418773800088111 3.769786140475234 -4.449844750902388 1.2892010044700766 -1.0836922145678627
Ni 3.5258941037086844 6.108593579529233 7.660260289612245 -0.18075626554788224 0.30322330843656814 0.3581140469371768
Ni 4.650074764702004 7.308355979564854 5.903815713445556 -0.270028052631522 -0.7960204807126485 1.0093413104601134
Ni 8.57798022064006 8.229728552854208 6.472657730620018 -0.29368862947325547 1.5710741293656427 -0.7005356228397612
Ni 5.084676661178353 0.0951820454779688 1.2405493190250727 0.8668579723505007 1.6288385898696207 0.16842191235224543
Ni 3.0535427196099185 1.613774502897696 7.899323518595475 1.7966071849085834 -0.6909068415007455 -0.04126517729737409
Ni 3.359014700082863 4.308628120263433 3.774065948402024 -1.9814746444113618 -1.1632879120143191 0.17887113271002741
Ni 6.911788646013307 5.451964002381598 2.589141258056726 0.9538610180046219 -0.8815945072297268 0.6903496834456949
P 1.4836054414372066 4.846611195753474 6.211103899474025 -0.47276262222270843 -0.23544980043602035 -0.038426679407314465
Ni 8.005944440481123 6.814154952934818 8.222709263231263 1.3488369709651544 -0.2605661358876738 1.2622918387840583
P 0.8167701684641491 0.5167808297745137 13.467452947906157 -2.4660054629135915 0.7211967507335386 -0.9235772794194158
Ni 7.739987575309889 5.3142450433966255 13.293276536137004 0.9588579569985809 -0.9813787638089163 -0.11014014589221677
P 3.0838342694828147 2.824020317279127 9.794990596067787 -0.4222124200789826 -0.2873423755402535 0.8426626060512198
P 1.4082260138998253 0.5004827988577758 5.940560080727623 -0.645705562373759 -0.7567908457880644 0.2667673796023793
P 8.77586846038349 6.113586995309739 2.107959896365988 -0.8698630777254116 3.313295540434494 -0.7490261142409809
Ni 1.5669485854864058 6.337766534715166 2.6135832466442097 1.348726156418903 0.7436921036225772 -0.8324177883947599
Ni 1.6835076002523333 1.8333836414874483 11.534570669103966 -0.4727263696681343 -0.9880875432876595 -0.7408870300736143
Ni 6.602325611306957 1.4327700778375185 10.192778235833096 -1.1970619231409705 0.9327394055346581 -1.01871169593142
Ni 2.500781708283281 0.4129747966004907 1.246815458091069 0.41345935647670085 -0.0009322820062822654 0.5901501937059578
Ni 7.437577855343221 0.034780106488853164 8.652516377041026 2.185451828160397 -1.1315468721572963 -0.7533021159085156
Ni 5.25569425467752 3.760014494787639 2.6567197378839738 0.8091490476748064 0.059350059823542946 0.030421035494018575
Ni 4.270538381473653 0.7804966352298927 10.278096675848506 0.9891663781741351 1.332007043892009 -0.3471526628296666
Ni 5.402645975068805 4.425757285634132 13.330518405801623 1.5804614841178135 -0.0062518944469827815 1.539825455764006
Ni 0.09640235169173123 1.8503410239906728 1.7803348061043947 0.2596477378384625 -1.16807222077684 -0.21664372347311078
Ni 6.995499629162359 7.814704892467535 10.597349748197445 -0.703176402896718 0.19260416602540378 0.7390618039394174
Ni 8.881870492983635 2.684995529489676 12.76395147345975 0.3734599332656278 1.4423310236602578 1.2651228804749501
Ni 5.2995038914700165 0.29125407966587574 7.956768031221772 -1.1448222491099638 0.6295626340653093 0.12912208631135827
Ni 8.376275650235652 7.72424406183618 13.231121843837087 0.16434517117971054 0.17000879722339107 -1.2741150566712316
Ni 6.275206299807662 5.6754538434748 9.053561232035534 -0.7394659813563716 -1.2998476855506453 0.30145130413780985
Ni 3.3097794365675357 0.009498525155954743 4.626399720637713 1.6791702482446371 -1.9417906955581783 3.0309426476890313
Ni 5.842572342515526 5.601518184404342 11.405914345941621 1.1774824583471464 0.20102015800324088 -0.5058604332179416
Ni 3.8387872380211636 0.9372632224030045 12.607353172674822 0.9437388419689553 0.08575940305500714 0.293575758044475
Ni 6.218788977867704 6.936268338108526 13.442135502261024 -2.0532816990513347 0.793746339966491 -0.8486393924599448
Ni 4.4568856694591945 2.6229134854119813 0.7072175689526723 0.07795019142323349 -0.9542559394501953 -0.24186161749963508
Ni 2.426983988875268 6.348663768048311 4.640786827430715 1.567619595158139 0.01337924952038341 0.8210427137885989
Ni 9.18764594071396 0.6568686725625397 3.8939208015026345 -1.3001461906276703 -0.19529482548368948 0.8028596151216689
Ni 4.97026030916907 6.137119501722836 1.88648765273548 -1.8325280671749087 0.5810019515477864 -1.2364265409815223
Ni 8.778434138104965 2.613653136073182 9.923660713196377 0.46736896201096284 -0.7702377153215897 0.07377086323456326
Ni 1.6413256514766876 3.314294661518231 8.01829004026994 -0.33629695106208535 2.9203574438395963 0.2559330079910367
Ni 4.287413000179409 7.450498203725559 11.42163486947159 0.7174640231639838 1.0352469745822817 0.7920591820720553
P 7.420804392389923 8.712710486938725 4.490218329090126 -0.9704155799291933 0.018605530916329247 -0.4349643204280122
Ni 4.999512713584881 3.4889262741734552 10.70947906060339 1.0320518646837515 -0.6919743635333114 0.7588199604029512
P 6.644378816397654 4.214847541755904 4.489855087979021 0.07677982526421616 -0.04423968654466574 0.1871958505256389
Ni 8.054821060874094 2.9170284336769643 3.327891833844298 -0.24269131248978204 1.166782812541455 1.9066689121543807
P 2.0255887671381503 6.654034592768796 11.064103540794198 -0.35394783137462915 -1.3021681061537058 0.18859607330727518
P 5.9439212105025305 0.24635288034456657 11.891442646194873 -0.1735738888668301 -0.07983481004045606 0.41419880574588663
P 0.7241234539819172 0.5983261602231811 9.875194233399741 -0.08628005144516754 0.5123640386644144 -0.3021071925542539
Ni 6.554736427763473 2.636220064849165 12.238394922360493 0.034544313633772764 -0.06085724049668874 0.9588034496115616
