# total energy = -340862.9685057081 ev
CRYSTAL
PRIMVEC
9.30883975541280 0.00000000000000 0.00000000000000

0.00000000000000 9.30883975541280 0.00000000000000

0.00000000000000 0.00000000000000 13.62442793398938

PRIMCOORD
 96 1
Ni 7.604195814087596 3.893645692864763 3.0086961750486068 0.08965950944036172 -0.5247773247271027 -0.18879713357448777
Ni 0.747105147725326 3.1383822778667243 2.7597638333401973 -0.02909717447627247 -0.03954588061342222 -0.10008738964190506
Ni 2.8455820282137023 4.598743769737917 8.125309325110074 1.3156216605554503 0.12344560475187126 0.09496832324778483
Ni 3.1272861407272066 8.80760539869191 10.879977499498786 3.27215454741981 -4.655148109662015 -0.5730927240030388
Ni 2.942142624311203 1.4993655309773846 11.437189760700237 0.1505162357164182 5.235968284216299 0.5994457600752708
Ni 4.454912884718878 6.95634710248964 9.268698302806275 0.007778872614470474 -0.042178176029946716 -0.6877261297799189
Ni 5.5338632800989 4.643379656972807 1.7471826736679124 -0.47932613437283905 1.744406591645628 1.2718889955541903
Ni 3.620049579888608 0.5457502866545656 5.899540575421268 -1.6154958500141274 -0.5445601637809847 0.22403667350307221
Ni 4.548289857576686 6.561587129607472 11.59911609956618 -1.0584380679867642 -1.9517164393123225 0.208882334360137
Ni 0.5551252192998749 1.0102046128503732 1.4749530983864565 -0.4409282513209309 -1.464002080875788 -0.5351087885600978
Ni 2.5981344464664957 2.0412889535564 1.278186564493606 1.915440230589108 0.40546888207205656 -0.08999529551322565
Ni 3.097181352548346 9.36143482748019 13.109983633101942 -0.03383263227872883 -0.10558055154599237 1.1076181292558407
Ni 5.704196432262409 4.515206240635538 12.960973309572479 -0.3591337464509428 0.3782882078922066 -0.10852909265135503
Ni 8.952162373221757 0.6808131753886111 3.723569464682002 0.38742333742425533 0.3197601297493267 1.2351124501557889
Ni 1.1126856311129192 7.576911604393025 10.766622825369902 0.1539643421660187 -1.2418623672851128 3.755990139627228
Ni 6.1960196785957145 2.8939693779210973 8.889108015396053 -0.9712182783361469 1.7461366869628572 2.9358894780369247
Ni 6.416685728001987 6.73139898673758 0.360574189298975 2.1244223237519027 -0.5668457146520625 -0.4525254692402271
Ni 4.813386999740441 3.764708951657158 4.356492382412925 0.07899354508608332 0.7600165518142137 0.3142713387206136
Ni 1.2559207503795007 7.677447075120203 13.416478117105592 0.5043295983957121 -1.574959580462978 1.5239658630239301
Ni 5.450577089673339 1.1378846606738886 4.940462903855606 -2.0044885888080315 0.8745689678415133 0.7873437788742569
Ni 5.153094493559598 0.7410683650617543 10.158019251831087 0.2796437213444152 0.48681601499198096 1.1175184190886882
Ni 0.7103594331745426 3.741287910513679 6.631158606234667 0.37315962841638955 -1.2855826909911987 0.2993563692819941
Ni 2.4135029162440103 2.110239530563456 7.28425936529413 0.37825066978605176 0.3014785578313195 0.12496229850671381
Ni 2.2427787928054514 0.46257580230759054 3.354607079765225 -1.064623627972186 2.975144823993121 -0.3904513256173018
P 1.5422979005138422 3.0269740821572007 9.612184254733595 1.1608535915412137 -0.05728263577155296 -1.4903952261573363
P 6.570244350697868 9.002830388700277 3.924189858286061 0.6238748396519127 0.2919253669252456 -0.049414802987702
P 7.557232716882169 5.485029106077161 12.311414564088173 0.35251264158999934 2.4876518375387735 0.920186251459996
P 7.477465267932059 2.595918942574545 7.358472229486563 1.4267817630717492 -0.7114795234457746 -2.517600304271748
P 5.570679741832787 8.741503326688791 8.520472370759139 2.3249951098050796 -1.855787037702849 0.22522169495010888
P 8.512496556748115 2.5568311239094133 1.0951328826311446 -0.45875910885476473 0.31552732261490174 0.3643659413841596
P 7.367015882730396 7.317464928037733 6.487543686300894 -1.7517275507870735 -1.4758792919293486 -0.3882969982784603
P 9.528807768561178 2.5768358208161453 4.814382114723843 -1.8224729969317517 0.56608878188138 -0.1475944340839329
Ni 1.641828016533748 0.5286406389511812 9.788634245583662 -2.2365802714050966 1.7147723137189628 -2.7769263971047335
Ni 8.14542107367545 7.600481586974619 4.320429005825503 0.21482235399365582 1.039376937590255 1.2141330196906446
Ni 5.659402294749522 1.2281431721711769 7.403132319705146 -1.99355985771067 0.36678946322398764 -1.2486714197871462
Ni -0.1666310265423792 5.179354730867131 10.623552472569235 1.5451288702547905 -0.07250253804510094 1.2508851396090133
Ni 1.567841357150451 7.4521266057728575 4.974455994453238 -0.2181964126722113 0.8763232315284585 -0.03804795591165705
Ni 2.043085559653654 7.145819229450842 8.71102339226268 -3.805232678703124e-05 0.3665264393705881 -1.0119507230585023
Ni 3.5536961692086715 5.866458820248097 5.392071961898039 -0.15063810600626315 -0.6563396450488374 -0.2314260239886079
Ni 5.133275973450508 1.30736139956824 12.706795436590479 -0.03339811584447151 0.6198459209981777 -0.3657957318521507
Ni 8.346324456011926 5.033634151352017 5.821241130520573 0.2711572811399588 1.9100365430750332 -0.006953805610013831
Ni 8.242260934969416 7.873072345243503 12.633795514234691 -0.4804399362623081 -1.2494525209275449 0.3623229428122018
Ni 8.258830669959636 4.862295644481236 1.0233198373603287 -2.605720494249448 0.3768278212965962 -0.7013213519658502
Ni 7.41834482584055 0.7319726976129094 8.914067807772051 1.047886517723163 -0.7862988825495104 0.7176974793310285
Ni 3.4165211047053665 8.103791941722493 3.8527975725779178 3.109442540968148 -1.3808626319421315 0.5097926783928123
Ni 4.331021534727396 7.409901708067443 0.37726680097563936 -1.211242842627043 0.5635883840570295 0.030206605490367334
Ni 7.422170759032111 6.913005143998368 8.741828205200678 0.5169529435866774 1.5336039003343265 -0.4949646122410444
Ni 6.743267757587317 1.7676276787010698 3.39712892946288 1.0049511518122176 0.9680954164364489 -2.889738947622791
Ni 1.2191135974854952 5.070124803690029 4.626828539662352 -0.5083011814489504 -0.5484839243154231 -1.0705901299682659
Ni 6.358002801384938 2.7538247934953883 0.9841798891918574 0.3406238605722134 -1.62539048342002 -0.4667400701777123
Ni 0.7472810847990986 7.923870684480374 2.7493006973126657 -0.06508079165973309 -0.15563170256611258 -1.4627923768384035
Ni 2.6862053805914794 4.46247166270318 10.801337351058402 0.5891402643842047 -0.9740832585887674 -0.5845978964291609
Ni 0.36538872128602096 1.0380566617777542 7.5961092248819755 -1.2437413294753807 -0.3039678999120765 -0.32515661817454966
Ni 3.5785786982136476 7.792746365900465 6.954602625895726 -1.2732735346065425 -1.0298944520211166 1.1129925061938766
Ni 3.0584845051582645 4.115940789250411 2.668753167580432 0.1764391262297671 -2.0190178927724585 -0.2083182343265509
Ni 7.697758963743047 4.7864006729221 8.095976239757444 -1.2198100154707636 -1.0675541713554197 -0.5816264725056629
P 3.4914758834364066 -0.0035718018627794454 8.481042917670333 -2.1504197762569284 1.2110356117122432 0.5930064322078303
P 7.409119765517343 2.187698387222793 10.941995783445606 -0.053939944551565165 -0.5825464132167709 -0.15872859632388145
P 4.473558491002817 5.923475464526241 3.217681492170762 2.520494080879775 -0.17115242390953106 0.6951910706983963
P 3.9690472959101464 3.718844297557825 6.395524873181892 -0.4502893808208568 0.031365915905791145 -0.0832482065973792
P 0.02331957478876411 8.17751795358909 9.204608801985676 -2.0049339038755662 1.10642873693343 -2.7069911055661766
P 3.746500860847681 3.3528951841108983 13.126427698753753 0.36762789996488304 -1.2452775636142488 -0.5953823886391747
P 5.191353825475217 4.96758793238819 9.045435087072883 -0.23887553828811764 -1.0389557908924365 -0.06731739429973568
P 8.513455367255977 5.790405598410963 3.3937907794811424 1.5727188640579173 -1.5316220940176073 -0.3217987574459103
Ni 8.753530347816524 2.8988937542187525 9.103583686280697 0.6169326040061246 0.022258297177568116 0.5482885204751653
Ni 0.45350247607446276 2.3615502808617532 11.344693404095281 0.18354745513977425 -0.10738289486205378 0.4851640812108547
Ni 0.994202717092964 4.623868328579829 13.121073254053545 -0.8225041288254739 -2.416732841930709 0.7976130220107489
Ni 4.884534462959683 3.2480124851587586 11.063553407278633 0.3243981427419703 0.17362813914353323 0.14234115610479356
Ni 6.468349789347896 7.983419333206462 10.66483438479459 1.6642208260236564 -0.5287285960653668 -1.2631852971326052
Ni 6.562871749511208 5.624671013149235 4.492777521823496 -1.6495742797550752 1.0569386006231023 -1.0203664579260234
Ni 6.908080767700713 4.991902622160357 10.397986249849003 -1.8773074282731284 -0.3689517609826291 -0.4227744632300396
Ni 2.3060602863242807 2.578018043481178 4.902491215092343 1.6767526399420802 0.42775751826692776 -0.6749901702704891
Ni 7.73811278463215 8.965492631932989 1.8960300924994398 -0.11824400594627378 -0.02847213929776387 -0.12963836382614446
Ni 8.157466712482947 3.5475988790858657 12.757765058481183 -0.7215947575029056 -2.3856016677435434 -1.0943036715351218
Ni 0.04509667480905661 7.960352027978504 6.75917377229394 0.19627981510477807 0.5584582619193156 1.1187957431392153
Ni 2.5536475006697192 6.240385609474022 2.8662122791605142 -1.871208771574558 1.9806182099483376 -0.1023065087804109
Ni 5.186420140337681 7.665271112554356 5.547240083009544 2.862938025379863 0.8192617106287761 -1.6926657116279105
Ni 8.782136412774358 0.15669383996818828 11.028865877225794 -1.6201107230783196 0.774889098050672 -1.1780650703234938
Ni 5.693919473032519 7.882418420485178 2.4491548421086415 -0.9732458502891369 -2.1906786237769755 0.4436929585502617
Ni 0.9227806430971983 5.426644062336342 1.6290590808674081 1.2168889851692268 0.7019931812218944 1.2328555358008122
Ni 6.900819872592638 3.406085895197481 5.189313327773051 0.8303732471609053 -1.747183640170133 1.8877414791222584
Ni 7.219489388278146 9.56092326615458 6.013046052756239 2.054414012883565 -1.020811515883242 0.15142743467677794
Ni 5.5845592220970675 5.511484829022221 6.813808284446243 -0.13717915228787986 -0.23212176450405186 0.49733619779701443
Ni 7.35488646436396 0.736694141201134 13.409230254373352 0.5368936483746625 0.8430248744866448 -0.2824472522314813
Ni 3.4558695708871983 5.247905027759255 0.49125168356454146 -0.9855115550303671 -0.3904024746572373 -0.2777071664433346
Ni 4.798297370291483 0.32421572248728886 1.2318462286762946 0.682655914345863 1.426469374037653 0.8200813783165941
Ni 3.8451000928793717 2.3623508410916174 9.062969217874894 -0.9488113713958563 0.14948213802494903 0.40022948804998815
Ni 0.6147502005129969 5.205559115135372 8.436041193028075 -0.2280187980792718 0.20375709731842973 0.45805976879489496
P 4.106017565936043 2.069969489233292 3.297084034597492 -0.9319004545731304 -0.8489499817218281 -1.0829370815693928
P 8.590644267558732 7.090776059227712 1.1230007565863251 0.41164672874799424 0.6480102992475356 -0.512705224053917
P 1.0825529164144123 0.1247905839240973 12.34112931187597 0.02325665653509543 1.6035795581925159 -0.694070841051024
P 1.4277060815646243 6.153394500775367 6.642331075861219 0.7969460778507114 -1.0106787983246142 0.5818018217412625
P 1.4213667616048826 0.3253467465329696 5.651699229747046 -0.43262795898535167 -0.014468111709187985 0.07719685819697672
P 1.9386496850158574 5.91336606441423 12.034226169801498 1.3209739260062991 3.265764841843382 -0.8903907653651181
P 5.198037572510598 8.427087950829426 12.126013192807434 -1.1258979014016353 2.1542445493196576 2.3419571915807147
P 2.8492404022873856 8.746558026744797 1.4628823257112777 -0.9251219981987164 -0.6800585859323319 1.8554191128404691
