# total energy = -340855.7359026011 ev
CRYSTAL
PRIMVEC
9.43213136790783 0.00000000000000 0.00000000000000

0.00000000000000 9.43213136790783 0.00000000000000

0.00000000000000 0.00000000000000 13.80487767138292

PRIMCOORD
 96 1
Ni 0.4489741655833498 8.978455209356126 6.057662761616733 1.8140058400010046 0.04487809145961303 -1.9105150253733485
Ni 4.534761218492069 9.460710650204671 12.853155880006833 1.20397819064483 -2.8250391934515604 -1.6170336268148928
Ni 2.717906360426983 0.9662558259861789 10.266356144544055 -0.7666463984259054 -0.3004568014350245 1.192817803152636
Ni 4.862659830740671 0.20483570885054764 3.501924920926048 -0.49379424608202704 -0.019514158773527683 -1.2615238502697823
Ni 2.6639828658283964 1.2109441759733273 2.538744912954317 -0.3892724748178522 0.8585515093673343 -0.1374635162975181
Ni 2.9088409941788074 4.935598502024714 6.661073928916009 0.3611011545899588 -0.21936677883122865 0.9143326208926962
Ni 0.8085619093349902 8.732927399683955 8.444181564430059 -0.6022348927846338 -0.7239393464756823 0.06455063018787592
Ni 7.352374638810893 6.2772720177105485 5.362297746347958 0.1273012310525356 0.5292330465056112 1.3195595621572758
Ni 0.40389235085824865 8.535786423541738 1.0614043368244086 0.2992974910196007 0.20195423978173607 -0.7343656840153288
Ni 6.941822260047089 0.36543377872666283 11.797869223538667 -0.2843825215809812 -0.9412656978381144 1.055605997854608
Ni 2.1942155668109757 4.266435947486195 2.7073989661672617 0.25669225475456436 0.12502040543815887 -0.07033535519045306
Ni 5.435218496582545 5.285530572972335 1.2510694057042784 -0.5024071845620186 0.39246989870922727 1.0437074466448089
Ni 7.965453740684868 0.8069556173758964 0.3389370355000844 0.10743483114591174 -1.1379674309716596 1.233798873550688
Ni 4.9945398904708505 1.3734503660098927 0.735164836470138 0.13915118841258617 0.7044910079430834 2.0171186188672166
Ni 3.2479638426653525 0.04611180346223003 8.135504692542217 -0.06575956289431255 -3.46863079480611 -0.9699787495020907
Ni 3.9679561527385534 1.033516354232203 5.4587658123539935 -0.7072983954848916 -0.7169546876277331 0.5868545536738216
Ni 2.7535692488435046 7.886742605049886 12.574255303395931 -0.17109123165429244 -1.395833394319351 -0.6134860402184208
Ni 2.262258961954268 0.4425235309924852 13.61352808735588 -0.6598090916546766 1.4718722276524845 0.048460152383916544
Ni -0.14524538977149407 4.653153330474133 3.8111677206914343 0.8383243836871819 0.5499995896290012 -0.03456205424558564
Ni 3.8445933075654017 2.0514508275693797 8.434641906840938 1.4943457261646522 2.9832846794914363 -0.1404683645621129
Ni 1.6650541370453829 3.4262405562227918 8.002825731291571 -0.3092386613927126 -1.6985339974832296 -2.0894625198472663
Ni 2.616633566740605 6.219283274524942 8.739715704575087 -0.4261639485275628 -0.10178791727277955 -0.1672955120572861
Ni 5.541612937560689 4.227264306228904 8.435995417681395 -0.7610596483667473 -1.1214774037364363 -1.0953346839027973
Ni 8.647689229194638 2.870442787687493 1.4340640713341704 -0.08714419921767573 2.2212135591410394 -1.123278204390601
P 4.605256967771384 2.281943819961483 2.7507735651284406 -1.5408418128436623 0.27763131890007664 0.40975285415939106
P 1.239881954778376 1.3317320493036575 8.463853217453465 0.6553644256197616 0.4774420299762486 0.3916741422808093
P 0.9594080986679047 1.8799841128050447 0.8924852407221482 -0.2809305584766388 -1.3799390916865977 0.32825016949820884
P 8.114273908216179 2.0759838010608824 11.566167975128009 -2.147865899486823 1.376634709903713 -0.9435357248192138
P 6.109408377099907 6.321829405935793 11.181287971315827 -1.2002372355451587 1.5517229785325404 0.43471029543567713
P 3.653819020045547 1.7932650977028228 12.428862772376277 -0.23501168445733717 1.8444528436369525 -0.017264186397086396
P 1.210887583185573 1.4017373277557665 4.846119645306339 -1.1544908825479796 -4.388141874575952 -1.3717228744243923
P 4.111183066413476 7.891298324464109 6.014716381416228 -2.1923722094293145 0.3866278381061535 -0.2896975060359914
Ni 5.089832712917854 1.4840986982009052 10.754427437547482 0.006506690770266213 -0.14032978210171962 -0.25092886990822594
Ni 7.00113150161363 1.0119167735726327 4.434002475961127 0.7579581266232882 1.5263757580170034 0.3040630307290441
Ni 6.788418076707679 2.4350367429682445 13.206463710744002 -0.17515280331817576 1.500713320253893 -0.2545248147896004
Ni 4.8848064750152 3.5880770649375977 -0.006299720490186434 -0.9533480829239452 -0.7368887075474987 -0.914736026978702
Ni 5.492499829921222 8.606385926265268 10.261068491741542 -0.44546007775301344 -1.0636350388066713 -0.039562078563338314
Ni 2.7551255505067487 2.91860325006643 0.7337377550055995 0.3576939286806227 0.22124008459454156 -0.6372916272784508
Ni 2.560785917358371 3.378212143681948 11.424736939251156 0.003841999453909513 -0.45940239886571854 0.11005992747358466
Ni 3.8231635052690947 7.115345179433165 3.335093155478793 -0.6195600143266426 -0.439102768076418 0.5679080944783058
Ni 2.1469511569048154 5.840705820842336 4.654176716719357 0.5344048205145377 0.15350514314141306 -2.5883912589423805
Ni 7.220287072192282 3.202340623604068 9.738416175780824 0.7565738446812519 -1.3283313948126347 0.6260181112471606
Ni 6.496135192219137 5.535133063362818 3.400113552542875 0.2652062057628465 -3.6824655880755164 -0.41819892804421527
Ni 0.23742749531826762 2.3816320155907396 10.294573308518363 1.2818013695718955 -0.30655674368517527 -1.1895949253399642
Ni 4.0708229766133455 4.29974080307962 4.158250344775626 1.1339040595355632 -0.8010796404031106 -0.9893527831533284
Ni 8.461159400756358 4.356418480015583 7.8504477638367725 0.9229424740488944 1.733595359962737 -0.30148395714795817
Ni 5.082164390177143 6.37575290053438 9.049083008473534 0.14185007540098796 1.4958907020542689 -0.06998414249862141
Ni 5.296452981008922 3.737793284941684 11.200932271158486 -0.6423983523773968 -0.15159429927194534 -0.5172383360375801
Ni 3.9478185524293035 5.692810002177681 11.076095183864332 0.5437206985988249 1.6370807752737546 -3.860928686713848
Ni 4.993445763240934 6.959328295725763 13.274273189031241 -0.5481419675949721 0.8371943838477969 -0.39046623801563723
Ni 1.1853925323022463 4.517519282489583 9.76343018796824 -1.124255994922838 1.5607578350412992 3.0032240987278405
Ni 0.9486837653884587 5.379125611786709 0.9736770268870303 -0.1649853758668707 0.3658929195516473 -0.16060370185940728
Ni 8.329958454479232 8.015311986696435 10.50816203520825 -0.5243548924777034 -1.7041117486813233 0.6760684909363325
Ni 9.422378468632402 2.421661980795637 6.362309283803338 1.6378325658381145 1.114076483286675 -1.044487262233627
Ni 6.551671581268722 2.9246020855683894 2.29406693831159 -0.5310135354448016 0.33358006635155457 0.23550019405798148
Ni 3.281712008429519 5.2114223174080365 12.933913788132266 1.7402254636847447 -1.1515677953639134 7.114491072953767
P 3.3505477026013724 7.868972469695025 9.915229022561686 0.3728377263005966 0.7180378933895828 0.32426984469422215
P 4.311144249812117 3.251991362727202 6.482563298502519 0.007731307205986685 -0.9003841291324042 -0.5867180280959573
P 6.80777281011966 6.030433141788736 7.551033244878056 -0.37672986226615124 -1.2554493619409282 -1.231994730462414
P 9.283094185837697 8.026706001297642 12.495733753599925 0.09633537879864054 -1.4597713306238922 1.1875665820560257
P 7.88419592960094 8.224318584004477 4.377568148012506 -2.008756877166083 1.4790201515511756 0.742509910389018
P 5.797846216249722 -0.08959864478578829 8.205357170467389 -3.477172770838851 3.648620100280981 -0.022975377849250755
P 1.6461427138041436 5.451724726344225 12.02117681831223 -4.402914662009753 0.1588124142869394 -2.036338643439093
P 3.2628666101073263 3.9968939315436023 9.392023983707237 1.7185238103415952 0.9007548822082616 0.034728404620120834
Ni 7.681357946158121 0.4311398917357012 9.513203290486201 -0.2606219288262737 2.6655981444416867 -0.9599175086113468
Ni 6.009701317208066 1.814525121635867 6.426805254367563 0.6352494000374415 -0.2039486445039455 1.9041644005649725
Ni 1.9698157312337552 8.826145153246632 3.848675533988747 -0.021371523697240612 -0.33147073331803556 0.8014995015493487
Ni 7.21048708777949 8.107445045160489 7.9429948928645615 2.488551723645224 -3.6280296777241388 0.12436734523519229
Ni 7.356279541165942 5.621163532880696 9.677095060609618 0.40669838360378346 -0.181061712603443 -0.25280988898102263
Ni 8.764591064432505 5.582359744743808 12.15680992308365 0.5470605616053352 2.518779926402146 -1.250671995156943
Ni 6.00691883847681 8.67142990365758 5.679023055867597 0.7839756337329724 0.3244397946131832 0.3446790044781935
Ni 6.043223111821215 7.577066870458178 3.3032172677761653 0.8933850721067517 2.187260342124046 -0.8556572185386747
Ni 8.557716128796542 6.97716445599967 2.430528184210483 0.009831384268125003 -0.786244118052175 -0.5819136647287785
Ni 9.358051333218311 0.635996351275092 12.331717479343448 2.6132139744130156 -0.04294719298548732 -0.06964090022658974
Ni 6.40437941900678 4.969308939263711 12.778623178534378 -0.4214182063124613 0.44815073721129917 -0.22195125172895322
Ni 1.2874010322294305 7.882969752532929 10.739628423549727 -0.11043916518987432 -0.5379503717739509 -0.3480849448359489
Ni 7.797410889579671 9.301420816938808 2.6376841973589578 -0.5349689205481238 -0.5351982629501104 -2.4560455234874023
Ni 2.4041276487230863 2.88855247976888 5.1216510646195985 1.1515706235773908 3.1390449372156133 0.7346616179891929
Ni 9.16271189415294 6.704623022306098 7.357557594956062 -2.892312621887238 -0.8500501567645424 1.6955808283921765
Ni 6.1039943337380755 4.191525960762044 5.580579901568935 1.7697548406024295 -2.0103365629483765 0.022450358583716173
Ni 7.0611858815522694 6.788691608515158 0.5190803678402875 1.492529756001836 0.4220550685655118 0.5552991474650437
Ni 0.04564208332386908 7.086643203910427 4.522477753909992 2.7572276331242254 -0.9523517804489469 1.2823829531069786
Ni 9.27141720729772 1.52332693224595 3.07935695010887 1.2478101002281154 -0.1835058032685614 1.1718190894137819
Ni 9.323425979243952 3.4885114870151424 12.859188671181444 2.814961497500584 -2.8261074868150744 -1.0801842014146041
Ni 3.151076990029935 8.191853188096076 1.1839088580499537 -0.12669547914773666 -0.3060615492163116 0.49186900403485617
Ni 1.5291465572533536 7.012619837527759 6.477538802163064 4.013714178080416 0.793130303649047 0.022340829589045395
Ni 8.245267347604873 0.44232168338282807 6.95814173360918 -2.471760106009182 1.2721872435208992 0.9482074192632701
Ni 4.780487102921381 5.853250555461214 5.742842742618157 -0.472366158115238 2.8825966801510545 0.15908417989108734
P -0.032131498460651456 6.222084617518782 9.707852297540969 0.686670691932211 1.3923040410098537 -1.361063080717701
P 3.3309005731193264 5.953665025199983 1.4047980543601468 0.4521935398221051 -1.3677129819340508 -0.5461539906306658
P 7.901881175774169 2.4270382956322987 7.783286272969319 -2.4668726960098937 -1.8602864682350995 0.8526359152138477
P 8.044457272389916 4.565198706172608 0.11121143042916781 -0.6609349777290037 1.5382218587223122 3.2977956450266817
P 0.8820863159722895 4.660925406659061 5.877053481990686 -1.2976023411598943 -0.6638410956322052 0.8798423004253105
P 1.566111079788225 7.037624417583882 2.532117897508285 -1.6839830962522482 0.1865870132970464 0.39881692397317764
P 7.656551440859138 3.40072664107688 4.127106390461288 -1.056249802086194 -0.8105011908273267 -0.07620184127355908
P 5.29371766293413 8.6709111364365 1.0757930531109476 1.1086090324142004 -1.0558597657366267 0.49832195874905144
