# total energy = -381164.79168339283 ev
CRYSTAL
PRIMVEC
9.31068044806946 0.00000000000000 0.00000000000000
0.00000000000000 9.31068044806946 0.00000000000000
0.00000000000000 0.00000000000000 13.62712197375148
PRIMCOORD
 96 1
Ni 2.7393418222576584 8.200465523613115 10.534569293861386 -0.0677727366695994 1.4379064122300012 0.6441626433666713
Ni 1.08688227188025 1.2030795627789994 10.439342448338536 0.27830520503864975 0.5042552935143509 0.3593690023902004
Ni 1.427560066270093 6.967619715721672 13.489065111093048 2.8873979581944402 -0.08704803995944363 -1.428532684324585
Ni 8.26187877127082 1.5893424482137366 3.3495191218175724 0.4897802398266275 0.6658869224176402 0.12600590927987979
Ni 4.498380730721443 3.2887278276079477 8.905079191933272 0.3539856265911 -2.2681626741970677 -0.08185312602206549
Ni 4.920452492822574 7.033539332673847 10.681865188232164 0.2189487174572036 -0.28605630973897833 -0.2066436748376054
Ni 8.57475487410428 0.31248132998617545 8.771137606403526 0.21610250625766012 -0.40768928676214305 1.076282809477669
Ni 4.980562245229812 3.853755775963838 1.2261244277392154 0.8078580967775248 -1.2158186349231836 -1.6116751907164566
Ni 5.680585748132254 0.8669910027388352 8.59288183769809 -0.07358522958631844 -0.03143379302924909 0.5395570541394384
Ni 5.490871325107181 9.037272231691322 6.2564429488154145 -0.905206233111396 -0.4452266215859687 1.3671928477645228
Ni 7.270011992469235 2.991400560976484 1.5085359844331951 0.7917444790451138 -0.7894204588976275 -2.070965746594659
Ni 3.5229473027561 1.2424730513841764 9.929361104409857 2.2734203230515817 0.43591562859768795 1.231167349465112
Ni 0.7867189720109852 4.594029350064621 5.462363883979473 0.6129491938783443 0.6368774225591677 -0.4392732322160112
Ni 1.6260451501947357 2.251806666542016 12.798211697277639 -0.9869693705228163 0.5510874233765412 0.41960814968691607
Ni 1.5579189019971278 3.1564416810462945 3.3032962491679854 -1.1353179091639545 0.6200814340477514 -0.11804371701000962
Ni 7.394058186911866 1.6651779397498194 10.497121737451549 1.825754753006817 -2.026207468542362 -1.4741661658929839
Ni 6.524608233489829 3.56923069482803 3.4585639480634036 -1.7565293430510909 -0.18033897550480554 0.16773954157324014
Ni 8.809346776466851 0.44217072779529176 11.84346753214131 -0.6452245089722823 0.11743899354647516 -0.8931282189009393
Ni 8.001645255195495 7.293735606027729 8.062037121217656 0.885327749019914 -0.27178822985573836 0.48456912793933316
Ni 6.063049875979917 3.0100777857796004 7.329687867171675 -0.040651969193407404 -0.4117416024546457 -1.045400775186832
Ni 8.835789108690605 6.866328824080046 1.0079351509676957 -0.6425495332432805 0.31716357266674405 0.01633601815586219
Ni 5.023596209855936 0.8642694908694678 0.6213147354071161 0.58192086381763 0.29986827592140614 0.704566084155393
Ni 6.447413382621116 1.5802738455426322 5.15951445282621 1.2415803172683197 0.04047276330306578 -0.5668889091851721
Ni 0.42749150913896417 7.155015779336987 5.183770637301324 0.41956264116096126 -1.6697517831442146 2.060621684356174
P 1.6355513548427825 0.5979300306137428 6.324360637772948 -1.5160190973730276 0.9577948058413891 0.5208731045766901
Ni 2.2719363574813665 6.629614086595286 3.7081851506638563 0.03321839573349763 0.19346368581222165 2.169143835028993
P 8.734181653916723 2.403310057367693 13.043185939310177 0.7760658919675926 1.0485778873632328 0.9285793606196975
Ni 2.780671932377814 1.3470971665948535 1.532397396061025 -1.0126251234177077 0.2594870438908821 -0.08789470423045508
P 9.107530625691478 4.792030278610519 9.299134185761693 -1.0214100686991894 -0.6824258006129279 0.6672910018540185
P 0.7927122569590239 0.7912160306250954 2.3955663645118843 0.7558099699320338 0.6134199628671758 -1.1197164551812715
P 4.294448898785922 3.8972832066490666 12.740009703276263 -0.06917990142977118 -0.5527123605744738 -0.3174247967479307
Ni 5.115045712356538 7.827656571299267 0.6908115157537865 -1.3384052341088692 -0.7820964144323886 -1.3367381308190915
Ni 9.211940595253864 3.516411205143045 11.083987886592936 0.4711600536222789 -0.7292124219491635 0.8406149794935716
Ni 5.747436433120478 2.8997555341883117 10.846602780122222 -3.413193182663096 -0.1359311388133917 2.322678802967077
Ni 6.91601992516391 8.381837577035203 1.8463116397546777 1.488678500576546 -1.1022468376415984 -0.18377988286555447
Ni 6.867744047494838 1.5632911645651226 12.774636123536874 -1.573526190450561 -0.22045255569623967 0.4790417703632008
Ni 3.8204700936751332 1.7082584577777453 6.819365752341801 0.5792075786515251 -0.6205177502542216 1.781302436230713
Ni 1.7311161780627158 9.16810591211674 12.457247133932693 0.18085602435054016 0.22302494440910622 0.238322493998125
Ni 3.493218300365098 8.705970292424478 8.296764028445455 1.116292002880755 0.2823600918343137 0.16599042009261736
Ni 5.312795252532703 0.0624318360891406 11.29892773591865 0.3730251597210543 0.16864328433443215 -0.3659798228384987
Ni 2.6734315159858437 4.545036550007793 0.687029517391361 -0.6154421355035272 -0.8578773661184451 0.08427381964841615
Ni 3.7895679455587112 1.7032027583420064 12.160584649878968 0.4301702414734785 0.7121490387089736 1.0216520095066661
Ni 1.4156517060890432 7.913082063606641 1.8672699812461109 -0.45701461535983223 2.0686612668311986 1.650933107775815
Ni 8.412879385357032 7.10447740634032 3.2548788491574343 0.4375662768272336 -0.15645779801183377 0.5590521867495727
Ni 7.115091581951263 5.659487746435413 1.8183349074075175 -1.8473903289987217 -0.6439713532914715 0.24619855431209214
Ni 0.9530133096573157 5.921350631573822 10.615132748884518 -0.6181878165694644 1.089641233062446 0.3784255048010192
Ni 6.718596258800362 8.763370636846817 4.3118943205773475 0.06251714469761491 -1.317938481614085 -1.989602929945451
Ni 8.826161865197873 7.452827201347195 12.17805427943933 3.4676725446578986 0.9531156551981651 -0.7926176256786867
Ni 4.942630533441229 3.1937681986114455 5.2108619239462035 -1.5908310002775956 2.531681979175795 0.9704808859494898
Ni 5.544631193508573 7.5187747503404525 8.269196034966118 0.27030393200072805 -1.0524623100193036 -0.025213780261466253
Ni 0.6499851134411322 3.288066769302354 1.3764211543901748 -1.5888499652918249 -0.0441304146603111 -2.2044864761943455
Ni 3.6995429771532615 2.5373373011567555 3.490001460300553 1.6617826488958092 -1.004432046083954 -3.638524663718192
Ni 3.313345266481048 6.562493391876609 1.6297899058357197 -0.07296045151812595 -0.2559126962760625 -1.2611924350722923
Ni 2.121857500750842 4.078934580481967 9.451962486402666 -1.0829720485723864 -1.3047808611862044 0.48908784174529313
Ni 4.353962767650089 4.894699150945495 3.0261889870753693 -0.5763050602927494 0.009060053319739235 2.0972290511665626
Ni 2.4157863690507315 2.6045790347201185 5.203134990315045 -0.041892526468727855 -0.5474408277628895 0.5531116528954216
P 5.135650247994273 6.8387692102130355 2.787168925133355 1.597197565925572 0.24408433618256672 0.2282345136345037
Ni 0.3127569261248456 8.116892856697476 10.175412592160104 0.7249243360967709 0.6070899068840899 -0.32545692302378787
P 4.20144451266512 0.9420546388730346 4.856161313865447 0.7401938606613316 -0.3933492159903871 -0.7397292623200874
Ni 1.6450389381301085 3.1426153207109864 7.10163857989841 -0.10927137013401828 0.6248042934447176 2.214235585161309
P 1.32242386363959 5.492612422334589 2.3020703744680495 -1.4083906621590714 -1.4095504867951272 -1.3045178373328048
P 7.240441271644361 3.79599231500744 5.474995684024532 -0.0332019406732654 0.024942014657318334 0.08994387344999993
P 6.389426465336069 0.8991268160030206 2.5373568535855124 -0.8567769339654147 2.195940643506863 -0.06323011160423948
Ni 9.280495134748055 2.2757630471095225 5.711562381691561 -0.1916266326034829 -0.7866444388143872 -0.7973196591400462
Ni 4.117220098124247 4.662267326426554 10.578421667291193 0.4356346070221594 1.3730241097343192 1.5648795705191567
Ni 8.361056138470618 4.363180341206961 7.30624916043221 -1.8758269870728599 -1.3473745274870148 -1.682617583363289
Ni 2.094940323828704 1.1717584340463556 8.429410498337058 -2.580649153103117 0.21806014420466316 -2.2834093159434934
Ni 7.702818969025995 1.5325472980148285 7.24518599435606 -0.20483773197711821 1.0429474285503328 0.30661999282294294
Ni 2.876329862401352 6.935134751943969 7.094034547248008 0.15927341308375795 -1.4076854085619306 -1.1787201874089894
Ni 1.0471163560606538 8.137916372951432 7.951412272514652 0.14037940439273242 0.36036324798266967 -0.9663136419456777
Ni 0.7960687572289759 5.6064168683806965 7.7220539035827045 2.7401501088166484 2.25034801461315 -0.39541998247648674
Ni 8.619138887382674 4.399836489786158 3.632827297030266 0.9998138305856524 0.6592285365608581 -0.7361819112884611
Ni 7.0527007128557075 3.647505584618558 9.281623589207744 1.9208243777191563 0.5965797513813854 -0.48094464381286844
Ni 6.892324243646497 3.9551677064501503 12.606750590616938 -0.14576560840531025 0.5568999162932602 1.6381989480385981
Ni 6.5967660062835245 6.0100348620073625 4.494456278949502 0.3441827815680653 -0.5396493567429287 -0.6300238899724441
Ni 7.0274222156770145 8.492830197612445 12.93645854140607 -1.7981416192752386 0.7205151512854816 0.9661228660911103
Ni 0.313253185388059 9.063537660988226 4.160087401571919 0.7714037106052328 0.8748453614313514 -0.06984376026601519
Ni 4.294523384228806 6.751686416801496 5.023557104998422 1.011070377336078 -0.6654439213429507 -0.11054355197822252
Ni 9.263456589688383 0.07951693455061538 0.3956592240545303 -0.027743231551539318 0.05993010069672904 1.6912210087615842
Ni 3.3761085627910212 4.601887564288863 7.635726206348401 -0.5858068291355976 1.5747232960824558 -1.5768567974856906
Ni 3.7166746290165387 6.158251582665791 12.738047942924311 0.16993757766582343 0.5425302778351495 -0.01181319058484417
Ni 3.8195762683605277 8.544932764909673 2.8786752227841563 -0.013021866180964669 1.2686411780408537 0.7165939618542045
Ni 8.210195184589814 8.993707558284651 6.048002885449351 0.6984468586315326 -0.458835470618655 0.7883282542747132
Ni 5.460090215835444 5.170472192542456 6.698357632900794 0.9023489661682589 1.3742595248033171 0.11642135091523821
Ni 2.881776610412231 8.532735773637448 5.353618861641249 -0.5053873502362651 0.5580507420682518 -0.7492544282017032
Ni 2.114250674896333 4.521145344202809 11.894256362439675 0.7937856778448588 -1.0895481591280074 0.9298674833035018
Ni 2.870911046431555 6.397731592217614 9.363113456926746 0.36408646247052784 -0.9800980973242798 -1.0745213467018722
Ni 7.251576845355491 7.990444506721842 10.491480396221135 -0.5776862569109922 0.39505257183473896 -0.9436784210446651
P 3.0185039515058314 4.905378501318962 5.46448951230577 0.3560047139036579 0.27925625609800936 -0.1869006878827233
Ni 7.643044401111735 5.435807961455321 10.981075074432514 -0.31342004646391186 0.7094982313496877 -1.9707549440010126
P 7.311072092858938 6.383709707594735 12.853209886166976 -2.362775670987963 -2.26944694022613 2.289109451652064
Ni 0.16922720195988067 2.677705118271302 8.757592428615105 -1.251218354578716 -0.732022637704449 0.2500963467046015
P 3.7233596975153613 8.454917107184583 12.539118739546474 1.1966364055677778 -0.5576568490639429 0.38946736443747765
P 6.871850057533808 7.22773219295231 6.266882083635581 -0.9864600349865658 0.23844487850860227 -0.008915814432391096
P 5.873177171388715 5.396591375776993 9.292702367768676 -1.1053247052359738 1.3475313647798535 0.02566320909405903
Ni 0.014700633221156693 5.33617437091786 12.94385773908854 -0.43191499207872713 -2.696638044466627 -0.019753785588159527
