# total energy = -340859.7977428774 ev
CRYSTAL
PRIMVEC
9.42392086729331 0.00000000000000 0.00000000000000

0.00000000000000 9.42392086729331 0.00000000000000

0.00000000000000 0.00000000000000 13.79286077380199

PRIMCOORD
 96 1
Ni 6.908176708545136 6.46719376897965 9.764517089207597 0.44167875633371034 -0.0849477057869892 -0.8164800341185809
Ni 3.354576464920477 1.7987248730389636 8.266516118583311 -0.8841532690958387 -0.08692514122833415 -1.5828708648902545
Ni 5.706315845365985 5.782659025975039 11.536941684695181 -0.205013338323034 0.1681185221792137 1.0551665963243442
Ni 3.297495777974541 1.404889808129333 10.431043662378135 0.7807581552369391 0.7359026894851456 0.8341088029439376
Ni 1.378418015223417 0.275117225417896 11.331814032632092 -1.7237508630684895 -0.6263083887940697 0.16801927759718804
Ni 5.89474713733957 8.731846699356247 5.548522661586215 -0.2206937251727683 -1.0245239317378225 0.6669022510560321
Ni 4.2169971327709685 0.23316098860891407 3.5305587578094353 -0.006240324482756995 -0.2733128940303809 -0.9842730546375756
Ni 5.789001324524586 1.7621223655108116 11.944203009253462 0.12677724022826553 0.012445424852204371 -1.6239195553014483
Ni 4.172601042924129 7.243385563533903 4.222890852700965 -2.6838552908796616 -0.5618935128531097 1.217653117028761
Ni 8.727370337081306 7.219392261740217 11.141376387967277 0.7393145433801719 -0.7737662973001384 0.36274074707591075
Ni 0.6909524329187907 5.439552925541217 12.40089845160002 0.42648250820924616 -0.11873688642229228 -0.8638222708479705
Ni 0.8091133187043166 2.674876193172802 2.167051269725833 -1.3253170334663433 0.3054753376955385 -0.2157500080142478
Ni 4.19342790740333 3.9996155567792373 1.3826380468586141 -1.2386500309954023 1.5244047503335616 -1.2685185364200606
Ni 9.150136838167926 7.864638679851712 13.559319752871083 -1.9375743434839854 -0.01694279850192566 0.6307198875982041
Ni 9.01765536267082 1.255746841048866 3.637370416041883 -0.3509064734451441 -0.5707345081835075 -0.056412574461773814
Ni 5.340309617925622 8.217196972626095 1.6603572167483234 1.1831052038505625 0.7758818009812444 -0.9560225444323147
Ni 9.032215319965102 3.3425609661824764 9.334138887469463 0.3094502631828864 -0.4816630100361318 0.9907126396153325
Ni 6.882845210029258 8.590412499309258 8.743652987057398 -1.4723157429478062 0.6810608019446013 -0.8359371144019281
Ni 8.192129343886423 9.390107551787096 11.706717383490924 0.08702592847225657 -0.459339406838267 -0.5076458072531386
Ni 0.4604282572878317 1.6376889181880203 13.295572487631537 -3.08828339039203 -1.5539996903818591 0.7824710241629879
Ni 5.923735117040032 4.815689383223074 3.141089795303974 -0.18587404639042182 0.827891104169 2.45081769942956
Ni 7.8965480749316095 5.592540852217844 12.843787850298604 -2.028068690120817 2.47745509951143 0.09734813633387106
Ni 3.3613899594989665 8.516642049018223 11.604222823275634 -0.43363557431425964 -1.364580092732024 -2.84985830937777
Ni 1.7742321034546 3.5684617663774647 4.334930902070545 -1.6010063981487006 -0.15085922087813372 0.3905719103555661
P 0.6287894256046945 4.612688710034628 1.1531194035534154 -0.2631621787496242 1.2200203317093568 -0.6371103645055802
P 9.32589295696299 5.3777697022264475 10.181737613033581 0.22578322388053373 -0.4355279062409661 1.2855780630055085
P 5.04024256277529 4.8798097388413915 9.316263594915549 0.8169991398468446 0.6750606184971084 0.21658098855597538
P 7.815756803809353 3.598524073023913 3.134827600079345 -0.2681640028395898 -0.13505722084887062 0.11300641169641827
P 1.4197136351998232 7.506350643365406 12.338472516901774 0.7656223280367653 -0.5230798824200218 -1.164185227017608
P 3.8392298524482333 0.9131354964454329 12.418457100422485 0.3108556281708453 0.9282808555426721 2.4653197497004764
P 5.968527011551182 5.883278225995141 5.661610650924161 -0.5280382548665615 1.6799585484738875 -1.6595928403333418
P 0.5287818380301573 1.7733085592378754 5.568425981848692 -2.4636696156915634 2.312745603013765 -0.5729621119624455
Ni 3.8690377132390537 4.322978543600423 4.388722640734472 1.641639855399347 0.24630499798296934 0.8103348404527915
Ni 6.904906608104285 3.9521661166648596 5.5448397934240115 -0.09332615965867153 1.1853788303760877 -0.2665220963607926
Ni 8.450834811616296 1.0161625081734253 7.494171168409333 0.570205889373547 -0.31686583892066716 0.7113491685154975
Ni 8.279583326857908 8.898800876330691 5.409780875648597 1.1042805802421756 -0.3420829616162431 -0.3825148443790444
Ni 3.6767520377487304 0.8376187936711431 1.019402452068425 -0.1954254375242828 -1.8320794096732642 0.5337540743044162
Ni 6.554817382521555 4.64536144268141 1.1166177319754569 0.5731901688128516 -0.7411256284469816 -2.4140614657461326
Ni 2.0146928609438715 4.573749070202927 10.072250503748803 -0.42510182581163564 -0.6043645375331269 -0.20494726097178895
Ni 8.442636000712719 5.346680188236907 4.395826392066789 -0.9949094513054995 0.24376603361119953 -1.0380402210567026
Ni 3.3680338235070373 5.762350477127673 11.688303985071961 -1.623231528095488 2.7518625121575706 0.38756860475286803
Ni 3.1769167141684886 7.990419747817274 2.114141610028084 -1.0296293712851878 -0.08343949667257888 -0.03256122176547295
Ni 0.6108877460731607 5.697240609848578 5.934709272554072 0.812806956142368 0.38400119911658387 0.2770548775713164
Ni 7.473187866848524 1.8963095706326853 5.485103445658962 1.6596774296273482 -1.5415239265123515 -0.3484752382958321
Ni 5.040892813295229 2.608399857409778 2.8055228313332115 0.5132428417249418 -2.171258567379151 1.3258615931159035
Ni 5.379173866392692 2.0463572340887195 0.3589675011600397 1.0978556505524382 1.6454278616868696 0.4209024430183073
Ni 7.069174967713764 4.653202144602992 8.138477079247062 0.3105398967026394 -0.9414852700480884 0.4982224570567097
Ni 2.5486427770194555 1.352398570505284 4.893637457506699 0.6892016858841807 0.638949474596848 -0.9085903190922804
Ni 1.033304619706306 7.527271747050395 1.873015523745948 -1.9391522294940668 0.5605827644614861 0.4402296825920095
Ni 4.629142875365254 9.199668964730224 7.53905353255804 -1.577443009006464 -0.40326647510409896 0.43296940148517044
Ni 1.1229449522520791 2.6779483912814985 11.364475456574182 0.5079242577255059 0.04495702432666451 -1.4323402309961333
Ni 8.315262290169334 6.258896852425905 1.6431708127887223 0.46232060095377797 -1.1332294020660418 0.22592540588535287
Ni 5.893267581808694 8.51867761586325 11.493245792147347 0.029881103830148536 -0.016613697297281065 -1.5610473412572599
Ni 4.293811509408963 3.8092900567693095 11.214560670398308 0.4471608624942041 -1.977320770143988 -1.287992328873956
Ni 2.1796868624379204 4.8337644628932575 7.576900939994655 0.35867531875728553 -0.6086279407951711 -0.49842943086119323
Ni 7.647030929766089 8.492007920625179 2.20778145446751 1.3434283983550734 1.6784925054513222 -0.8061395714245213
P 3.1449319277239605 8.820959292349606 5.612728774881801 1.8524312338567388 0.5892024850807078 0.030831383558559806
P 6.212041119307993 1.1843417948231172 7.262010057773833 0.8604338139917116 0.6021217642455373 0.7337648172065363
P 1.2144135253901442 1.6307340648008484 9.474784305364004 0.12287327718816902 -0.3198596314416685 -1.3250961757047888
P 4.319812106285938 6.316448735400782 1.4179890577338983 -0.013978316556963024 -1.4690172747021928 0.1269451332646975
P 8.809264206911285 7.417238050372047 3.7413822274703628 0.10667918392680982 -0.3719157287069595 -0.7003127081956778
P 0.27143341486363376 0.5148608225511186 1.4284024899734988 -0.8983331601406465 -0.5888296751223214 0.23753290821729414
P 2.7882176859743173 2.1117026993822847 2.615374501030166 1.8017769020349808 0.15810690357948254 0.9334444020214827
P 6.428960923191362 8.216056678236056 13.453238448483493 1.219254657187926 -0.08047655738951302 1.8437969552205082
Ni 7.747782064674295 6.707475471977923 6.7180886913337945 -1.7129748554989077 0.7646044282952121 -1.860017530844429
Ni 8.899102441789214 8.955683660944473 9.595968384871215 2.2213320869967745 0.016877492481628995 -1.60435963089165
Ni 5.370758305315803 6.79684251082691 7.691699370917656 -0.24583937120046045 0.40603246788501046 0.800950313914098
Ni 5.439298479685589 2.7535188104030874 8.87191254613519 0.40003665531289173 -0.42887029171513236 0.2316923902761171
Ni 1.3167196071938567 7.9956029041356285 4.68340675245018 -0.05652750277308329 -0.4175294127810164 -0.4554357009084866
Ni 5.112241315997505 4.54680608126807 7.076247620108171 -2.629942600021606 -1.7408448424362988 -0.21129557178732
Ni 8.24912521554715 3.564503719734359 13.371998598741683 0.4970436062572601 -2.315968223716121 0.3186399001019545
Ni 8.987809806197683 5.796304862973176 8.212903434410382 2.8108047950197332 0.4028856947259126 0.6501324877968611
Ni 6.21141914054979 7.309202224856409 3.6800730273607076 3.153681199071549 -0.8664460816240627 0.04080469272118779
Ni 5.269215561078974 1.4536868688864835 5.196722052026371 -1.4697729219212945 2.043213001961423 0.7960135387341131
Ni 7.722299783429156 1.9967874118441056 1.5217935429096436 0.3071990052548645 0.9759089989435967 2.263403305135211
Ni 2.0307417976896085 9.031376591033586 9.082654027687083 0.7610419077549345 0.08409461375807453 -0.24338833855680664
Ni 7.397146251697994 1.3693522036265882 9.76447656634911 -0.5332542518498623 0.5909325803979371 0.2582683409924326
Ni 1.7721305691655223 9.096279132059946 13.678558735170824 1.4306674712794005 0.4783653131214665 1.321935261478304
Ni 9.334120039628305 3.6054223828876117 7.140122011399382 -0.14589802021811646 -0.4817918223045122 -2.298952920105047
Ni 7.03691688757245 3.689606265418246 10.89030429590625 0.09353261924252278 0.1617666118192569 0.20018043571076494
Ni 2.1316531392476548 7.485062006777842 7.036303390342768 -0.3446193548848517 0.003687990374548487 -0.6972389543663605
Ni 2.2293886195706376 2.453536570537964 0.25672550201626326 2.540855675255263 1.9690315335520021 -0.06286398651407238
Ni 1.5242437622601381 0.5782187829946097 6.8535339898529415 0.15728415056787107 -1.8847800825010896 1.8555073016789012
Ni 7.399681286333697 0.8571734288722028 13.52965136610483 -0.7235043158207927 -0.9729396319026276 0.08863852437501508
Ni 4.268065358387616 7.45471698251403 13.260994238243716 1.1772096643017338 -0.7461626766502568 1.866396180677263
Ni 2.0026113947618187 6.673671868861682 9.091080897468668 -0.3199323936611329 -0.1146308346737187 1.457940962283373
Ni 2.476832502208817 5.698399752079774 0.2754734496157756 -0.3240132485987258 0.13966180950041754 -1.0781733416321626
Ni 2.304666897154283 5.426255773604496 2.5474581902026974 0.20228411231732904 0.026910451237598818 1.1484066240271127
P 8.608374491932496 2.0550743606241317 11.589519622388554 -3.061779173453914 0.8258193092416357 -0.10563711581554065
P 6.4855609901877775 0.4044313212084599 3.626046633074368 0.30952199696108634 0.09303922454587203 -0.11115264631713116
P 2.405860956329694 5.956294762639869 4.704413613812437 -0.6649047610100292 -0.6463365110895385 0.10396358476785966
P 3.4058048971869637 3.1418503056946845 6.600987054221329 -0.2620190662841165 0.7823288421581688 -1.013923530514157
P 9.299666185992125 8.120158862425944 7.3570154283051306 0.621346159692788 0.5265644985345126 0.7409752189120464
P 4.74087287774779 8.413355879474313 9.612410299105091 -0.24493254311547494 -0.41557280327527785 -0.6648919054942226
P 5.544997172897678 4.06465945661428 12.973068019975083 1.4782385361901444 -0.4282460278675721 0.4838404773034248
P 2.3308842442045714 3.9867896008714583 12.30440410161727 1.9774043309967302 0.9001211052790047 1.8838673408788327
