# total energy = -340890.20795702765 ev
CRYSTAL
PRIMVEC
9.10118782468208 0.00000000000000 0.00000000000000
0.00000000000000 9.10118782468208 0.00000000000000
0.00000000000000 0.00000000000000 13.32050834358903
PRIMCOORD
 96 1
Ni 6.5292556714075465 2.2915971195700315 11.040796260804868 0.1751018954755823 -0.8914467174334583 1.7984064429008513
Ni 4.559813288271385 0.41380915598159723 5.962872386756156 0.14212852587335523 -0.5326413008562116 0.1564886512497692
Ni 2.7626108799074056 1.7341584820629525 4.783008081894665 0.9037497031705273 -2.0007409488401415 -1.4308363927570973
Ni 3.43476088555338 4.166569175724145 4.796061915227069 0.10341645401513802 1.126107703419596 -1.0881625916343904
Ni 3.7556505569149468 2.9635742026521656 2.6165741342695203 0.12924164260835805 -0.5161361041123368 -0.14856579685826674
Ni 5.446860534832592 4.689750943215769 2.818686026885681 -0.3794796570971465 -0.18415757791994736 -1.305261657477365
Ni 5.318906938778583 4.29461378365386 11.288610676925174 -1.0709287442546074 1.5677504643090485 1.112854952174748
Ni 5.882798318273164 8.014733304293477 12.197709190851008 -0.4029767117778221 0.02921493100105936 0.29554856550012976
Ni 2.0369913972845977 6.73355912999069 0.21115574270499082 -0.23470418051924738 -0.8555181218576492 -0.3311460029887652
Ni 2.8744644751491566 1.7438148420752795 0.337286370888624 0.7610100260757344 -0.5370623127420429 -0.40067557444847124
Ni 8.193635348367286 0.07588297160676534 6.61636313764504 -0.6437934329527105 -0.3773081033671244 -0.2099028052048514
Ni 8.85902317164836 2.4129705570105515 1.0647351922131076 -0.2777537034105539 0.22548651857572136 0.632809166027065
Ni 6.810973831465574 0.8663702585197325 4.556146419799219 0.6155413800855528 -0.46210411406759777 -0.4520323316538925
Ni 0.9641343052835537 7.231576113849811 2.3120939040976105 -2.044710412442556 2.1017349094567157 0.3469240917586284
Ni 7.888254100625893 3.64629068706752 3.5724272689826537 0.22240659409881697 0.41864501444269836 0.4049130095685865
Ni 7.794593779337621 3.9879128637147416 12.413274458933918 0.3826757954369409 0.14547713063061396 0.06758401769756103
Ni 8.438429990451693 7.174338745218781 9.175925612735279 0.5684413412739565 0.2443877263555985 -0.7783330907352143
Ni 6.886768521552905 0.8216615846982861 0.4681350547088174 -0.06609303497433133 -0.252422680844933 -1.9129141217331442
Ni 1.9997402365584394 6.9269866694270545 9.150110094191485 -0.9840285427269375 -1.6047213851064426 -0.13116817020710958
Ni 0.4637437317060391 4.998736261235088 1.1527291141199703 -1.8180100760643916 -0.18186286834849968 -0.410878483123402
Ni 6.415354308962427 2.0871025360479076 6.731984624540988 -0.37849415325542557 -0.2348785013135826 1.2112037618589913
Ni 3.6066914199481657 4.8135634989251885 0.4166159622283471 0.022827539417476814 -0.5469340633298 0.5085264100858791
Ni 6.404360074377233 5.756273608667727 4.654478380667443 -0.47407337061433197 -0.05766598725290068 1.5037312811446102
Ni 5.602791181478396 3.105106770561398 9.033768703358708 0.32536667730282676 -0.07556934989588275 -1.152864659798466
P 0.20539469097284854 5.767850319257434 12.269466594132055 1.298971710703595 -0.0014627005884555453 0.8987869598486135
P 4.357675912330026 6.081877695190825 12.188650778862064 -0.25390543603804655 1.5724442702402919 -0.0876836166609135
P 2.4041151015044306 8.551621460266311 1.3323838264058605 2.182154131245732 -0.44024510921097726 -0.4975308303063238
P 6.509442386066514 7.9724491868408185 5.582331711819855 -0.6183094297489932 0.09593762913958961 0.2501979052794723
P 4.932070062280993 1.1538303578160038 12.652644793226292 0.0934202620343746 -0.1560559345877248 0.20994574262764487
P 3.8733653169521154 5.999448239364581 8.064221921826963 0.757065953826322 1.9551959132204908 1.0456761403354056
P 4.702073951186259 1.1682284365525744 3.826781798491141 0.23307024446025024 -0.3204353014394804 -1.153629820099265
P 0.2199620517982307 5.5707550012301486 3.6859445613122968 1.2145809058613406 -2.124477345359554 -1.4287401723497006
Ni 0.8730650920966107 9.056992203682418 4.5193685208267285 -0.2739423000842637 -0.01343735645182847 -0.11498410424807941
Ni 1.828992856547822 6.557888007504418 4.748614694065652 0.7218999474481502 0.053294854768398535 0.0804593309983324
Ni 6.065713986065574 6.031238687548425 8.978062154477039 -0.009964053191247355 -1.5776826358210958 0.025802305775084595
Ni 8.698405413403737 2.4854979207600643 9.983933595840263 1.2037994989751204 0.7425147954850244 1.3263848126092255
Ni 2.2770352194571917 5.341860133831447 6.773304926229929 -0.5968409754625721 -0.4503914536163598 0.4124674248770767
Ni 0.570621707702984 0.12569741165527623 9.208187502435276 -0.08702155759688239 0.24050536058205674 -1.0249476495388026
Ni 1.3898059491445733 1.4567724872884953 11.766311079770615 0.11675070923019892 -1.7651019152114504 -1.9399662407549298
Ni 4.44373674199691 6.99036733966819 1.3806574353986816 -1.0082318794460186 0.13918512697431515 -0.1746195565225251
Ni 5.814284578242253 8.110523303473252 7.810586386136547 -0.5381740577489829 1.2030518221758186 -0.09502437329670087
Ni 5.61154652392124 3.0200379703397022 4.622616033101791 -0.7192769080030064 0.29267947148245077 -0.44563799809177446
Ni 0.7950205884418456 7.566490715257555 6.864124766877439 -0.23545314287012997 -0.67602349663101 0.5789553534314029
Ni 4.767192948253364 4.606111029442644 6.692662943642536 1.5934432410894623 -0.851942745801565 0.26490512958265994
Ni 1.1629042418238171 7.714066471713617 11.48488870830863 -1.0113593693314067 -0.6084798452530811 0.2065014928327863
Ni 4.839347163312485 0.5764692207170462 10.443211374805445 -0.4480530352911703 0.13343691163662824 0.4735388382671006
Ni 8.262613248964293 7.223885610352718 4.286885965287727 -0.03893884315704261 3.198656221120343 2.167034501995474
Ni 7.47083723389134 6.555931252176755 6.9779214656654975 -0.08329782888839202 -0.38073744076364746 -0.17432979319624817
Ni 2.2488670439264173 5.488871616658136 2.560295120689666 2.4320319341816243 -1.8493081148467247 0.3351093585118874
Ni 2.381134602888855 5.313173190609152 11.256961297148674 1.381010213263589 1.290409422955881 1.0676819551825354
Ni 1.2291790897123795 3.3494554544548505 3.6113093625214505 -0.11692528713485024 0.2383949991072733 -0.09088541142766283
Ni 1.7797190270410004 1.1796231233908716 2.3258803830294417 -0.3187291173816511 0.7585728773891516 1.5476539506694893
Ni 1.3085323441397858 3.3366227799804102 8.015682558157083 -0.45454481366310107 0.6056356909360667 0.7995238658802166
Ni 3.5927392994025515 2.5463848656068753 7.34436895164884 0.3382391623901207 0.2520591268579272 -0.8048069686560267
Ni 4.340938828387832 6.886095033672687 6.031672814195539 -0.15245484750002775 0.548243526169843 -0.8504635901528772
Ni 0.6590133515066788 0.1065002767127681 0.32511262239428995 -0.2276696422699692 0.25961662749021097 -0.4157116428459873
P 0.3485008542130248 5.462459970328472 8.024593530907383 0.9619527938738207 2.0060592757292612 -0.7265816691945358
P 8.616713153770705 1.6985273327243477 8.010554038961093 1.3024555554871375 0.3488303076424057 -1.8814137371320179
P 1.9501478654866493 3.3588569812152027 10.495268347471335 -1.7085618140328769 1.1926409112551395 -0.4926035682080355
P 4.038779401046405 6.08611884859869 3.736775604012435 0.25167474693531494 0.5101968558097665 0.11495453656172461
P 7.040278252304948 4.394635835053928 10.181797054098503 1.777989055586764 -0.2638669181261327 -0.8861633575473319
P 6.586411129350442 7.988512782902795 10.01766168685787 -0.6681700620248621 0.6024068995861238 0.0601617570915609
P 2.528482829655653 8.356400986878553 5.8584125962966995 0.15150945286762293 1.0869418318534119 -0.6491284720123789
P 7.141629077090313 4.157759226155877 1.367469814608991 0.32686691599743706 -0.7892847046507117 -0.07530658315279934
Ni 5.354365165553348 3.1986578775988237 0.2488392098407491 0.1585668739350366 -0.5275080933947045 -0.2051082120296855
Ni 1.402010641676647 1.2222075800333574 6.776329250859614 0.34680273568941566 -1.5338139594626035 0.7571402587076832
Ni 6.990567565794742 0.9851034414460431 9.076141102330801 -0.7961786035570675 -1.5376790988449647 0.23180474748426527
Ni 2.594065987288855 1.7742947192489673 9.400948834941477 0.8243141854510191 -1.771934878972884 -0.7429943062246043
Ni 6.3600281897212065 2.2763162256391203 2.284640171791122 0.06280690802389183 -0.2792819671296223 0.871679304998544
Ni 4.303933399726077 7.466277538918506 9.839206511093776 -0.32224792916818695 -0.8016748507849484 0.7387519860084826
Ni 8.284264974194572 7.401240452539535 0.07014012224976414 0.2644451592271059 -0.26899215516784 -0.12116503624781069
Ni 8.002510409386263 3.8806189634458237 8.113960822018639 -1.6316621753613447 0.3981096134935079 -0.7507166145695264
Ni 3.378943302183351 8.36174338398245 12.420787489273385 0.5958313032511351 0.6627504336711877 -0.34563391219229506
Ni 0.3586869033419563 5.032028405368068 10.168009665047915 -1.1440810000685653 -1.1017233610379606 -0.23620364788290935
Ni 8.687229155067131 2.426731552617185 5.817571927192725 0.15035554176883784 0.8798736678838781 -0.8150042209040027
Ni 3.6091123358419255 2.6986841384120392 11.577239368705502 1.1851834265358299 -0.006800567861601191 0.3187993084979542
Ni 1.2582937887504886 3.530314253856321 12.656027704646258 -0.3776909406278398 1.2781491175312891 -0.12387652164170278
Ni 3.0253439626933183 8.645136162553454 7.95185046901245 1.0351549290891073 1.1588216487128493 -0.12043689983253451
Ni 5.696770044331635 7.736082244446717 3.3653734315156987 0.4668272305748799 0.5953620769242005 0.5827914393480415
Ni 3.2202003885782564 8.176106461106455 3.4764525156951973 0.026706819867224976 0.915817690078655 0.024475359433544945
Ni 3.768437725451534 4.340866018887267 9.374107612558486 -1.2967448782556052 0.07947845514230184 0.11597680717865187
Ni 7.494818863139672 6.366362616270292 11.188027992370763 -0.3345555428909464 -0.9663041288639809 0.6299493279807667
Ni 8.11481906400654 9.030598759727894 2.2448916451956116 -0.057614050969042714 -1.2750229131974817 0.43287247089598996
Ni 4.738806344220897 0.561276608305569 1.6188145813879058 -0.7450810135503039 -0.8281600415596705 0.29356315963898477
Ni 6.2842517020090165 5.745889153649758 0.12380527475936412 -0.5648348548696208 0.014931424498851705 -0.260400556844087
Ni 8.327177073589596 9.095280899791614 11.169219478137515 -1.1211611580475984 -0.5095990743247675 0.35993927307137363
Ni 8.9681009046811 5.216746108299441 5.78064749910035 0.02837700848079629 -1.6099229839120404 0.2644801262300993
Ni 7.580470139365882 6.09237136445964 2.5140192223685753 -0.739790711685642 -1.1634905149434285 -2.2217869151460063
P 8.904501805938272 1.5035343890258521 3.3019408845054112 -0.4584091817145137 1.8742892102720945 1.4019852728533597
P 2.066542953326092 3.480894805348371 1.3486485587131456 -0.4627975405901965 -0.11172291699830435 0.9153507777445654
P 4.877417430919992 1.1504993231651919 8.343833156962415 -0.06789640673165727 -0.48579400148536983 -1.4507542147269468
P 8.38743603649404 1.8141397184327255 12.22672104646957 -0.08926201689162692 0.21379545539103822 1.3799591462912557
P 6.5455923030966385 7.627113725664822 1.2732443095725896 -0.7025503392769449 1.4707730810510347 -0.060205980065935014
P 1.9176020187344522 3.192560081926572 5.915664526827843 -1.4577316744860445 1.397709271185825 0.7609138668175025
P 6.8858584027958525 4.091475277079744 5.952362335349713 1.0398268806434803 0.20005727986933933 0.7238781542204437
P 2.398663490149686 8.838991457805633 10.22241110363197 1.8391679410889294 0.03389485297523195 0.5081456297076926
