# total energy = -340889.62149905134 ev
CRYSTAL
PRIMVEC
9.12275451298094 0.00000000000000 0.00000000000000

0.00000000000000 9.12275451298094 0.00000000000000

0.00000000000000 0.00000000000000 13.35207337190790

PRIMCOORD
 96 1
Ni 6.378192205780109 1.8631675640820435 11.509247280690513 1.0547331083313511 -0.11060834377788693 -0.4215151369016418
Ni 4.551652501886132 0.5273590819157075 5.893898912056134 1.8072250696337457 -0.6753349552044177 -0.8249263651137213
Ni 3.0329784014209675 1.861114944270757 4.672131249778457 -1.255561204928444 1.2600331246568688 0.4766760983445017
Ni 3.853898607369501 4.492062668075808 5.084055554884774 -0.5495182791172085 0.08590801281772946 -1.1403744977512553
Ni 3.693091809975964 2.9934495052329493 2.584881461586953 -0.5884854044090252 -0.9354179808080857 -0.29870922261629845
Ni 5.318848805307261 4.627708907960332 2.604736224952659 -0.8945531242729238 0.49230969111670053 0.34819678782346486
Ni 5.1369319534989835 4.725431856486998 11.299953041977032 0.7897287341666657 0.1941864229108591 -0.46817577418297435
Ni 5.698109087149975 8.159291468429563 12.265268209583526 -0.5877384989406716 -0.5818326749791979 0.5874029699781239
Ni 1.7561394057442112 6.526692407060644 0.224204469022665 1.188628961882269 0.41682210230134664 0.8029269780244945
Ni 2.6877277491625913 1.6850913920095503 0.23677106364509629 0.7717829483215224 -0.5185920218519972 -0.3576057398421906
Ni 8.448117882764354 0.014458653950701556 6.605124378463105 -1.5064111419696185 0.033847287566748166 0.15074583522872104
Ni 8.764476770834534 2.272140658037467 1.4318765629873706 -0.11593926907249709 1.0345944285999473 -0.7778720919383958
Ni 6.99801952950559 0.8918368520152715 4.5280619704638845 -0.6798179306764356 0.08451138958051897 0.6830127834646494
Ni 0.9741551169271022 7.786143432247124 2.5660146925570797 -0.6837710017869127 -2.453093382837614 -0.2979522898456159
Ni 7.504907149836734 4.058832169328337 3.49411723139816 1.7109634814958339 -1.240932913492308 0.6325371433126009
Ni 7.794344788737553 3.6997514209192492 12.559681398906903 -0.0568486335579279 1.0582046118197195 -0.04543910616940562
Ni 8.235867871522622 7.538597483005982 9.029660654045193 0.03283375870056926 0.011805991495992572 0.43245132419817134
Ni 7.051478872146205 0.64641103097032 0.4186313543741299 -0.7111990160908784 0.14764457059557798 -0.7647404396524442
Ni 2.09721183634228 6.543450907475457 9.434828647008228 -0.9025595395171682 -0.6259435492554832 -1.82205802088152
Ni 0.33160209892652903 4.992609973878756 1.383728488142893 -0.6364909857540264 -0.8693367729082964 0.11801594909586771
Ni 6.603524247285774 2.1831664312842385 6.88698648184707 0.333217026585181 -0.46494441172987017 0.726058449701214
Ni 3.6270339430714085 4.388756593662442 0.4063503019743353 -0.7475562145636738 0.12808798861988907 -0.1517169408927387
Ni 6.261649014272624 5.941084536277986 4.732081432400095 0.6659177756555756 -0.3233627594989205 0.47504601894024634
Ni 5.573382784661495 2.7752514579158443 9.348681561941744 0.15937137211420294 0.6435332373127884 -0.16840185774758737
P 0.09268171427014789 5.848479453147459 12.486058031515682 0.9474337743220395 -3.506656382120264 -1.3357279443870222
P 4.301223762154471 6.18347612910412 12.628030901796325 -1.45239637831606 1.1379810578184142 -0.7523670056887558
P 2.5737845427494026 8.46676479340555 1.3108522743629798 -0.23215518884514857 0.5110759159806102 -0.3070743067515421
P 6.47216570211816 8.148544863373138 5.657473600814805 1.0512970860666087 -1.0347823762410373 0.47882194104291087
P 4.773974034335243 1.0009577702851444 12.639767325739525 -0.9442762025296642 0.906226189735478 -0.3203501979248418
P 4.002882314650027 6.291316212611751 8.411205392629123 0.6153865996752433 -0.1982513370088521 -1.499624200954772
P 4.807828577089394 1.2185810840550892 3.6627011771877926 0.9009695693222289 -0.20530695830405285 -0.7613316710812114
P 0.2935821063686744 5.762415385148899 3.5445213634841095 -0.01950181747835351 0.2025203966978512 -0.8495094537697241
Ni 0.7082833780107946 0.09444787958332589 4.488245707502287 0.13870510201410305 0.14800478214847412 1.546893675464697
Ni 2.237246121245598 6.618859597964763 4.424503195744863 -1.2333597291307405 0.023695800955043058 0.6251259384501944
Ni 6.100732743822486 5.932664233674353 9.103657142104332 0.03489989720097861 0.05793389620230668 0.6241208942244477
Ni 8.543240846196726 2.5229525534672343 10.16987362598084 0.6523284670069153 0.3005730152979146 0.3151246878598444
Ni 2.4510561235439083 5.69032737737652 6.852351031289159 0.13888302235286404 -1.106043071459237 1.0619437671471774
Ni 0.9897823957570294 0.04981936350860067 8.632035354682033 -0.7434673892062809 0.4417864855561681 1.4966599761201258
Ni 1.3463178956001225 1.058075337567208 11.358849546428877 -0.6497275390489584 1.4230611196870524 0.42612949574520154
Ni 4.129798078270547 6.926387659469053 1.4258281766101135 0.7101718603779447 0.2517565080158438 0.09830484382018553
Ni 5.654328987263915 7.974829368055289 7.682943181788473 -0.3050441636953907 0.33700091910764546 0.615253930752121
Ni 5.612063264660848 2.9573507648184587 4.723122887268169 -0.033044589159794704 0.4438071155306228 0.08389586748370713
Ni 0.9273006487014708 7.510280452364946 7.055849583931038 0.42416491581966304 0.1508887885644885 -1.3753409307929538
Ni 5.137187390631055 4.895051234936992 7.0196787737542845 1.4186514206551308 0.9673389978863984 0.12015562114668983
Ni 0.9221280467770291 7.4623221308185785 11.20790444688423 -1.6771974407889825 -0.11401968345228106 1.1634123534073253
Ni 4.684041918336747 0.5034656750368619 10.142809149562424 0.05307219723463118 0.4367340107339253 0.461836719338824
Ni 8.533087220196895 7.248329673425932 4.942256929219221 -0.0918698868281192 -0.048917037415677045 -0.8578146312013097
Ni 7.509687473308352 6.3998861164967265 6.972786902234314 0.16635808784468123 -0.7569780220982061 -0.329010187592685
Ni 2.68502741376641 5.304334502552787 2.5081873749580472 -0.18986208450389236 -0.14147083768469826 -0.4352962498461342
Ni 2.5958251181452607 5.2378296206671076 11.568249609097071 0.5267588739335057 0.7735580379440743 -0.7742614917690019
Ni 1.3353158534116274 3.74772798797505 3.741998898012882 0.06936476374706764 -1.5091622223521945 -1.127747038795232
Ni 1.5230256544650915 0.8874424210681752 2.521138949829529 0.007392435809329203 3.3257340233081627 -1.5590516509834698
Ni 1.2901126037897417 3.311651189755929 8.07349196031779 -0.5892122552727207 0.9399865740153747 0.07066137107130412
Ni 4.283781055135895 2.789336991198627 7.037531092459647 -1.8546197568676255 -0.2455843177668609 -1.0136589639988607
Ni 4.178796393854633 6.92757361758224 5.693378026553828 1.4270255036514392 1.1927391273959007 1.4685390495141935
Ni 0.738986009010281 -0.0008183110980995202 0.20881985546820533 -0.5905571993363893 -0.07286763469400354 0.015026555315819283
P 0.35202612218656476 5.83838056367593 8.186890538274383 -0.5075933567486485 -1.2168540181662335 -0.12883823652235232
P 8.793952391324607 1.7461134983104165 7.895694944539632 -0.3739736396772527 0.6075766167125214 0.38243385462946394
P 2.090707312229181 3.490995424734061 10.309977243820004 -0.8980490532413244 -0.12557756349320953 0.7148594956616011
P 4.389468168530354 6.2651977658574705 3.6783895784743232 -0.9141248757572644 0.1793295604036847 -1.0564755449437546
P 7.073118046334523 4.175676411741477 10.379154180562244 -0.08916174386833675 0.4482798065899957 -0.3695891374563119
P 6.3313924740827785 8.15446553118436 10.140712740528496 0.26164728476699456 -1.9742007364577678 -0.43266703975340326
P 2.6348978765974373 8.496851638461653 5.615281772524945 -1.9292658236182902 0.25646754033826796 0.9965166478916193
P 6.875984439658575 4.059297429818896 1.2955169236839912 2.47677170029116 -0.22559476201881148 0.6488492502090631
Ni 5.476289306210289 3.0235272275343332 0.1029128836850711 -0.7303606766209938 -0.38230221414760607 -0.8684299448233109
Ni 1.530287367219687 1.2528461507714974 6.638303837368211 0.4120673612251806 0.5074090086519842 -0.31240677470804906
Ni 7.233021691011094 0.7791580594058355 9.205921397929037 -0.7170212791996102 0.1965091575067648 -1.4997969790872108
Ni 2.9096752486683126 1.8447122312898994 9.249342061279254 -0.17557729245010406 -1.3356266429224675 -0.435677801555269
Ni 6.120237193407065 2.1923621680388017 2.2154691934610566 1.0945947204129793 -0.55350426034815 0.9981235873674229
Ni 4.030916539894842 7.3647542691220975 10.279321138869573 2.1979329913465437 -0.5478768868590436 1.3660862449639053
Ni 8.166781250052079 7.281965270066879 13.313566690920709 -0.8505816037879802 2.775608449624259 1.9947173683538808
Ni 7.831665978284099 4.075453828422399 8.125912221196158 0.39909717421775787 0.1566244054966851 0.26963981605416787
Ni 2.946668019045053 8.321722116162695 12.432716372410916 1.42841878445454 0.2897741249101977 0.17404285808344863
Ni 9.455735263992784 4.984144057501539 10.350701220875928 -0.5838723311170461 -0.1816666931772936 -0.13715755502132507
Ni 8.563365643102049 2.4679058515058907 5.650718200946994 1.1504722483068897 0.6822671635478765 -0.515988265680563
Ni 3.933220959632325 2.8034863837644286 11.418439380239201 -0.977759164778458 -1.041826170461696 0.3667452402496135
Ni 1.1851005742443286 3.6061610802793047 12.533337620111118 -0.4160911376725931 -0.561066388966124 0.3913234438096099
Ni 3.208418097380297 -0.24957576216563684 7.644476174249494 -0.07895035055297371 -0.9759197975768743 1.9458658940688163
Ni 5.868485654241464 8.09535008061931 3.547832923446318 -1.0284888299228416 0.03214727415650593 -0.9491499856821977
Ni 3.1617187159848523 8.878319626945839 3.6224306010412968 1.5379459793531063 -1.3748303097051227 -1.1177531608073137
Ni 3.619872580618698 4.166964180986906 8.863066381059301 -0.14559642981729762 1.1140574571232813 0.5473261565618962
Ni 7.199933459653157 6.277212433819534 11.401803124737592 0.29362923699022975 -0.6444254101097546 -1.1011788013884003
Ni 8.104983709600283 0.02955863755799616 2.502699125720403 -0.32901532979900755 -1.036279272501538 -0.4709679922161308
Ni 4.638063234563932 0.3658571306127485 1.3732473552487288 -0.11833759410134459 -0.643936386288478 0.6991716526126991
Ni 6.113495477671329 5.750190893828349 0.2985613058931194 0.21314985138723935 0.7126745721951404 -0.43478202921387704
Ni 8.0233533003941 8.913205040982989 11.251284970113693 0.7560151439643045 0.3576000834152357 1.0188345946625292
Ni 0.5043058807462818 4.858122323843269 5.530562398571645 -1.3377120646965865 0.6919882474903825 2.1087038845753816
Ni 7.408205949838352 6.189387674160625 2.4399582924308865 0.5118719295193442 0.76515978657805 -0.1762846029297738
P 8.714675652835368 1.7975567121586127 3.5223439467674993 0.3509599523908988 0.6302174940404889 0.8308735838360916
P 1.775826310423127 3.1954272946635336 1.4524921640964599 0.2436261655992256 0.8909934319461236 0.2431695376777812
P 4.995173467954185 1.082278005830954 8.01192522556033 0.4475498704025066 -0.5957171462707741 0.61456796042869
P 8.529118821895075 1.6525505259346231 12.52644811574897 0.9250011563501359 -0.44692457811368197 -1.0577842364528491
P 6.428431216005684 7.85499286209503 1.2521108567413208 -0.11416803610468726 -0.26613411689375455 0.8827057380160346
P 2.220633584906253 3.4076590603958326 6.049451002732777 -0.4702498831031837 0.1392190655360441 -0.21411015841797962
P 7.226553657916862 4.263674503740005 5.891455838342967 -0.548107771922927 0.3946944171643719 0.3593594893085037
P 2.341564821432532 8.706465173590221 10.279868504152583 1.358783283544589 0.47721345890521044 -1.542202697746931
