# total energy = -381166.8319224776 ev
CRYSTAL
PRIMVEC
9.26167129494746 0.00000000000000 0.00000000000000
0.00000000000000 9.26167129494746 0.00000000000000
0.00000000000000 0.00000000000000 13.55539212423357
PRIMCOORD
 96 1
Ni 8.907606716395545 2.9372371244620257 2.957108966065378 0.2153298897576937 -0.43571996764711407 1.084364815154855
Ni 9.2988104437837 6.911188669931184 5.110993019127449 -1.111583284551176 -1.6022392421145375 -1.8941813212103313
Ni 4.904638355236926 1.7833255168176685 10.515229069968802 -1.018804512755542 1.936213715691033 -0.701698789909927
Ni 6.351783732924048 7.124623881410149 7.7033801541024305 1.792951590433867 -0.3917011388640028 -0.6470499922167953
Ni 9.045068439492564 9.21620559886372 5.399749697339926 0.6912729665909126 -0.6434198516633758 0.5050903878211366
Ni 2.354363112779788 2.9192972674589983 8.393159783448342 -1.4973487746570342 -0.7586566953522096 1.6755743033632626
Ni 7.845765381578803 4.635642378574091 4.497204475338652 -1.0656664674144032 -0.3100549866464209 0.10458733439478761
Ni 7.862343772923882 6.644915624584244 0.7352785150005692 -0.9661215805395298 -0.25191565930152743 -0.17217932251214862
Ni 7.667802370575622 0.34663749201754646 3.4565167974113855 -1.3223908609584838 1.8725894539721686 1.246491895637324
Ni 5.076451616601486 7.529979442304046 12.977701817660792 -0.4901563922191236 -0.2534531789919764 -0.6166425835695316
Ni 2.4598813321063164 2.096555234857095 5.998314832271792 -0.39482862874939095 0.08116329904389247 0.2501086879997757
Ni 5.571923237711929 1.0537373725670527 12.882895647177682 -0.21827046044325632 -0.6006960875426042 0.7383814900429412
Ni 2.1112257219468185 6.5546050692737055 10.968020131953253 0.20581603672998747 0.6575879156336417 0.6552122163126135
Ni 5.743227107163651 7.331918604921635 2.167235678181101 2.0606579369107476 -1.5150467061574295 -0.6713841980867857
Ni 1.4244172367034207 7.3729755930963465 8.580440961787994 3.4452165296472277 1.0104646254312792 3.6612290472942433
Ni 4.421697775182288 7.218426086741412 4.646503540322903 -0.5804360517419875 0.40121833432581866 0.4135663143682103
Ni 7.699690304319257 4.372860983247874 12.901981172901037 -0.43936373504728854 -1.204301121201887 0.6965187883708843
Ni 3.193248238183073 0.7998416245349526 9.028202936342067 -0.8115954523327699 -0.1070126560068286 -0.4159052469140321
Ni 3.934385686348389 4.009951661200065 1.4557679935207908 0.3103375508838461 -0.5383041555689438 0.3720082884207658
Ni 2.370645130648307 8.613900601124513 6.304002771499879 0.3420402813037658 1.127059268699588 2.3989924872281523
Ni 3.7485502548740812 6.404408548355746 1.5440539475195796 -0.9562184624932049 0.389384060695052 -0.8593585786496618
Ni 2.5916749124641236 3.3514653663104395 3.7991291671504004 0.5998239693502959 -0.5048489612342918 -0.6692465829184926
Ni 5.114674533406593 -0.23835836852343825 3.273721972573161 -1.6279600439194093 2.1474174990954955 2.454595164194121
Ni 5.907436536520216 1.4563885254873385 1.9750476664701508 1.4636040741064213 -0.11205278953389733 -2.41672744261407
P 1.8321808320943678 4.991383167157602 1.5149639646280941 1.1180748058127907 0.18550663574867407 0.9747993108191858
Ni 7.6489733931429145 9.000964361511969 1.2753247069856477 0.09607081228334421 0.5206576461317742 -0.8066450503060301
P 7.324148062833076 9.08188358228401 7.864649002871251 -0.7020574588009264 -0.029105144896072452 -0.7018443143488557
Ni 6.9094382140852515 2.381212697421902 11.349983490042531 0.972534168934093 -1.236112095064897 0.7289385994624865
P 5.6080900635234014 3.618636793758202 -0.10665277404148482 0.8566406654978665 -1.407158332413867 -0.08973021477729708
P 0.24576400076898308 1.5068368482005483 1.3984688126634721 -1.2776660072472836 -1.2650979407742857 -0.15579496761685427
P 3.7533014921701846 5.1370599925580205 5.252321489926461 -0.1273616519768258 -0.17704230703140478 -1.0113547413457162
Ni 0.948913778576212 1.0521814118151123 7.57098456512036 -0.23798799347684174 -1.093734172184897 -0.9065979712526
Ni 3.9684223277970854 5.38856067243267 12.676961463157028 -0.3483394840489162 -0.3305181395967791 -0.7443245950002535
Ni 0.5827471267875852 9.109844567463224 13.48197573102507 0.07791008221391744 0.2889292604113992 0.8662622477480306
Ni 1.910997653517062 7.981133966997616 4.347823907648348 0.46088772516199333 0.32058931051884143 -1.805908407704851
Ni 3.796118197861973 2.814269916703023 12.788441420197985 -0.8162931149187553 0.5546445446001802 -0.7559737492034078
Ni 4.781948997612199 2.960854385875406 5.999805961325734 0.16823525026273609 -0.01613855743307543 -0.45058120102966276
Ni 1.9746623809506227 6.244681767832152 6.4499398498594 -0.696386119447762 -0.16599221986483026 -0.6684186877005586
Ni 4.825886365512229 2.5337338977966293 3.5212299460182774 -1.3414728172905992 0.8886156757425664 0.8536450732046523
Ni 8.669109422804969 0.7494099728297993 11.748675278549397 -1.0915477060565393 -0.9141269326397935 -1.3465116652660876
Ni 3.1741321489449486 4.3580052627353005 7.121216512596823 1.4420937108384713 0.3699136106752662 -1.893756832078403
Ni 1.8994205645889342 8.922295726827553 10.793263511499607 -1.2574607359440022 0.048874871323831955 -0.9525438418550949
Ni 1.92338976950573 2.675187401156067 1.003704898888141 2.4976953378177047 -0.7344340753594191 -0.09513081696757811
Ni 2.6544412577968615 5.470507938701529 8.908318938906403 -0.9236089039882995 1.036793493133795 -0.9448675562567598
Ni 8.883507848082754 2.175585074716067 5.168264414971339 0.26327684995061756 0.7282914527967909 0.6493961238514687
Ni 5.615554970464258 4.574672797442998 7.625748826585976 -0.5972634077119714 0.02578456516327172 2.712581969390393
Ni 0.9511551029926975 2.278028419223284 12.334701963088543 -0.022611823862244928 1.3873297277237138 -0.24450316888754017
Ni 7.6878909352837095 2.11793117185399 0.0386498798447762 0.6650963081955449 -1.2444591814780117 0.9671577351135281
Ni 9.398651258699873 3.84637202548119 0.9719660780499001 -3.3232099713347276 1.3195343653462952 -0.935546278855834
Ni 2.325031400271483 8.317647526289292 1.9334460920322591 -0.168473077305155 -0.11833296611565429 0.2722679977056343
Ni 6.82922288032004 8.02119995636008 5.1469005181469285 -0.25339687183274423 -0.578053924663056 0.4434931838346297
Ni 9.015181026715709 5.614425046584872 2.6640280135964653 0.42860521097920373 0.05543889769459484 0.4930612245707444
Ni 4.313188036076732 9.097721039937689 11.186438122506885 0.5210643946518897 -3.817130715692291 -0.8978587916073891
Ni 9.245768853150588 7.434917649697402 7.256147020970595 -3.4758715355289236 2.690396434432289 -1.4789026521367048
Ni 4.789469474579911 8.9959815824373 6.4795725666798365 -0.9437141593786068 -0.6810893411896914 -0.6169146062839956
Ni 0.07941327304427141 8.255260909473398 2.874095681448016 0.3034840182971225 -1.0899564503100196 -0.5201686223104977
P 3.2372504377811016 1.1125026759662295 4.28480471869342 1.9727784021889445 -0.7391571918667011 0.12336924298798109
Ni 2.4470724409162354 7.709044592173185 13.190927715371936 1.6042881542237661 -0.5403975477628629 -1.3277025029793843
P 5.906056547519984 3.1693253416219895 9.166196279362666 -0.6361937662285817 -0.8782492449065779 -0.6901445094134244
Ni 7.872568657865204 1.9071633216640662 8.462224065157981 -0.6710080456942895 0.28771441416769156 0.06746600406245801
P 4.697908593665133 8.80558014708974 1.0074290168545412 -0.8280173453342191 1.6666608029237169 0.373430365579273
P 5.350421110667845 6.961034984020132 10.391007831937104 -0.48325092334854197 0.4174584503337649 0.22420045277444614
P 8.845581304754207 3.408628400601963 10.627712065994492 -0.5103922596500242 2.064748562040354 1.557244165461086
Ni 4.814392631624385 8.434502031094244 8.797463218500452 -0.39783321990366965 -0.5483245159194234 0.5804499356990585
Ni 2.842027145117102 0.6971593289122584 12.511843463861386 -0.27803678186861147 0.8581972113517091 3.0680349245556386
Ni 4.4354976651846165 4.929496680583402 10.031518845042223 1.2263956391080812 -0.021125212014389425 0.7972178434548594
Ni 7.399028674020206 3.3774350921940157 6.610381631395196 -0.5797367116821176 -0.4537703973909217 -0.4722183196834641
Ni 1.55499753814156 4.715515030507031 12.92147421215466 2.539966844892406 -0.11644166263021236 1.525778747862953
Ni 6.400861328308167 1.0601742340110916 5.709991600268782 1.8309039013079242 1.362556634544092 -0.572345304314053
Ni 3.347066072517751 1.1042505269782599 1.8206380113494673 1.225490867905625 0.4383075258686322 0.24580877507284116
Ni 0.5535904598638738 1.8675789392010114 9.747573604988274 2.7350989195459863 0.6616404884364605 1.0121466411193922
Ni 1.3833972952132783 1.1319892320500542 3.440602467887224 -1.9831810855795071 -0.4064032209608678 -0.5806275989275033
Ni 5.14734970919734 5.301797337169709 3.4356956345159264 0.18997212771919542 -0.9787125298306628 -0.9987599353998412
Ni 7.4683615441929785 6.621715138372276 9.859080420875545 1.3970803793525746 1.1832694973425686 -1.3653509094597776
Ni 6.733346060652856 6.07400769201812 11.88515063366974 -1.3503415805351389 2.011051843847846 2.098110168219935
Ni 2.490380015178576 5.769965551752056 3.5016563302257127 -0.23320034228021128 0.4680143089044456 0.2443645864271469
Ni 8.352045372912546 5.485660032690663 6.904154430698454 -0.8015987461313743 -1.1466976117558056 -0.669121627304854
Ni 7.24292320691333 8.340977675897257 12.638369931840451 0.7338668900020393 0.012466765008443044 -0.8147219137768937
Ni 5.836019790340381 5.498089195363902 0.715964225999995 -0.0788531628534771 0.5836681855260399 -0.2462054962906276
Ni 0.17664507519960293 5.162603681569042 8.928462147474232 0.4075396485581562 -0.9442319795552899 0.8766865284051482
Ni 8.870745265248386 9.193533027906875 9.398577165330734 -0.03978705008995083 -2.5714134934374617 -0.44686569985128843
Ni 6.825379286795901 4.3620618746957165 10.498339486473334 1.5749644655589843 1.9210105255880334 -0.8967809851621781
Ni 6.573146934900994 0.10612856345481919 10.158532476923385 0.6475963516385685 -0.3189998545445345 0.3000757639465219
Ni 4.2211640716048295 6.726094172148277 7.04217555873248 -1.210260938329748 -0.4528280880823104 0.2962245085212318
Ni 5.542739711941905 1.4356609054704186 7.97881206604219 -0.4029641133723318 -0.16561015393506318 0.014818295959755125
Ni 2.16749037413752 4.302611207631994 10.804935069473387 -0.346047602690946 -2.5105444258662315 -0.6371751563052446
Ni 0.9091450888574215 4.413491934550032 4.839477867913852 -0.6574318496717517 0.5482766934006236 1.0803253549781588
Ni 9.276952899887393 5.550991860929874 11.775487816506942 -1.5779112068921342 1.8189521282626868 -2.310383530539492
P 0.22710821658664077 3.095815457763949 7.451860024718382 0.11449636597838346 0.816887811079961 -0.5011535146605756
Ni 5.897554333411166 5.427598616298317 5.738580526751458 1.2091625630592466 1.435960858467856 -1.8196820644501759
P 0.07436195760315067 7.749657020133056 10.981900598494521 -0.4081024630401617 -0.5941809121319057 0.2644202195264414
Ni 7.019031568714481 3.735565391932293 1.771283491998187 -0.7328371631859444 0.22140643496907675 0.712687684821263
P 2.6056878209027294 2.048978030198061 10.795677102999344 0.8218857785151845 0.09167885386323565 -0.33740046853890926
P 6.858573116170629 2.551460736363379 3.9193928931029065 1.6909219894639265 -0.061971556606790046 0.48659104346536847
P 7.26324331339998 6.690344121538218 3.551661945058311 0.777388467433758 -0.927364771486306 0.18946716305831884
Ni 0.789483371529178 6.783646196627785 0.8127987024633132 0.6139370117129104 -0.40999633762876486 0.4176494832986485
