# total energy = -340865.35861407244 ev
CRYSTAL
PRIMVEC
9.29869363755594 0.00000000000000 0.00000000000000
0.00000000000000 9.29869363755594 0.00000000000000
0.00000000000000 0.00000000000000 13.60957806492278
PRIMCOORD
 96 1
Ni 9.166512511126905 5.796173178315511 10.841362487554719 -0.048893897487225474 -2.244273783394612 1.716696013104237
Ni 1.213749155814791 7.011028878649466 4.98712082845538 -0.2449608252502491 -0.566540781817134 -1.661820958332912
Ni 7.652666621976145 3.8766438918362818 6.8065441008546745 0.21854299737835267 0.3831427077710305 0.40093885541218693
Ni 5.450726717080693 7.786986248693155 7.111875068727093 -1.461249972051948 0.9478693191975612 1.807749060458016
Ni 3.392274950632469 6.67200781458055 5.352075018654518 1.2604977229981131 0.05399522326953281 0.4794832287759936
Ni 4.031095189847327 6.21981235267344 11.730421725627783 0.42261685460625276 -1.8325797463484503 -2.066793360384524
Ni 6.593396660252713 0.4732012103843506 12.898667725101994 0.29230331908995466 1.7916321002914952 -0.3528934219681858
Ni 4.884110832414648 7.469221997824316 9.86050654785823 -0.00594387628826073 0.30598004524609884 -0.4571156597140708
Ni 7.858762863343802 8.246871730073785 7.811530150023688 -1.9307565492312038 -1.7183446044512536 0.5549515343176379
Ni 6.274628150492531 7.248684885546894 5.079598194438488 1.2529055124731519 -0.4417376345961037 -1.2163102298476212
Ni 2.7452811598852995 8.057475942121409 2.020015617120792 0.1134373285862498 -0.9012187092185575 -1.1896208934818933
Ni 8.129475725414576 4.851360834124768 0.349401195554149 -0.03145590451643615 1.0918778357024486 -0.2528697956846806
Ni 3.629345139843281 2.50328266315216 1.387673777624435 -1.5281906997385553 -0.5340795759646351 -0.9904331607017007
Ni 1.2956706450066817 9.268314606889994 13.247657918406167 0.39576245341757 -1.5720411212646024 -0.833315617618681
Ni 1.7181195866045011 0.742063632460892 1.758643292608844 -0.3964826194130462 1.108738101792897 1.136594718993849
Ni 6.033671107424488 7.904800694557089 0.3660198204671737 0.008857450390629906 -1.221073969784852 1.4342508177552848
Ni 3.0104334032799374 5.732867673387203 2.896253816681056 -0.1425249899808255 -0.3174227398654017 -0.38793935782872546
Ni 5.410472673186063 2.8648809548893968 13.048645421699847 0.3865710167262891 -0.7882261814792102 0.6949961810787708
Ni 0.7641145540806025 4.69845311922449 5.764608763439021 1.3136524526442215 -1.7238349381418634 -0.44173789170641986
Ni 6.422040337570743 0.6139787796942974 6.778604316680455 -0.014701567876232747 0.8179969849837396 0.1255392540561064
Ni 2.560925263776511 1.2565789377918455 5.326461767578574 -1.1650272633029293 -1.3525807542783026 0.28757171794224023
Ni 1.378810263038997 2.1952913390870283 13.569497786609038 0.35231003866089 -0.5255514838889658 -1.2151246941799523
Ni 4.585092747517527 7.625858488793373 3.219441065563144 0.35259106023641856 -0.5709558801656942 0.10046842713040761
Ni 5.290965865116349 5.512702508847317 0.06335478800353114 -0.038205050314811626 0.6508667948597242 0.4941020071304329
P 8.107307640257542 6.983783706875092 0.9676341274964928 0.3863162204030057 1.5988410150662657 -0.39794274889834047
P 4.927749600720839 5.618447250628268 3.8190105899053695 0.6381591174850687 -1.1315697549754318 1.3618788917507771
P 1.4426829882670442 6.600212602543026 7.139842748981628 0.9712977254238304 -2.4521667572582864 -1.221719830898967
P 5.127699405725745 9.440591500222363 1.8488880422974048 0.14486160853380212 -0.34451496809650345 -2.0909190497881345
P 6.545201532161729 6.169478525091635 7.663852950182483 2.8572882832932534 -1.4701868695302616 0.9516789227516383
P 1.39606863806058 2.932677728748429 2.118262822382399 -0.2896106027491399 -0.7913331025393081 0.3330355067019942
P 5.317364855787834 8.062785496074708 12.0101933748462 -1.6198230166345715 1.197574601111331 -0.7664376248492091
P 1.6581337152336855 8.957970713384961 3.7635243562893725 0.5941680566160993 0.7635739301481688 -0.030639579262727874
Ni 0.7294518145504536 3.4752471921828936 9.52816101580871 1.8132535352160128 -0.5343066043737765 1.1118982446884336
Ni 4.511521485033278 0.6224173439896027 10.846425626131902 1.418211247793919 -0.7564231780360005 0.3558188231450969
Ni 6.908306212235979 2.0944005152808973 4.715161011594523 1.3132822137889963 0.5486345909606745 0.31759937465258203
Ni 7.7785337363576925 2.615108750441794 0.3963084546039212 0.031012389221114333 -1.0014251409368302 -0.9837747748449186
Ni 9.071591448508197 0.7325194535157664 7.6195939590239545 1.2556355098098053 2.1764442253451484 0.44010112743394525
Ni 8.948737110800677 3.5351028818455728 3.548139650046144 -0.301665477031145 -0.1679359738547624 -0.3118663288235468
Ni 7.041333320565059 4.916023948295075 4.264425444557233 -1.318040297299272 -1.0464171322664884 0.18083494130461758
Ni 4.775650872149697 3.783340801875847 10.91836496791772 0.8356856605127543 -1.4580841727294567 -0.0067157214572787565
Ni 3.2129961411410215 7.679632832947369 13.07263884037883 -0.5747438864532166 0.5458511146782664 0.9933135675732894
Ni 8.755705533713904 0.9782132510213072 3.285338116352721 1.119956853326852 -0.8044303020428984 1.120095178676929
Ni 6.501553465162099 5.894274394090136 1.9772676636459952 -0.28461520641707755 -0.42125185593792613 1.398716886514733
Ni 0.6841718268523933 5.463047485886511 2.4516563171824233 -0.2866684894016805 0.09004903156929653 0.49576988175115905
Ni -0.1732625548368332 5.261870253347743 8.57153003225782 -0.671638994410069 1.5399853783806383 -1.2517256332324378
Ni 8.52552567634091 0.31741276025687054 1.0390462333643569 -0.005912765940009172 -0.6436995876873237 -0.8062776396642823
Ni 0.43388261504961845 7.860111173892364 2.337894241918924 -1.5151143261705713 -0.2812120942727996 0.10238955541252044
Ni 1.545777602418065 7.464182105980727 11.318854115091526 -0.4661592579735779 -0.764676162073412 0.7449141489551364
Ni 3.82250689863819 0.7644083927932545 3.284059546004947 -5.071279356543924 0.5198271798106789 -1.7753081663204908
Ni 1.282010864345741 4.287794920906502 0.5722081188998713 0.5286643184863347 2.341476138179239 -1.5155172180359449
Ni 6.752246240260099 5.403731120443257 9.898191362755846 -0.2503354592986011 -0.9716718209337977 -1.1771369020822695
Ni 8.661742236519347 6.2226670515590135 6.44478866119833 -2.531017091898286 1.801295591523188 -0.030446746525631434
Ni 5.581838294561472 0.19784737041849496 4.1702603657150625 2.758987553238126 -0.34261466574999705 3.260333643525482
Ni 3.365894557347861 4.288250556884981 5.215408401713668 1.2161636769674282 1.7316778312250498 0.7703076493275766
Ni 3.098566419688648 7.839933009131138 7.8018669478025515 0.3306947743839595 0.3895442404220001 0.17809980176164167
Ni 5.236549911115107 5.256309634671608 6.2988121923869995 1.5835028420472985 -0.8751330678750993 -1.0253070897607504
P 3.2175153061520607 2.2149859717894604 11.350442706570954 -0.5562825944242356 0.283176417088022 0.7559241269123949
P 8.738270483516992 6.061725265527999 4.145381711420749 0.8923394044510568 -0.023303193502314707 0.23079456105219606
P 1.8183223070961942 1.0102193538361186 8.550067717932757 -1.509573084637368 -0.8565203378699183 -0.28996592920602965
P 2.146789354112579 3.1018116636986335 6.600781682581453 -0.03182640048197744 -0.10375506830147936 -0.03814154406672786
P 5.892423954095904 2.706012777495134 6.522213302243434 -1.1480389562750486 0.4237800216764186 -0.6190576207689275
P 5.592736363271222 -0.03299455392730828 8.881896242627107 0.24113116709151372 -0.7233518494033284 -0.928298339044169
P 7.694706015010939 9.107958638545595 5.132783931297837 -0.9254343872328126 0.6837049244356677 -0.5818010504103142
P 4.432919629398879 5.310186264453425 9.629552109321823 -1.2986382386235762 1.344211556378001 -1.5421476761392794
Ni 0.45354098284764066 9.078202819542867 5.5179079174341075 -0.07944117414646319 0.12569352024578354 0.8027444297000432
Ni 5.043434645787389 3.3125758491723443 2.797325947059761 1.120003133183755 2.3484798231905812 0.07549633056610223
Ni 6.848385431719231 8.36344015101698 2.6173255589574977 2.263126140214425 -0.6883287963609241 -0.2799234573683631
Ni 4.535065776819187 2.3415039947116925 4.664941557942009 0.489045418543132 0.19825699343580697 2.450528707434231
Ni 6.128183027531908 1.9205056492902564 9.295355207408726 1.2593394410239538 -0.4064384450741774 -0.32346663206663645
Ni 3.4276471804719644 5.2132380866651555 7.640008310598515 -1.9307125833671461 0.30043983215416 0.269496091387452
Ni 4.938675565510904 3.4500570316583956 8.311410241752018 1.321369104562189 2.0938038275350976 -1.256210665586985
Ni 0.9367224808993756 6.639136933275973 0.13093211269741842 0.1256436408444546 0.16043735148487206 -0.21178999492523523
Ni 8.726330961142146 1.5208292079229637 10.048359682569185 1.2455349310406936 -0.4802381046641471 -0.5580039479907164
Ni 9.256607551851108 2.034582020391972 5.460625176245821 0.8789974359265119 1.2233483676413255 0.9050272843313705
Ni 2.0538768092765545 3.112737628488698 4.09712242234504 -1.4333689293709637 -0.8884634664354183 -1.812680436321362
Ni 7.191748985623859 9.193264852149047 10.58823810412259 -0.9159611576350547 -0.8546213210749928 -0.614932028636328
Ni 8.764167344742805 8.08558589238555 12.381326546835126 -0.3333432677504001 1.0158490296716443 0.32861783725027277
Ni 9.078221416929743 3.2435516477794497 11.887721213438995 2.2147683177363278 1.6080753891803403 0.904348770207107
Ni 6.777752556361502 1.5802850537677933 2.293757993513781 -1.3539082148404749 -0.3847848713601438 -0.27014118117061864
Ni 2.290686635071093 -0.029540089314960112 10.32550538076061 0.3568022701042887 0.9279340137262148 -0.10298425157372586
Ni 3.6944359939117533 0.509041164503795 13.39781229017935 0.994976042877377 1.9150522511220693 0.21842909750830766
Ni 2.1296518621056943 5.769095383023027 9.720776941298785 0.42477529571015227 -0.463778159335911 0.08296204281552809
Ni 7.014720459944492 6.83083879720106 11.70280832559325 -0.4763261712042506 -0.35284817055254714 0.5450818406124096
Ni 3.5289657441762596 4.21926355026584 12.944055577643939 -2.2067431334390064 -1.4395694017547207 -0.328570271841789
Ni 0.7409198931679746 7.873194435560126 8.5121783317795 0.3729737376578286 1.660157197477244 2.014901042390607
Ni 7.099589634956341 2.5700100872657816 11.277005345272217 -2.198156934431892 0.41863575847131773 0.7013660891608566
Ni 3.025404299715686 2.7712524106586196 9.000177482901645 -1.8934801813782487 0.3406721973116455 1.8151132141325708
Ni 3.6826266532450442 1.220723175893556 7.411966222846999 1.2682652827586736 -1.0686638594798306 -0.31080523454888404
P 8.546633710445972 7.5138092328612185 10.03597475277864 -0.9036561150154566 2.0091299442347847 -0.13491683861626444
P 3.1116403826629724 5.874802930030225 0.6427396384991234 -0.7686881114462826 0.37132000410448956 1.201248964639125
P 7.095488911150028 3.707072918294475 2.1681010296039402 0.8306691811347694 0.9041798487294105 0.29931317474888447
P 1.5340984434594933 4.789338548890953 11.880725806365321 -0.028387292893441433 0.057871932616119684 -0.22698881415286068
P 6.54260719669243 4.7317238443469165 12.200918875960262 0.8885274869041343 -1.7405023714952155 -0.6645730887022232
P 7.944626998553555 3.5178724029043043 9.24687832890656 -0.870315591881798 -0.5631330416871657 -0.3560643634969997
P 3.9828256722088358 8.678396196467435 5.766554979975669 -0.1660359286185721 1.6050389163468617 -0.5787872032846548
P 8.792230801539755 1.1902885522698263 12.563069510087736 -0.1321413327536563 -0.8083075256101175 -0.46356064400846614
