# total energy = -340864.0411811812 ev
CRYSTAL
PRIMVEC
9.34035118201781 0.00000000000000 0.00000000000000
0.00000000000000 9.34035118201781 0.00000000000000
0.00000000000000 0.00000000000000 13.67054809204975
PRIMCOORD
 96 1
Ni 6.663201148630945 4.843738071624487 11.53371894154378 -0.750090036729121 -0.134937921662187 -1.3498862381652752
Ni 1.5022834266595047 5.597224213137203 0.4327291366076934 -0.4447921051517114 1.0189695775784966 0.10405794425387886
Ni 1.8432996535918122 6.104330567358207 11.703397631812138 0.47110271802178216 0.6660327039668851 -0.1842941034978116
Ni 3.8276105911605365 0.5943022699948703 7.458596512510756 2.082214580035601 1.0393298864024036 2.584360283406117
Ni 4.38002698966663 2.0698311943146077 5.57536872506821 0.4612394520744573 0.2702543097097152 0.8327625733286883
Ni 2.4559706585054744 0.10746728025787601 11.944026564792093 -1.854067226798265 -0.5345511162844149 1.0991139484395716
Ni 2.0119396967926564 3.7687196760466444 12.609891804545585 0.45293453175318765 0.2139990867614121 -0.3560188549710449
Ni 8.345996205027337 4.281047286659189 4.350884159492664 1.4352766879166379 1.321949402545691 0.24211538538165397
Ni 0.17926282476452832 6.995652273396808 2.8651144739784984 1.1235972782929164 0.2899242773348168 2.6653104379979387
Ni 8.054885475232782 7.365007126253865 4.646386722480963 -0.635782389722776 -0.5573418889266852 0.5800976945659623
Ni 8.594795143312627 0.24839917124851213 1.936105384372404 0.9035614984191213 -0.9835240922866934 1.1863887596978406
Ni 8.42951762658934 4.4751397872248795 1.7070547508968383 -0.06382172244165138 2.0148876726541687 1.1143323080512229
Ni 4.576435897361304 6.399373585061239 11.986186108574739 0.23345153905906893 0.2913946912327562 0.4732431614035527
Ni 3.3863630541430303 1.1418766303732808 3.649476080836255 -0.9471638084901043 -0.4327994515662094 -1.4546211538815208
Ni 5.305730528938258 4.583936199476524 0.856966959824421 2.4124810086328905 0.2507126401323618 0.308757607991236
Ni 9.117948221112641 7.938607441568572 9.25913043351883 -0.2801646268448917 -0.14160556349034967 2.292597667310981
Ni 0.5813303900725589 0.4979434695696592 8.357489507334657 -1.3026555873130856 3.876896522897013 1.3194508044935533
Ni 4.836032281780084 3.1143626831625935 3.423474138033675 0.08006955175908147 0.13947231919743078 -0.6459909548246616
Ni 2.8618929868059713 9.082781798368185 5.73606666753609 0.22948458399152089 -1.4739334810568874 -2.8510564434509287
Ni 8.929385208532269 4.924102454438115 12.642646548577527 0.6590274762936457 -2.3456438964036828 -0.6350660803820417
Ni 5.720460808539692 6.71504943884462 4.666974724874943 -0.45199350799615706 0.37624135266550685 -1.1076569529135762
Ni 8.562393464560827 8.247016502019898 6.963941780643173 -0.9365328111388193 0.13452860203891026 -0.5608378178950857
Ni 8.171182189599644 5.981775817602555 8.169997833051438 0.30283121520447204 -0.7748410184215558 2.427310360336239
Ni 5.556313474326918 4.219690518795088 5.751049525099007 2.3570302838637534 -2.287870951259273 -2.0333469078006208
P 8.75761614763703 9.082735096611552 11.933431804282389 -0.7403962064801248 0.09576382256588668 0.4863943540735301
P 7.544874271749222 3.305242102871951 0.3324361802037398 -1.3211564743307507 -0.8568085585342986 -2.318908280181051
P 2.1159818702190867 8.05071967854114 3.5207679076266736 1.3068675685119042 -0.6790931366952692 -1.110709623696971
P 8.90448383189569 7.056149728938866 1.0372525530592065 -1.6007883686006237 -0.25415688992722035 -0.20321150922760486
P 3.5182021131172707 4.1935375350807504 4.750679217322945 -1.2783396362755404 0.4098857801928296 0.6537700845494482
P 4.28367192538195 2.013807767057966 10.963164514796661 0.4010267871403029 -0.7529727575935549 -0.7262605384096912
P 0.8858379857747842 4.025588677878071 2.767165011722376 0.3421392687754753 -1.6668600634187165 0.629650051572793
P 1.9166681132618555 8.089108522493259 10.300935473814596 -1.0514582942348216 -1.434711045221155 -0.9606466734678876
Ni 7.997404953169199 2.8990582447343103 11.600677118098414 1.2252900647487286 0.24312325782087804 0.5487099242833001
Ni 6.4613468161128935 7.930658802589679 8.87569873717753 1.056614127404148 -2.221296862883465 -1.0288881222437893
Ni 2.954026212291052 8.962001715364579 1.3488924410343845 -0.46451478039161936 0.7383812329326251 1.3019639605626996
Ni 1.2957308974241977 4.963602800198091 5.064254426092984 -0.18299106841567195 -0.5176294008284118 -0.4031476901380477
Ni 6.000437839553001 2.0088387001522423 12.599379239127556 -0.2797529932287698 0.893281456649352 0.4072740536015954
Ni 0.9135554783363187 0.27309692822617326 4.258553852594594 0.1728400960245991 0.4142458569337382 -0.5382694456762666
Ni 1.6836917301237413 8.199520815524394 7.717858512352043 1.721596792839964 -1.0914597743284233 0.5650197171869172
Ni 9.099286199162197 1.7612446671880786 5.9771738265039644 -0.5269524780015505 -0.2098066459466193 0.8026865798789143
Ni 3.5028932772930568 6.64508086705744 9.68803096011777 -0.08734757347773345 -0.3226523636954572 -0.5575480914002204
Ni 3.685618570294337 4.1427260238643235 10.612774311273029 0.16765520938954998 1.21150869469392 0.7239884545460628
Ni 7.071561308627673 6.076477639702437 13.423972541254155 -1.167816396012292 -0.11516742390347909 3.3358407727248616
Ni 4.469442172915684 8.236116312021814 3.264649870041901 -2.1881766832907283 -1.8604371348803508 -1.2825395332895007
Ni 8.163382996241976 1.2344395120193825 13.682031503844584 0.4625833676968614 0.22585315788652072 -1.2719995529901256
Ni 1.774573348531064 2.5094068084446612 4.979524363069327 0.9392257845899501 0.45877710657689375 0.035878459064164016
Ni 8.045657208122153 3.7891750454517865 6.981932231333239 -0.4306821481128906 0.9215607632100193 -1.7475464228261903
Ni 6.184685609820509 2.825988676306717 9.970669057224013 -0.8941684872399956 0.46109367052521233 -0.3547155627785891
Ni 0.47107221283831013 1.1263249454145767 10.768003478039214 0.28593161123565597 0.24659887507430434 0.048585879328503424
Ni 3.8332988651184046 2.638948140992571 8.846212182074746 0.1382281623776845 0.12472344302303036 -1.2464116772186922
Ni 3.558645834361228 1.842085407919361 13.041607513034348 -0.21942539998330596 1.117324300800011 1.3456171784762763
Ni 4.462539653285364 5.510041373855194 6.836914870672371 -4.061400685523102 3.2529576627763848 2.060641738960832
Ni 6.602124591306641 6.334233974909886 6.635520083439585 0.5947157015894532 0.9208012593361754 0.7762350705556051
Ni 2.864330818502201 0.5621088810776536 9.684134165544334 -0.4049952848697477 0.5799603976571495 -0.3147230815460515
Ni 1.6423046333958022 1.5526746220662369 1.8771574931154202 -0.45900182099319015 0.6459950685897197 -0.6236038453787132
Ni 4.417827391485174 7.022244253623493 1.0168382811999008 1.6579398781109513 -1.2626106555760577 0.7184315292835756
P 2.8700097521087424 4.6875020149853 8.324297634860633 0.2231211036673383 0.6475143334477236 0.642078764254449
P 9.053948133823127 5.999924120230041 6.313988763409592 0.21045250706073432 -0.5495429617075568 -1.2178726892387348
P 5.60010104134578 6.007928801316893 9.881003552559408 0.7177067353024091 0.09964130324342195 0.3130120123922157
P 5.759335350760789 2.4693273609024393 7.522505998392402 -0.3562268572167929 0.3637637890237864 -0.03327316023083302
P 8.136893759879884 0.16790215544604667 4.724254429385005 -0.669519376963905 0.6475084199104526 -0.23813274658482214
P 4.293647420598703 1.864352805481854 1.6157079829934538 -0.681304285413975 0.36300402803962645 1.0601743339515806
P 8.911937432254275 4.426056241003864 10.250109018036046 -0.030387354042605733 0.692980950420955 -0.010650280624994561
P 2.964039068913112 7.616794976963649 13.389071384487373 -1.7583476272067524 -0.7818868695247437 -2.417756912319849
Ni 6.514063758999936 9.104974473120064 2.916638654001141 1.9134597098239692 0.6355677026088086 1.9215476290384264
Ni 7.260703422990292 7.445474252932086 11.692133168112319 -2.45554030171621 1.457839403708502 -3.2233622085074556
Ni 6.009255131205263 4.5194317332153755 8.202383633205981 0.5282341729274516 0.16247237963702985 1.1763180057254
Ni 2.099729658910891 5.6906090457000404 2.741136254680682 1.3070765991989166 0.5842104311827551 0.0669299290533299
Ni 8.71003639797959 2.640610723528697 8.750271829388964 -1.2782540185402695 -0.9401457253010582 1.4875086486381606
Ni 2.1822143014756463 6.254196504392687 6.82435116410303 0.5770108281105224 -2.193373139890003 1.5601664813142033
Ni 7.1439116700031216 6.823135984395446 2.4293926888057786 -0.9829913597116748 -0.8717975757439631 -0.3612780464874552
Ni 1.0220679439076354 7.582768077081032 5.458964596661092 -0.7347451788419346 -0.3835162890603653 -0.9140559701925419
Ni 4.472038790584465 5.481543961957892 3.027411484593483 0.43160028905178566 0.30015778213736694 -0.7544048620543911
Ni 5.230195107760456 0.10003236060194293 1.1001224578382085 1.036193654766267 0.37089911451698704 -1.1498847512345358
Ni 1.3953457443218438 3.264462128980238 7.493934797719621 0.010762637833142755 0.0037934056041612086 -0.859405115616881
Ni 6.894832521178037 2.5685499130443703 4.656748908242637 0.29142965823574973 -1.3308083955982177 0.7623523990362419
Ni 3.2606512656390056 6.576690814644447 4.747740742795614 -0.02438279971973865 -0.03884474078133955 0.4307047738207098
Ni 6.716945530163909 2.2380135603004505 2.3261397750664417 0.6971114276495608 -0.5281652673627291 -1.8455959561024602
Ni 6.622906873008213 0.7509446319167621 6.4604277255423606 -0.11250916034502559 -0.5910058568380337 0.13256505055463622
Ni 1.3436655804320479 3.250106008991332 9.82163254338733 1.0764918401646815 0.5965818082639145 0.9955470848894983
Ni 0.9353988239485864 8.58520260250026 13.729742018420598 0.8797065461783945 2.789952377050757 1.3622797267336215
Ni 5.195962720148653 0.054851213165159604 9.72209708947596 -1.5638776116172035 1.6956677316790283 -0.1359218828420111
Ni 1.073990956931922 6.0021658045484125 9.142671197038885 0.6750325934726504 -1.1224562227099377 0.6828667448050885
Ni 9.109710031242626 7.105709633077536 12.74991861549268 1.31970405815494 -1.2866419854936486 -2.7122312709191934
Ni 3.331834083098636 3.7497774435564026 1.514150343019885 -2.153108635943002 -0.03303404763683344 -0.33379809589963155
Ni 9.115071392904065 2.163767107605712 3.510925045398756 -0.4937484804457561 0.5353417305065102 -0.9110673198778633
Ni 7.172792036304811 0.9303045963350866 10.69747728727784 1.053161135858541 -1.9761316349318934 0.5211361284300896
Ni 4.717391139230258 9.304353612536582 11.99932331271553 1.453248184793394 -0.7797469403636055 0.37766471537559476
P 5.931179134466639 8.030955495134164 13.355346177952601 0.23832763620444758 -1.2667545025411022 -0.6383414086992039
P 7.805077779004226 0.35555821991261205 8.685555337152703 -0.661961619221305 0.5573388036028917 -0.6370221756671481
P 1.1979560997378818 1.85618933842245 13.121115385631333 -0.1366289362113647 -0.9611030442790158 0.24325078453767784
P 5.075042531875148 8.224328788647709 7.028493882696087 0.7378662409694196 -1.144090770260578 -0.23028445418499696
P 4.280197314688473 4.209929851658844 12.79859959257152 -1.0535704554818177 -0.11384279155478459 -0.5401941735028052
P 6.446719825935516 4.8180054037198445 3.707561857665799 -0.40130678027456695 0.18132653622905545 -0.6712016497623344
P 1.8240772105617742 1.1867756992000025 6.8841733122441795 0.4111211952618274 1.2565649636026102 -1.2903685424156164
P 5.065786243710539 0.17951781635574313 4.697665251263718 1.1090636034531156 0.9970447524809475 1.587318616248963
