# total energy = -381167.73131218465 ev
CRYSTAL
PRIMVEC
9.21220864548846 0.00000000000000 0.00000000000000

0.00000000000000 9.21220864548846 0.00000000000000

0.00000000000000 0.00000000000000 13.48299853698954

PRIMCOORD
 96 1
Ni 7.2278434528149145 2.281338929669923 7.467679614137401 0.9560318004036955 0.6920916058374662 0.6949285610656291
Ni 2.377394626861721 8.425375274120228 10.154841197656092 -0.26602870166414183 -0.10884482411956094 -0.3378231578986246
Ni 6.244329657515147 9.187215698217711 3.4132614026104173 2.9639448415122436 0.035072418223100886 1.6389828773924742
Ni 6.246218160241177 4.159321313685022 13.170448411623454 -0.1630868732925772 -3.0077345850036847 1.3132822137889963
Ni 6.492801343010223 8.929762109513467 0.6410508685197398 -0.1762540068021545 0.7250420926215578 0.06399038680903173
Ni 8.881987596649108 8.003566675000826 1.0548761678226657 0.1962610460517007 -0.4033050416515183 1.0341457710983029
Ni 5.3334541256044 6.30606066613529 9.625943439320665 -0.5623737949236379 0.37085746264577424 1.771757472854755
Ni 8.705325075785284 1.0220116142855278 6.264187493984567 1.8787413325061773 -0.3605015733327469 -0.12533587979604865
Ni 7.8272450058485274 9.077350900604843 12.10353925716303 0.8612208286693812 -1.1051241591893934 0.4998803043751069
Ni 5.115428788936301 4.898048306857579 4.215864006523213 0.3059378791542537 0.09826653438308239 0.7218366983103827
Ni 5.085811538867094 5.4843593117268545 12.098037726294807 -0.822108693159268 2.494068282588079 -1.3214860897560272
Ni 8.212352166624006 0.6727749506545239 1.9444374131128443 -0.17126323845578248 1.9536283116230548 0.7698996152558806
Ni 8.42937337257436 4.235386518606157 6.816235532078601 1.1696691329503146 -1.0434012282582998 1.0707706214101882
Ni 3.665279788347063 8.934128696304386 11.95762616678319 2.016734753165236 -2.181129803746276 -2.6236089444940944
Ni 5.186114064140354 3.5427389919487426 6.4566977769927325 -0.05847125676301542 0.9918228419603757 -1.7402509176060417
Ni 8.921213180100022 3.253715164990322 9.514425971517309 -0.9383513524047967 0.44978570171156085 -0.7209666370006035
Ni 2.046234158591774 6.801299778567805 7.328359701323511 1.6609457548168105 1.1126250955521289 -1.0824357164529421
Ni 3.2897348999111933 6.524371581264399 4.750505576808299 0.30173772502997714 1.3200051343351267 -0.8088184038082651
Ni 2.1869967032441826 4.07804199879836 1.7244213182052568 -0.05191365815015576 -0.5157710074634343 -2.3350735770870044
Ni 4.588978714377976 4.150238076183237 1.873894005918454 -0.49196953416846245 0.1642677809745558 -0.07181193973597955
Ni 3.260062376591468 5.555422287476113 0.3126927540510538 -0.3177477273049883 0.5372091227325523 -0.08792555746839051
Ni 3.333713982906651 1.991412306286376 2.0828803236851825 -0.8242478509894579 1.0962052594332088 1.5074568096253136
Ni 3.1285396769839786 3.029333404512657 4.380491698307594 1.2603694249503647 -0.7494793997283157 -0.21959483568163474
Ni 2.903651245043232 5.4040564909326765 11.370549627394238 0.04702136305486095 0.334110742044044 1.6006960659971337
P 3.5418914687741334 3.774951129583118 8.005112483573644 -0.4545183313005398 -0.18382204895739954 -0.08239125791372261
Ni 2.6920099688099572 8.744716478987751 3.814353587435689 0.5065181214065986 -0.3950356025538745 -0.30663104856653645
P 7.464661694659121 2.2401511458256222 0.6530460851029793 -1.6513403705165628 0.5409562484798103 -0.9106888534925219
Ni 1.9735590463690744 3.713837338927092 10.097983447289948 0.7608475323559413 -1.9471774137913884 -0.6283243907828341
P 1.351154608911569 1.6163648771051677 9.338297758741822 0.18421259952759889 -0.16951900207116613 -0.0002992764079736782
P 7.232477193650004 0.01571326390141449 7.481149705288628 0.8735518394309085 0.9497117717229384 0.8216142700213527
P 7.7547541377942215 7.087117756996184 2.7318573763291982 0.46326368159333764 -0.03908642447850043 0.38231249856025123
Ni 4.46279909565389 3.6148337350410036 10.518369681429355 1.1666043779820618 1.6366267184554715 0.5412840641328742
Ni 0.5164216644726822 5.14989166063425 10.93473847147695 -0.41836527841875043 0.6167528838951507 0.9223364650337792
Ni 8.172573850667913 3.32370031235448 2.60089754265615 -1.2994260246321945 -0.2469513733177166 -0.8152559319034928
Ni 1.5063066231154867 2.503076786331145 7.241057444572075 -0.8857023587505134 0.5549695320397668 0.7869658267095478
Ni 4.993477573876839 1.5051366726461899 12.021778143776018 2.2698120368750327 0.9303747619572236 0.00781949604441879
Ni 5.8762835067328805 7.455025724652155 5.236486419779056 -1.3753159910922896 0.4241734004600953 -0.8582969701543669
Ni 6.1195226578455895 4.685623992908632 8.217078029543291 1.877399216655986 1.1289217758296235 1.012072336238031
Ni 7.848221204420095 1.801530266340339 4.3505188569933875 -0.21887621234805532 0.42239985349944026 -0.8889213799084433
Ni 5.622385830478624 2.660872704351506 3.5119296821100305 -0.26680697459106306 -0.9512248659333552 0.01880710540417406
Ni 3.2437659798970886 1.7884212937591624 10.562176496127366 -0.937232151198689 -2.0829972238378964 -0.40850329802300617
Ni 2.054644904878924 7.437421194362185 12.281447268605191 1.455877909106757 -1.548720701371107 0.4486397610325757
Ni 7.647348999829402 2.078670344437398 11.644685604325645 -1.2475162231367805 1.4824975685768147 0.04186475855458597
Ni 8.446019833188688 4.251922432719447 13.062612142304596 1.2726613549438404 0.2538766396826402 -0.6136616465643366
Ni 5.426838282354495 2.6378606077191944 8.639420015530193 -1.6614826011568868 -1.5802069449048461 1.5595026224779593
Ni 4.485737494618844 9.178206158383285 2.3256551794935407 -2.3910585770930566 -0.788669439664216 -1.5870530212924023
Ni 1.7955423308675598 1.2483924239902588 5.046294849630119 0.26115363296002764 0.469782713658778 1.6384676283189523
Ni 5.276651648488775 1.8344915480658832 1.0235703199501345 2.2700485783658713 0.991807415341408 -0.5380694138503185
Ni 1.1633729524852143 4.9365553380517575 8.197865047663248 -1.546669218158717 -1.4082055427314588 -0.6963580944233039
Ni 1.064654927060135 2.580956796310953 2.9876168399050673 0.011878239494824704 -1.3199601400298042 0.6792170638676431
Ni 8.123380657706926 7.789124887407974 5.381523429138188 0.1263064712394341 -0.2945831162630668 -0.6908330508400168
Ni 0.8212038951537737 5.9425192852702375 5.132263178602388 -0.4933355612780535 1.1377023502357309 3.3040989615368903
Ni 0.929705285920532 0.3523328868808518 12.989614602787208 0.2680421325497448 -1.364024220228554 0.20289757753161183
Ni 2.6941472011633185 4.709170397629284 5.977161795032369 0.11126963151096966 -1.5344220253602479 1.8324835870902183
Ni 6.091314875664589 1.0697216416909483 5.866681621897068 -0.514112645924405 -0.6056130652282473 -0.3731699128290348
Ni 6.620399641830938 5.171512713795193 1.7556617593980084 1.9641263829409012 -1.166038992396895 0.5331408662004496
P 3.5973581756689077 6.687114455206117 2.4704084528333463 -5.100559593565281 -0.3338055520987993 -0.6184287289356768
Ni 0.17812910444423455 9.36107770772196 3.9114585551664858 -0.09429289444731502 -0.7886470710667127 -0.8642205347276537
P 3.812923852688958 7.518682084832008 8.63394612128723 0.3354376883855836 1.0599516764178134 -0.8957306895207928
Ni 8.417848899841367 0.9247306933739156 9.401708152956871 0.6401206120868137 -0.8247042218005862 -0.6938240151475406
P 8.28487988351199 5.9078076839449585 8.263729574201292 -1.439455758994992 -0.6783320901595286 -1.4236388465673935
P 6.128218982593749 7.624742240367556 12.008524539522652 -2.02766271293165 1.425723497010564 -2.093122742307673
P 6.8311289094306655 3.716849731080321 10.298327792338192 -0.5304322090200349 -0.05656015578323163 0.10011078668067275
Ni 2.375432426468333 0.12034092102770579 8.025794812696622 -1.4629278739750031 0.539622103049419 -0.8888522172334047
Ni 4.51810919500553 6.178176788853566 6.786721458743693 -0.6618392347108278 -0.7299395299231751 0.5297904616709779
Ni 8.289016165092418 5.214036267860345 4.0678477689611645 -1.8515948539983722 0.05648842200503175 -0.6597887799397024
Ni 3.1016953016490882 5.556205325191785 9.172645669381177 0.5528314026508414 0.2840539345969688 -0.7601926723807617
Ni 1.0650510520221805 7.035833392723935 3.00003489685477 -0.4874585336719863 0.46047069222923276 0.07686261478600956
Ni 4.0837719924353895 8.685601737558791 6.3729145838576065 -0.15737388206819994 -0.5293603161120948 -0.33532301718459023
Ni 3.4277429942461235 0.8068733837361501 0.13551250707404425 -1.4343906857672586 0.9017167319008985 2.3981476227293537
Ni 2.2759129389107433 7.714782365461316 1.0156321599549132 0.14740957176663647 -0.02272495240134151 0.7937550817172394
Ni 9.188772561440635 6.5241689126791655 12.95263127086564 1.8618278445802905 -0.8494009532163178 -1.5853041569220956
Ni 0.2517134616379547 8.195853101344394 7.320579991313108 -1.1687540773352127 0.6432375604492405 0.5713047788646806
Ni 0.4404329208814306 6.929091533765333 9.369281179319668 2.4613877616359225 1.0679956297682123 1.0182784650487429
Ni 1.5080200938815438 0.5458353247358154 1.6837162540821458 -0.30889387645878413 0.277679912749825 1.5147006356719204
Ni 7.0710424533038765 6.633702070788927 -0.037128884814598674 -0.3860308279521029 -0.9827458193597721 2.1752944280114215
Ni 4.559573345102421 0.4501794373894312 8.703033078330472 0.5351206156346396 -0.786128161299601 0.13898200982457354
Ni 0.3013055432235117 2.505342989602382 0.659781130678593 2.0400927111648866 -0.43358672335419524 -0.30577692809635726
Ni 7.461511119379597 7.3040929019044425 9.822647119601458 -0.21723533431052264 2.216083179893009 -0.6332156574368644
Ni 6.41722438513533 0.23424250837006905 10.252498897892067 -1.6688470119417582 -0.15296109771248495 0.27858751216575894
Ni 6.8620266564702055 5.618719371527599 6.210026157022858 -0.5143252761558432 0.9847435665160913 -1.2614983963484854
Ni 7.459954256156674 5.714922464054111 11.236177591722548 -0.7862639155465169 -2.4403021446102167 1.0416346232761804
Ni 9.184617855443367 5.258475961276785 1.6760314298184653 0.10167658850589585 0.593381813269378 -0.09654440948565308
Ni 1.9213903100885383 4.863272220073361 3.6921167939152175 0.36616828470022095 -0.42473775760399757 -1.0033190155254335
Ni 0.5333960797067482 3.392828724335611 5.155574672008338 0.29890976866287877 -0.29038887567606114 -0.3837150353347327
Ni 6.2387839080465115 7.436407851436022 7.74731712193703 -0.09403244169707678 0.29045418169635784 -0.17320622111476622
Ni 3.744431083088784 3.32208817588104 13.013075333969555 -0.39753548615759277 -0.2053277842396593 0.059626967634013435
Ni 3.6588680912869793 1.8986177308751382 6.7186045472470415 0.27136554049602296 -1.1310318801940906 -0.022255211853774572
P 1.187564211795242 8.022783341764237 5.319109795874147 0.5521893981914683 0.5464555810314847 0.30985598326173736
Ni 0.7262508993098096 1.9735590463690744 11.53754946284668 0.7484998094238657 1.4344824741501165 -0.830418241466228
P 1.6563919226885915 4.046978432007266 12.62370015703325 -0.746106883711657 -0.2107327573053145 0.260920433903299
Ni 5.461586732513454 6.801097109982573 2.702087203600224 3.769741684885366 1.5286303583791352 1.3185084951849422
P 0.4203217486804704 8.11410396382833 11.322927115968804 -1.687979619006151 -0.003323407946278147 -1.1552542430765653
P 4.363371730180497 0.957203728053218 4.607194014086171 -1.2177464480735156 0.03938133001109992 -0.9648182883470738
P 6.894582601025285 3.552255203246251 5.147040482128365 0.798385124290083 0.8238305609463811 -0.3855847415536198
Ni 4.6828050571322155 7.488484465632362 0.45239128863099165 -0.29604041753488375 -0.11370446620470741 -1.0998914500355443
