# total energy = -340894.41589508794 ev
CRYSTAL
PRIMVEC
9.03346982102854 0.00000000000000 0.00000000000000
0.00000000000000 9.03346982102854 0.00000000000000
0.00000000000000 0.00000000000000 13.22139620020428
PRIMCOORD
 96 1
Ni 6.373022624388589 2.005032827706691 11.428641047232052 0.9286125278504782 0.9040618350943075 -0.332137420367757
Ni 4.724784754222722 0.4448342510744374 6.136632076057943 -0.8753575251810795 -0.5998072571797476 0.04756617981473744
Ni 2.787385515069798 1.6718152264000508 4.792029000227181 -0.4580533410369917 -1.123670297622697 0.2920148413152584
Ni 3.3754644004511603 4.10871114586445 4.705904802295732 -0.3269697601238885 0.6501039485517707 0.6600170939004246
Ni 5.2180935077064525 4.588370326447853 2.688557548528336 -1.1019154224441088 -0.4820358199945182 -0.022715696429960876
Ni 7.236920443830614 6.016607072580269 2.5460572721347052 0.36818402957866914 0.07829883301190387 -0.5068906742546689
Ni 5.161580120502983 4.784450822393903 11.30853745256693 -1.263432894367037 -0.28037237198032355 -0.1542520486097666
Ni 5.492729057220494 7.768883414680654 12.521032355686744 -0.7647977752529409 0.9301857858748689 0.09585278273526718
Ni 1.846621900916406 6.239526007366074 0.465510960148929 0.9176439446541164 1.5517106372373664 0.13797310894408496
Ni 2.897629980771705 1.6575694444915037 0.3255111482018965 -0.10014729634556299 -0.34212435637713984 1.2513949893658964
Ni 0.47885520176928764 0.07562459595788956 4.81150425781541 0.3025774473224531 -0.44395109730765475 -0.43523865713532134
Ni 8.401696042618214 2.4109156602576896 1.5895157995910354 1.2445530267433986 -0.4956454403581528 -0.5731819412827355
Ni 6.601479076174989 0.6795030200571012 4.691374466087807 0.5211600396894897 -0.20125927059724047 -0.33487255991073295
Ni 0.4908805567957034 7.507563199683542 2.557626436935134 2.186802685761337 -1.1200018476321743 0.108527035768826
Ni 7.438935929449407 3.8270746572387244 3.723078642612367 1.1794485809345814 -0.6540251379830477 0.2579461817663235
Ni 7.633417501237045 4.166552453131683 12.69140359652073 0.7059583365172294 -1.6624637341232336 -1.455847570089454
Ni 7.975135597645743 9.074662443912459 6.784731141627489 -0.5763600819004009 -1.5550587277739927 0.19121139944293522
Ni 6.7854998899093015 0.7253162622569719 0.3956117773639228 0.46598468006892657 -0.11602591524903244 -0.2390251764921045
Ni 1.865158580990178 6.529319719240637 9.21601366294479 0.3557509460216389 -0.119550126352207 -0.4257469155948023
Ni 0.07150985045418434 4.861045613010625 1.2650471138065429 -0.2336482284509073 -0.566802777229269 1.7092125602429982
Ni 6.488976243017701 2.0022505190016613 7.154494548444098 0.07738891960312477 -0.3661813973263435 -0.16516638152942523
Ni 3.336376576533416 4.210635785860731 0.4103137494984568 -0.6337679303959084 -0.13510324359545764 0.6541925167988476
Ni 6.089570408328737 5.631139881825921 4.786568267720068 -0.5501284018973817 0.30174158168471904 0.4473737498359585
Ni 5.490055150153323 2.9582626302137895 9.11118114901296 0.09607878270314421 0.01886444100467074 0.6106562840791097
P 0.2894648935730601 5.593768417174266 12.475140522299426 -0.877837868400772 0.642896375059738 -1.5959814341302836
P 3.930715656501096 6.021304476887463 12.70369905229481 -0.3921078873841183 1.347520823256892 -0.6628144541399037
P 2.3451971673060856 8.425544402947043 1.5652148624241473 0.4183328825189182 -0.43212530831732027 0.23940055755365222
P 6.2347473018304855 7.718639255533326 5.821644920198125 0.9189737192091335 -0.16286755819291948 -0.6315909773492479
P 4.844713099573305 1.0990661393058188 12.685136175158554 -0.8569759373500984 -1.7576940527831535 -0.9559883487602697
P 3.9680780876829282 6.22376260252751 8.070816303301385 0.5854579304366111 -1.3551785969124661 0.8190984455780345
P 4.5074033364375135 0.9434826885696712 3.6910829958515032 1.4750393125265564 0.7555361474453569 0.011598503470876799
P 0.20507963858225434 5.5135692720987555 3.539235788233539 -0.38730378112725555 -0.19564989483026304 0.5861693546813389
Ni 1.4095103631923915 1.1176118528494123 2.6894699289803103 9.847325107724975e-05 -0.04580086038419854 -0.8131483986421866
Ni 1.6906409775081117 6.605851275568608 4.840842257754781 0.5294513331640043 -0.37808020564645856 -1.3212354071978019
Ni 5.977166943339484 5.4553846929783045 8.949681678890697 -0.4690754031791083 0.6150361583143601 1.3155136742226763
Ni 8.769168561488083 2.6314949263597187 10.240394687154161 -0.4978187938603878 -1.2390866043121886 0.5840206837694522
Ni 2.349090592799164 5.399846920515561 6.856113620157191 -0.4049289504081865 -1.4618788638851983 0.6533844190752552
Ni 0.5976281663296975 -0.08010881037729521 9.240222458719499 -0.09627701475687934 -0.21889703828366172 0.3518246143840392
Ni 1.9093141814777985 1.1350735500144227 11.475114636075876 -1.1337888741139377 0.6226707920414825 -1.1976599617362857
Ni 3.928439222106071 6.662852470142439 1.6802407437025884 0.7349801776708762 0.7781577414996147 -0.11934006722392995
Ni 5.784573366744544 7.814258533594181 7.94522577906667 -1.1905837716157948 0.6507441532389309 0.4161726416428058
Ni 5.2826466830510785 2.786780272591756 5.038026643713022 -0.19081724932831007 -0.5059897597069544 -0.6954031867092023
Ni 0.7500896498955255 7.244860863803735 6.8422183368777185 -1.2701357603085095 0.7815600823129444 1.197564830919318
Ni 5.000684989511778 4.487132230158008 6.86005401969334 -0.31420294737652343 0.11533968781528524 0.30355446652374174
Ni 7.946391096673646 7.319206320434897 9.00263407229052 0.6386080320970292 -0.48256469591479473 0.4094420077871916
Ni 4.676256954341483 0.4563103711357044 10.349933638863007 -0.48637609924108494 -0.5049705744138208 0.4507514080589398
Ni 8.123356770477347 7.149684225764134 4.654050878826207 -0.3367204117527491 0.15332208059632949 0.5192378829661123
Ni 7.2212744740997294 5.987880638547815 7.082159942195208 0.07408839447498207 0.6091478178543832 -1.6625696635734788
Ni 2.2907072773426393 5.176449211829216 2.74328140536016 -0.9287655084885746 -0.3978890128422696 -0.470668458697841
Ni 2.442370202176244 5.169737343751821 11.280561699876644 1.318510294957155 0.6621043154467564 1.8059168923452835
Ni 1.0389664645832044 3.20039575530998 3.954506202623067 -0.8445243418503068 0.7687637018792244 -0.5994586155910773
Ni 3.5828457671439393 2.6814229140632944 2.552667965350098 0.14038994591569373 -0.007404005773554991 0.2593664591526178
Ni 1.3643068802054739 3.3729169619614896 8.243077346022034 -0.7200520956061341 0.2152103334606939 0.31281789410353866
Ni 3.4737124182300803 2.5527682368651172 6.960840442492109 0.7324121598333838 0.06313060991189773 0.9245008196749498
Ni 4.037951976752434 6.840269817437216 5.9507124269671445 0.7369766392756146 0.8963845210547079 -0.9149591987331016
Ni 0.7515097113514694 7.505566802852984 11.365931603077996 -0.3376043570195992 -0.8783114656030808 0.023319391452230807
P 0.12165102804554821 5.595936449931433 8.21317114083089 0.5988500354728009 0.450763749354114 -0.43528827942633425
P 8.64728898665605 1.5578941384807825 8.204273173056686 -0.720315890790482 1.3750843346974575 0.0730902922277709
P 2.0529011842909592 3.1518047211399907 10.508761911959045 -1.0142073803031628 -0.03313869153549776 -1.3399877481046407
P 3.9872651775838506 6.04656205850845 3.8484442334485274 -0.04605822781064326 0.3492236864260824 0.19274429114769387
P 6.883088464391251 4.03840365024351 10.436956667041699 1.936483167302336 -0.4797881616109221 -0.43064383867578737
P 6.248956949859747 7.740482185561776 10.287700258568547 0.13738561187173112 0.1526016574905372 0.08992587572787093
P 2.3484582499116566 8.491886205316334 5.914552350618558 0.6787936031769793 -0.22219602074990766 -1.33590740738768
P 6.862347617681026 3.8848707971568497 1.4843797610732015 0.0012187028984495141 0.9438745962158712 0.4069166702621766
Ni 5.255681775633823 2.927259761786311 0.3720353244767213 0.463872261711614 0.8005854743755115 -0.005727389402080459
Ni 1.273511475029313 0.9320372823057975 6.957323712690589 0.6711420001689926 1.4090604345325861 0.46018864221243966
Ni 7.037362062003276 0.5866506938025787 9.375120166911335 -0.7214746869852736 1.0913471600099593 -1.2364306547465802
Ni 2.601305070216178 1.3880016715473376 9.06095325011131 0.935582274300092 0.23757893096388114 0.5576897591844073
Ni 6.05662534388963 2.015800723733951 2.4412247582028743 0.3835263163626943 -0.5150858084709516 1.2706558944780375
Ni 4.199362015523466 6.9475422715678405 10.253060515190922 -0.1669306725186996 -0.061693363244738925 0.1750083073205115
Ni 8.357666910708096 7.47079697750993 0.3583947850462165 -1.1769366131460053 -1.1804993907965993 -0.042490307953726825
Ni 7.866562323860819 3.9081681158265664 8.066506434849535 -0.16201318061242423 -1.580830180311142 0.843928617247837
Ni 2.988145348383399 8.25381814163983 12.470235348186336 1.7989970252969987 -0.8342142181735503 0.17938689600418137
Ni 9.501764897074224 4.878922849787425 10.345332892682903 -2.2484988772195535 -0.05731503167138517 -0.6706591469953029
Ni 8.438272561925576 2.181673296596817 5.749138678022625 0.7916015257093464 1.2628744507604057 -0.19725246343069253
Ni 3.8407061631994077 2.7469607376184677 11.509040735337598 0.8102710770943916 0.03026754063528981 -0.23335075181514647
Ni 1.0925710745041413 3.2566291049489817 12.68789951357696 -0.34562234222806926 0.37096776297139333 -0.3968747126451423
Ni 3.1138009136008296 8.229030300449562 7.909898588635627 0.4253234549041385 0.6130160425605378 0.6036325444631088
Ni 5.59846582148146 7.7614217686080735 3.449237135095637 -0.33194510185129283 0.04288008719297777 0.4909452066690061
Ni 3.0734845377873574 8.348949612330323 3.745000163828265 -0.06352527424715511 -0.48009078045300546 -0.13394316184908545
Ni 3.6456645162828334 4.3259660950721575 9.350251024492673 -0.7850354424560544 0.4088833070702442 -0.9369796688682509
Ni 7.125384191944229 6.287340163131412 11.615776601360825 1.8954092800801614 -0.3906529001051466 -1.2849062337494646
Ni 0.9683879648676194 8.987914033216342 13.299798755530704 -1.2583107426491233 0.8617383917357481 0.842201350144085
Ni 4.553474032527298 0.12898620554062756 1.5189138128539146 -0.280485243409104 -0.15832493312755958 0.028133525011422512
Ni 5.891041842061053 5.470127315727035 0.22584939239590762 -0.47104203998717586 1.0111649939324132 2.143236628244928
Ni 7.805739971552482 9.00305412863722 11.452902237131724 0.6599091075676505 -1.063160156052782 0.32621437001510273
Ni 0.03719260194918808 4.912491223644217 5.866558428803771 -0.004053344133767213 -0.8280880506711545 -0.45147388804726113
Ni 7.83017550741971 8.876251312752457 2.4135787271610756 -0.8824871942473254 0.8792244643356535 0.5163803589126591
P 8.379925380348336 1.5520133496269688 3.6275415691268873 -0.16671084319840965 0.5043727929288218 0.05745489968335911
P 1.6636218692719262 3.241561277286676 1.672810714774383 0.26472386680978927 -0.5165410528602394 -0.3484765238474128
P 4.8033669082001795 1.1247663609480612 8.250825353087958 -0.7086729072349149 -0.7228206594902068 -0.23772676939565512
P 8.689574658890615 1.5758888103652628 12.526214857323355 -0.4674970029483948 0.5843837235358258 0.15166629016046135
P 6.320267160630875 7.636506947916009 1.3489526915498258 -0.015133513207328775 -0.09599496474008629 -0.36133075410226156
P 1.6710744818746857 3.270034774164127 6.0572242629387985 0.03290394981687236 0.21556386014537068 -0.48428347837811436
P 6.9258167766470695 3.8561624300640394 5.963338507736693 0.2810565425315418 0.9864304673002107 0.24891595324325516
P 2.472252920345853 8.379807945240657 10.280666798965507 0.23691995722364356 0.814520596399365 -0.4562836507310787
