# total energy = -340892.44306458754 ev
CRYSTAL
PRIMVEC
9.07292522091759 0.00000000000000 0.00000000000000
0.00000000000000 9.07292522091759 0.00000000000000
0.00000000000000 0.00000000000000 13.27914316615329
PRIMCOORD
 96 1
Ni 6.655925199915107 1.8059294841246591 11.508728078785387 -1.7892252906222152 -0.0028348983456338277 -0.37824938423447113
Ni 4.3773779653330775 0.42884542247208285 6.027668674719378 0.9263283598019918 0.1532516323697103 -0.026844888106986025
Ni 2.5309832344855705 1.5852487226807512 4.906443827676293 -0.3102835577174592 -0.05750837862911387 0.0035468368109938912
Ni 3.247317903657994 4.306872263027416 4.737613019589276 0.03798830631831523 0.017506384314879525 0.6160949385961776
Ni 4.932105689521786 4.5228713950298465 2.7124508128944673 1.2424647767558021 0.24336339885614214 0.019447310091334248
Ni 7.407127120916208 6.180068415134854 2.3823578309841547 -0.057342542475210916 -0.5457518700962407 0.7708475809914467
Ni 5.17178515648983 4.662140797988527 11.86807489365724 0.6761872759023838 -0.4673561064951564 -1.7078691588412265
Ni 5.693351338801407 7.779044473755442 12.277816364672008 -0.46227123577308127 0.5158717947073568 0.19719024273418945
Ni 1.9381673699958493 6.7769398772221345 0.33588695199040514 -0.015664960230766568 -1.093544167661278 -0.026131921200361445
Ni 2.7287276408363486 1.6354401452975214 0.2988322178781219 -0.6615327592140027 0.947931025673432 1.9794599279741778
Ni 0.19496174016918658 -0.08513670160280615 4.83016865218878 1.2366070324234444 0.10094382410492939 -0.30062777979524996
Ni 8.900884465132117 2.279345652006157 1.5980651369230596 -0.6881159090191699 1.3170915602327575 -1.9174032678527495
Ni 6.85322503292745 0.6707604582276843 4.850445732884047 -1.4052557160745154 -0.8546136077655089 -0.7835591150208441
Ni 0.7746354723992568 7.449189202487312 2.2795643095052647 -0.10701754110283504 0.03229074171290568 0.6884159567580918
Ni 7.628080070118342 3.8346537212821104 3.886446515209773 0.2579374400155751 0.272799187618756 -0.9656171300992852
Ni 7.482849755254524 3.709365696170943 12.609476240777171 0.5729256022975552 0.6090940817983123 0.5372582308029328
Ni 7.80803247000645 -0.0968353314513353 6.938723744248695 0.8835068937610915 0.12154941617042293 0.2892323934741148
Ni 6.862733458614791 0.7443246436432723 0.39647413238633195 -0.42052989017023706 0.0967243867069431 0.22401533334683355
Ni 2.0324804282209623 6.651198205847258 8.883348315162179 -0.22849522349505813 0.2768057376749878 0.8762507264193101
Ni 0.003996623583276792 4.823756815897516 1.2020754987463689 0.26139248844371116 -0.016565874778481145 1.0112033033695165
Ni 6.3637407143853775 1.8802367421202026 7.024481033940256 0.6806746222497762 0.9646853623136354 -0.007176206033465061
Ni 3.6227101868772387 4.446314051566306 0.409580880237414 -0.9371599031998569 0.3169463144496154 0.5157548095135183
Ni 6.141971201908568 5.643994625309862 4.678919358698071 -0.7378572421083551 -0.45479446778006194 1.0178267222233053
Ni 5.114979571348182 2.7393338904818667 9.678171953589016 0.38856105057312434 0.09444356109256638 0.1563086740284792
P 0.15847950764170424 5.616422005401625 12.463445693904173 0.07531892444797351 1.274623620876534 -0.9961317537483747
P 3.839389788275233 6.289224779108527 12.619953654883798 0.7093185112387139 0.7842972787384493 -0.15245484750002775
P 2.491388988589044 8.682925581270464 1.36712743345669 -0.8184212170053519 -0.42499461080981005 0.4369877786159442
P 6.4518478917229505 7.598765448557462 5.983196824195453 -0.5488593053769709 0.023769591615771968 -1.4812295004976685
P 4.692761920788889 1.2920299236697652 12.559665881021917 1.3406294954536975 -0.3522424186477482 -0.07841736086763915
P 4.100726327872747 6.231938328927348 8.019234746416421 -0.9885994499270716 0.5497849025150338 0.10617139105245586
P 4.712976398299764 1.0209399894025069 3.843037104235454 0.6993850541750859 -0.4285884988086554 -0.3917191365861318
P 0.3276024639225503 5.600399219367421 3.406392595197685 -0.0916441439705583 -1.1271001492398525 -0.17210578896173587
Ni 1.4651322649758671 1.0165033289434324 2.7389564567904605 0.7463493387397663 -0.22911074559186995 -0.48889218079471936
Ni 1.903291045241897 6.610896271779345 4.47488560054723 0.2120620176396993 0.15739085134906441 1.2840130325112338
Ni 5.567528011099063 5.164000586604582 9.061727469807746 2.1406297867497006 0.2991180280189429 1.1993275792466958
Ni 8.681546496628789 2.4222805167756065 10.401592577400574 0.712643718957205 -0.3840227963831387 -0.39053848601446933
Ni 2.4827878554291205 5.149474833240618 6.985638933548959 -0.5506300241241485 0.17157794148272387 -0.30982872956822766
Ni 0.8746508641591925 -0.008374310028069192 9.394741933656343 -1.4432815604989853 0.3618208063648027 -0.7979076704330322
Ni 1.685604349138469 1.1515538216496186 11.461494429807999 -1.2089314208850468 0.5809721267511156 0.13507830389479317
Ni 4.076565127867602 6.976163170392604 1.7342297848529151 0.20125489972186633 -0.885081951557695 -0.32885515007205945
Ni 5.871407497307212 7.782446820733259 8.146940706113158 -1.518426678373256 -0.11191472129413628 -0.15338250152061972
Ni 5.078533630521796 2.6947041710581696 5.099841395528211 0.37414384670652984 0.9033624950344378 -0.4988552055447022
Ni 0.5734687586350576 7.404051399248261 6.59378473471224 0.6552024461206006 -0.6535181164396422 0.8720449158680788
Ni 4.991660371021512 4.557557188353041 6.85762812356301 -0.021135239316718436 -0.261992069700923 -0.96557033602175
Ni 8.207649463707758 7.34029595334659 8.692925759507666 0.8531899879451048 0.40702954169095706 1.0340354707726838
Ni 4.816516621528719 0.03552322432600142 10.39460823952451 -0.30517374729471963 0.8643786575720726 -0.13114271628581284
Ni 8.20951848631424 6.890832308188931 4.6460672035727875 -0.27171675318785465 0.4457583257197226 0.2571445118006345
Ni 7.173962014295027 5.866263148676752 7.143329096691809 0.5371620715447006 -0.8882539215277735 -0.6938576965989534
Ni 2.5496190229987388 5.163710252995809 2.4958809938922912 -1.221705946941896 0.5186244177518294 0.04969016813627571
Ni 2.186438897198542 5.520348799673322 11.301905303405263 -0.3795868720989721 -0.7595288135445177 0.9703538734533222
Ni 1.0667582620371217 3.42763322055707 3.6154591049981133 -0.32377542155630695 0.01725081666064771 0.4181999564854798
Ni 3.442249703173776 2.646000708186365 2.944703183233066 -0.012947561299603508 -0.1758274607876972 -0.4016291966109922
Ni 1.223901327785939 3.391051185851572 8.181425987787792 -0.2679238618043257 0.19722572395781518 1.6409232889482965
Ni 3.6050361284431345 2.612140551063121 7.2101103631724195 0.1856526744082351 0.3618141214965833 -0.02862871948028618
Ni 4.012002191616529 7.106141897870523 5.944740323128308 0.4565685289613492 -0.3861295583134963 0.08858427409831195
Ni 1.020695020420104 7.7485050072825485 11.647136461135545 0.36731602515141903 -0.9340282995494108 -0.9133417177343367
P 0.33957781799194203 5.650699517087481 8.044970098956636 -0.5863192499956418 -1.0758974011137923 -0.9350582834758219
P 8.616956341601893 1.5615139501634936 8.12994258061198 0.8080959238199439 -0.061530355304313396 0.02717630330447578
P 1.6905944580392684 3.313913175170484 10.484109018184197 1.0133224065950484 -0.2180506311229664 -0.3553619381133364
P 4.108901033544784 6.252279827392062 3.9278780284743218 -0.48797815362088215 -0.5774386596765604 -1.1092538650870507
P 6.943246597497875 3.8676700963548556 10.228365937018218 -0.09893759230817799 0.2792570274289578 1.7315508187288826
P 6.736111713488319 7.852870866711453 10.196257761765418 -0.5983630685340534 -0.9822969047478115 1.4012393958262706
P 2.2669611090068997 8.604227027442215 5.755578904086906 0.10130712098161909 -0.51844572608212 -0.13244112338226224
P 6.873747989897648 4.058210600037934 1.4749410044897844 -0.6053191881369122 -0.39659291973866534 0.5607876813834407
Ni 4.945814879611074 2.6684743440905114 1.0615948602635852 0.8316086622299034 -0.25504186363533493 -1.4377534315919045
Ni 1.5714215845628992 1.0730730180279517 7.17246407433226 -1.0816463877824274 -0.01649748343439094 -0.08829476788235117
Ni 6.951620907525944 0.7167084736937198 9.27714139812999 0.05293438610518625 0.6896349167668574 -0.3533395083666689
Ni 2.8774963965570968 1.6998034771925623 9.425442898199119 0.16809358247854922 -0.4287255386071519 -0.2687712974062855
Ni 6.50642153724715 1.9617660486339943 2.656811098650552 0.06685999504734291 0.025760139683239505 0.5708010997553846
Ni 3.9927131524836197 6.695029507846828 10.38731723677418 1.4432213966850114 0.5085953156506015 -0.05963776626729085
Ni 8.078469153653968 7.251417577360711 0.21385882893025107 0.7237629687988181 0.2632213141223338 -0.14103220748538292
Ni 7.887910504120341 3.614245147596428 8.259613735923104 -0.6600443475939343 0.7268009842941935 -0.7850974060422414
Ni 3.200356442438833 8.719389667947398 12.605266403449951 1.4980270316709814 -1.900651245205391 -1.3943105299169214
Ni 9.179895063163736 4.912698702360313 10.19061349495235 -0.6033656639549673 0.06778199264098003 -0.32554099809716197
Ni 8.482277838831948 2.1540122622686186 5.576722513571918 1.1490465716039566 1.341025959561168 1.4551405167201004
Ni 3.526001876379742 2.9791585242542964 11.756755544298203 -0.32027460749190007 0.11207747212424568 -1.0628356828338277
Ni 0.9865263838375379 3.6038929398585875 12.569891067805921 0.39222384413669226 -1.2256695595753342 0.15620068769570516
Ni 3.346793456364116 8.599082678811756 8.054531147610568 0.1613225823033028 -0.6596777082831349 -0.0015030669080877339
Ni 5.804204339801352 7.762304926624577 3.6198948581646606 -0.6736588530535753 0.6301627295431534 0.07979341527955935
Ni 3.182782186182744 8.472814777770976 3.463545673377334 -0.21083997230714013 -0.26013830432163587 1.8269819405456986
Ni 3.407636493252775 4.389826018809254 9.456543071453956 -1.0629336418642727 -0.306456213551569 -0.3330992700603941
Ni 7.203403656809745 6.054535421041284 11.556785549377668 0.5723779573242014 -0.45054417714414025 -1.2668748301690502
Ni 0.49937743626103964 9.173453286219067 0.35206307046174273 1.0378705282480578 -1.0400716496644347 1.1502254224034063
Ni 4.601960084644883 0.19752121238903309 1.7531386684168362 0.9665126453303612 1.8500743035887879 -1.0236237885210564
Ni 5.904324070201941 5.887067366330449 0.49532365324853544 -0.09605769965722166 -0.9113403710335917 0.10419652671427215
Ni 8.220660038550934 9.014559145892333 11.371169829533416 -0.3037179886847995 -0.6821622625388961 -0.3986559729152812
Ni 0.15000176626550937 4.733835053505107 5.831721614865415 -0.16867079513825792 0.10557386667777302 0.2466875781333687
Ni 7.846420016841511 -0.30429139701559677 2.5365685272843566 0.6041490790882111 0.018588304525148633 0.27776347360256676
P 8.602031379525865 1.5025217900307677 3.5203675897844757 -1.257201054524712 0.7217659929734473 1.0209943213180093
P 1.8902986162492696 3.3150109991286594 1.4534154892767897 -0.00044788617069600284 0.13949134536082428 0.06744106436179353
P 4.906138977387081 1.0796690347022815 8.299119067151944 -0.81436684443032 -0.5164405227266332 0.06619099400477632
P 8.695509728625753 1.6100178086792658 12.608480033582067 -0.9652538332225956 2.369456425442248 -0.7615926380520819
P 6.307434140133808 7.907326564207089 1.305352607142373 -0.7944636777484898 -0.5578561095589425 0.31860287621643196
P 1.6836718160550683 3.156080567100829 6.163992098841533 0.6352632839945124 -0.030914430190669338 -2.099533788040339
P 6.9310616588546505 3.8528540093821175 5.979160279740969 -0.047126778284473675 0.360933775774159 0.2637802719495973
P 2.6922998458605116 8.459069295980592 10.20160897309213 -0.4269028835761164 0.3574435032327134 1.1006185580095562
