# total energy = -340875.56773290696 ev
CRYSTAL
PRIMVEC
9.19040342795591 0.00000000000000 0.00000000000000
0.00000000000000 9.19040342795591 0.00000000000000
0.00000000000000 0.00000000000000 13.45108439702711
PRIMCOORD
 96 1
Ni 7.9057410209892005 8.390801308505942 1.9133362448640403 0.3437297531910467 0.4256967790831572 0.4786450491454144
Ni 5.803050304955733 2.169707135756692 13.253433502348035 1.1286299556208175 0.6215965851406973 -0.04933715567223116
Ni 8.089071182897989 5.565937903850522 11.94905520786041 0.1256546965880481 0.29906352063192365 -0.21496376466752656
Ni 4.33510397243903 2.8168585635173335 3.875176680399126 -0.6686819686642742 0.8672055854979064 0.31727952941931814
Ni 4.382737831932375 8.29934760682385 6.646732070660335 0.7071497857221692 -1.9153844376505078 -0.037960795514489463
Ni 3.129938837007648 4.593933296172598 7.930449419840804 0.7203914812234238 0.18792475827186345 -1.7843723334052881
Ni 6.699307609924 2.8040655223414244 9.81821520603837 -0.46134820973817964 1.966169124402543 -0.5967198765036755
Ni 0.7292373515184479 8.775667820951018 3.6336620761881244 1.190378340473208 -0.49589663713701043 -0.504039577959119
Ni 3.5162114811336957 8.65588929678031 4.3078176655056435 0.6402689647392199 -0.7617283922989978 0.03544111441642929
Ni 4.1541633153475805 6.014843145400291 3.205850647933576 0.794649825617367 -0.9904691561459588 0.2551454790927348
Ni 4.722874652277486 3.513095934468011 11.379683999984792 -1.0901526254812257 -0.9097596568100332 -0.4474873925956874
Ni 5.785055495600539 5.557096736026367 11.602246154833036 -0.6320961991204405 2.171760446716234 -1.7991785451801854
Ni 3.3282125944279515 5.459457893028624 12.355506301128573 -0.3748467863108254 -0.01165481063010896 1.010616063407479
Ni 7.63510202921609 8.697043922057409 8.837092799401669 1.0617414213283844 -2.0221397262308916 -1.1510977977060304
Ni 5.694998735196277 0.8441348525795813 3.1734599910942265 -0.6305442812522882 -1.6154297726628826 -0.2711318272186621
Ni 7.31791364552058 3.7522853666836786 6.044863597268902 1.7943615834075162 1.0162614346187142 0.7758638032591153
Ni 0.8904370226574171 4.212641850550389 6.780085739314472 0.902863186800516 0.030989763513295014 -0.17317485365619853
Ni 8.991504438778763 6.990055203775336 9.711346441163498 1.1446859806424157 -0.476414874263315 -0.8937087739947576
Ni 1.216285523235153 6.697074341960103 6.736181345416804 -0.7481074590814536 -2.619859504753991 -0.09828067545046945
Ni 5.038142241715981 8.498990734312553 9.068478660308093 -0.40400618148360096 -1.0116175080887997 0.015866020497979128
Ni 1.7474724441296878 8.841535440281291 6.206908785497085 -0.09464744957325634 1.0500722125205721 -0.1072067742955057
Ni 8.610764417345173 4.325012909787343 9.60215066621266 -0.5462221248644399 0.815552380097989 -0.8833413147175045
Ni 2.7904821064951646 7.456578448151411 8.10086155109093 0.6751369802609986 -0.09766258225049632 2.0542674600033717
Ni 6.851574209207378 6.277026966281278 9.362062412569548 0.01609639134123034 -0.6523055841887798 0.5203933367267941
P 4.665471394242481 8.065580512462915 2.363018994519759 -0.4776315202792354 -0.8859615259491709 1.1699936061692688
P 2.9259118872194434 3.555794547473236 5.856332586221143 -0.32110250270983415 -0.5636539471876421 0.12589149518920256
P 6.6937198448126844 6.997582143949955 13.114591324936532 -0.0671728983020714 -0.8514148983225531 0.48896674278639657
P 6.47504339241356 0.7166014662362947 9.75698598317468 -2.7135826427407657 2.258325376391672 1.8010747337616335
P 0.4370192931641344 0.5970839495148673 11.124315782075108 -0.04155314085143812 -0.41204602106894195 -0.10999899232866216
P 4.02592962028475 1.4205698043113792 12.274436835958449 -0.451607585411648 -0.5272381275627694 -0.021213657963137657
P 2.4533597383811587 3.4826940808689395 11.71111934663353 -0.020164133652700755 0.40788726170556205 -1.2530224976669904
P 1.7805395146404066 7.019657492300913 4.606149180031088 0.40416970364465876 -0.33114831698161035 -0.28278972317256457
Ni 0.5011719832678094 8.355262019549592 13.550621730722414 -0.5146631191112362 -1.1367831808555713 -0.028813581797582637
Ni 0.9473375656404673 5.365927160236076 10.985311853568279 2.0922909904349964 -0.9270505826799971 1.5279618715572005
Ni 7.934231270734401 4.8096872003720526 0.7558058879663183 -0.9968449777653156 1.5678623072965645 0.15196376679622217
Ni 5.07700845661032 3.69314512245453 6.421251962813994 -1.3127304550505845 0.5786491350448938 0.14979915504473554
Ni 3.5556199298135076 2.9796941264158656 0.18338898048890792 -0.41516914007895594 0.6964416552760457 1.225401393515612
Ni 4.526723877983358 7.028213757627617 0.3040405929582572 0.4133153746996688 0.44132831497282704 0.5497172825018919
Ni 6.091647344471464 7.4147621138479725 4.428419649798017 -1.42084508587234 -0.40892033095576674 -0.9606353606139778
Ni 6.593810972238469 3.2492578410211737 2.1487704783552277 -0.4780179570843768 0.012443625079991472 0.7325214317177384
Ni 3.4752682351289006 6.141211188624968 5.773554625106622 0.5037505859637905 -0.593365872429778 -0.3224667300472124
Ni 3.395449583826623 5.5397728261006565 10.140247851230878 0.6570736950013846 -0.5970865158144748 -1.4818956733267574
Ni 1.7574991739593695 5.01224368565728 3.4100384297767943 -0.7179260504020668 0.6291093485779746 0.8745237164258745
Ni 5.257333356691148 -0.18581248979787862 11.517437114623776 -0.6306759217341462 -0.08238251616297426 0.3307171429814627
Ni 2.6315800361420987 0.768737704229696 10.640856462785985 0.3996687304505117 0.0683535488737339 0.05170617012503998
Ni 0.9563809223337824 9.13867955472058 9.021776707693512 1.4521631792593312 -1.430642531578736 -0.059134344268311066
Ni 0.15225281367866203 6.392541143393348 1.4287207728594495 0.7031046691185181 0.31192906374068213 1.1509774700780822
Ni 1.1683208092286377 3.573504454330978 -0.013894051472513881 -0.19828861800469075 1.4384645987263163 1.348580374869658
Ni 8.18357609842376 2.718493678671245 0.2748509535338285 0.02525260391920167 -2.5180744156946893 -0.6658843513144791
Ni 2.0158597871326136 3.2388910662751784 9.418905975053107 -0.6578188006975252 0.5764585551514781 2.6228288717949604
Ni 2.6473783391459693 5.233851876659216 1.205394895509972 0.5141576402297273 -0.3276120216935777 0.30524959483797753
Ni 6.35337164519527 6.238748937188131 2.0416866580467943 0.5038398032434871 1.5099011574007482 -0.45174179699666717
Ni 0.36340508302410995 3.0606156260953767 11.331018058218419 -0.9480963476067025 -1.5899653098431907 0.11402302588639072
Ni 3.9685263622497446 1.2180868422513011 6.402123976751193 -0.6365431791482006 3.0482119762924405 -0.04483155449239375
Ni 7.245888456084087 9.029690563840475 13.116905468448094 -0.13982018945515276 0.8803367235632259 1.9871202727329131
Ni 5.116775331012732 6.041623980160779 7.945098003411409 -1.6545838171545244 0.8685428162520913 -0.25686451866637056
P 8.18848377370245 6.8635125428909305 3.4076709819269992 -0.9185458876430954 -0.05484934373971199 0.28952781322734655
P 5.841604046143189 0.4641567155665944 5.607098043369507 -0.10180591499490853 -2.565053869768021 -0.4449944509705046
P 1.5264064869132248 6.445119439777957 13.187980370199538 -0.0008062979513792565 -0.1467302863114247 0.05855610316733787
P 1.51517581427173 5.622063695848566 8.945024893920257 -0.6261394673163733 -0.08397917122613278 -1.2773268787403098
P 6.944829229905618 1.1781729213985908 1.5021502558962874 -0.022325917190709938 -0.48548186956158973 -1.6524641997083604
P 4.444598435492034 3.969325927323239 2.067109151222656 -0.2708538909669271 0.8949097362813943 -0.17644323999482517
P 8.505874346267118 3.106659545844877 7.789011872581546 -1.190660390490001 2.2351779917409313 -2.189327766176036
P 6.898913975800128 3.695966576219619 12.022914801764367 0.9572379048966547 -0.7905034075491612 0.04970328076239827
Ni 8.86585324699929 0.9681170671481759 7.1622989823719845 -0.5371682421922879 -0.839508119582638 -2.8773040642935483
Ni 7.563472027114772 1.4452276559456925 11.467479921215725 1.0774472620994153 -0.1966881062867903 0.7606822104226706
Ni 1.83434932504626 2.006752097617293 7.594428062023403 0.3434764995296601 -0.6548561185247753 -1.2966970557368054
Ni 6.5697321160022035 4.9334084074913696 3.9682313503088347 -0.12802473948212145 -0.23354255611097846 1.2685177650891122
Ni 2.306037575989045 1.4770356412257366 4.664567058573149 -0.2804163378443815 1.6314289763046161 -0.056626490244792806
Ni 1.661514603527477 7.527776501304979 11.31645035019548 -0.6593923158322321 1.4103174468681388 -0.9476178653083874
Ni 2.9751908288754954 8.684866637892123 12.920788698645596 0.1626562135130618 -0.07819084667912986 -0.19667807898446127
Ni 6.4209762507196855 2.228461383053809 4.8121254143260535 0.9347026999086161 0.7183762505656079 -0.7309342897362767
Ni 7.834570539045063 8.903175474165502 4.683586597878856 -0.3657407102444991 0.570067821133786 0.5797261701591564
Ni 1.9272734912313292 2.889720079639896 2.3416320073642574 0.3732737853967507 -0.1555255160055515 -0.08956592128529092
Ni 8.11318680074683 5.507762651951453 7.261742820547133 -0.4306358682559874 1.4883177748030174 1.0888200227127314
Ni 4.8130876495351895 0.2537883876092966 0.7780255256466312 0.6970317234515608 0.38320724246037874 -0.20150609650072393
Ni 1.1918022892605686 1.1994211334666238 13.101032723178761 0.6936923746656828 2.121146481214108 -1.0818811295010529
Ni 3.225417935266642 1.0409234408518768 2.4975839583082236 0.16624161687147498 -1.1927653526481456 -0.5847822445258252
Ni 6.317161456809435 1.5179145544085264 7.422630937019534 0.5091686716555682 0.28282160485176455 0.4902918893557234
Ni 8.869272076968713 5.681075274433703 5.0414526249283105 0.45747355727412176 -0.1646030528267875 -0.5244898753936709
Ni 7.294928447258404 7.956223905457066 11.115719998014889 0.6753930621358627 -0.7442757440401891 -0.6842286581496216
Ni 8.807953707194528 1.7597600131326983 9.188919812545455 -0.03176006602041626 0.04221031481946279 4.163946049787197
Ni 4.372527294039822 2.489533165154419 8.934707747351236 -0.09665625247316902 -0.2829319051773837 -0.3156851883490047
Ni 0.20295810590260274 3.2516289650322254 4.591178013310143 0.013479008323041303 1.3663531254720467 -0.8397487748385344
Ni 8.5619449958463 1.6031831147749664 2.9909156086542166 -0.04103454934380675 0.5633772964874878 -1.0469195258242034
Ni 5.572793944595658 4.875490486880321 0.2874767293725238 -0.8156930194409113 -1.9685607645631709 0.8146818045675775
Ni 6.731979493099543 7.750643777537591 6.7680343636722515 0.5819607159166299 0.45594709332726635 0.5909696042834597
Ni 2.435511975476263 7.349464299512603 2.389047135262785 -0.6533443098659394 0.8769834908202766 -0.41426668286934465
P 9.261077343787216 3.796840441123914 2.051962447801668 -0.2381936817297446 0.18668702921002042 0.9265654155134624
P 1.1188304883002826 0.5941944867665154 1.698522518906177 0.41399723125804183 -0.12887628884913932 0.7987332516581213
P 5.3085514734105015 4.497489205583525 9.395609222124365 -0.17593878955458084 -0.26421684526638367 -0.0008006415244244274
P 8.87648654343645 7.963364848699653 7.321425298561755 0.4754509676881489 -0.5808417718208384 -0.4957212879014108
P 5.932129517107776 5.882078581587661 6.074133193200681 0.5396961508204641 -1.6340790123329534 -1.9581614236067177
P 3.2902654198479744 0.4898319448289055 8.436156867059987 -0.9352997100626667 -0.0902745173165413 -0.5265151333538157
P 0.18990405727741505 1.2419267480058331 5.04186986923103 0.12984842295442153 -1.0122911371170566 0.7155575501698903
P 3.7922360491489635 7.43256392473715 10.899090248395847 0.869174022078187 1.138426115775633 0.7931668133139372
