# total energy = -340892.2374186357 ev
CRYSTAL
PRIMVEC
9.08162443809288 0.00000000000000 0.00000000000000
0.00000000000000 9.08162443809288 0.00000000000000
0.00000000000000 0.00000000000000 13.29187534981306
PRIMCOORD
 96 1
Ni 6.275638595286576 1.7738864527550933 11.387734021124718 0.21679284745646538 0.5547314478870318 0.9149121475452501
Ni 4.581052886952159 0.41139304533720045 5.862182204881536 0.6572665277384809 -0.3309544558032494 -0.06052402552698609
Ni 2.7738096277086166 1.6979186644959363 4.747445501381979 -0.6366586216801423 0.9298543706773793 0.4644864982568452
Ni 3.5480362726183174 4.2441700291549775 4.724504409938889 -0.9319889005218788 0.11899553940031764 0.0584853978304025
Ni 4.96768488331284 4.565913819046838 2.549275545590338 0.47783129499486743 -0.21477555991612043 -0.20195244000952312
Ni 7.117913851962669 6.057443487012279 2.9120900737515605 0.39619234186613705 0.04984443432595286 -2.101954738777006
Ni 4.970754472366228 4.565486982699177 11.258418046545088 0.9211385880709362 0.22653398600362923 0.7356409511833265
Ni 5.548863437962541 7.806927614955374 12.410982440234228 -0.20149118410238845 0.6109157083880833 -0.011635527356399316
Ni 2.1167541010439415 6.359916069888486 0.49244381878328514 -0.6474562265162785 0.7467933682557203 -1.4315323903828572
Ni 2.404033126268318 1.4813945751146067 0.4489528276064439 0.6870162481970877 0.4483116882691956 0.10974471022601101
Ni 0.4916364623724974 9.201047779410029 4.877493454889727 0.5473791212870185 0.18833407789514015 -0.21754978022714788
Ni 8.790930702303601 2.5347267832722067 1.361154775978634 -0.1976622972746015 -0.4356587753918755 -0.5884247263744189
Ni 7.0768739912163285 0.2453836754578326 4.473513739565193 -0.7436203698443774 0.8421087904302788 2.1048875961530844
Ni 0.5717863386762858 7.482749949719407 2.565025806819012 -0.7665888057150927 -0.4208533349479268 0.3246146296281506
Ni 7.762091635202181 4.001036780228002 3.754237279523355 -0.34474996692544496 -1.3283213675103058 0.8592907015262039
Ni 7.619201356604504 3.9152699192214895 12.637277449327216 1.0491910954671995 -0.18168957599542904 -0.4114996616471687
Ni 7.94370596031953 8.964589524430512 6.943024469727078 -0.0976723524425092 0.4803201228549921 0.1136972671158558
Ni 6.952501144807584 0.3610136420390716 0.29284696915524233 -1.3162613510219783 0.3451757416089539 0.21321541451785214
Ni 1.964782198027954 6.490755032883068 9.455707426048724 -0.3866406936219599 0.400381183136504 -0.8768780755906639
Ni 0.07673427736006228 4.943282558500843 1.4098422726476318 -0.07843330170723911 0.3772363695889245 0.2536640094512019
Ni 6.351824342531773 2.0034517548011146 7.105451138773423 0.823290115061879 -0.22700398366151225 0.767841190064955
Ni 3.5869419516263545 4.070084370680407 0.12665505862506646 -0.38004607112357774 0.5404643964450563 1.0739567324476536
Ni 5.831583487728927 5.381207569576134 4.878636831403992 0.41510152006581413 0.5989909319260395 0.5826867954493772
Ni 5.299908867783429 3.0635588547747736 9.492963882062394 0.8541253552751805 -1.4156288317787233 -1.4683004511408262
P 0.24300973883488658 5.559679652644747 12.450712730739447 0.6669202487781611 0.13966335216231432 0.6209489242543693
P 4.0874938446903055 6.193068466075309 12.538039814821026 -1.0702150060170341 -0.05617166209556133 1.2609726057520025
P 2.279024566150291 8.325152349137356 1.6803193845356947 0.786969940474606 1.0060724099008544 -0.9960366229314073
P 6.419010199978425 7.593073523153027 5.802276177568602 -1.1168967263442893 0.9566061848499268 0.033188570936826714
P 4.68708085203592 0.9809334982948383 12.983158380598057 -0.09144899724061671 0.19095840289186466 -1.6189557835382697
P 3.950297744602908 6.227415169625354 8.264250067625731 0.12070532300257275 -0.05368154868385593 0.35994210128485105
P 4.748645183967639 1.4018940349567277 3.7757834334557936 -0.05644342769970924 -0.8329528349626236 1.7129581433283596
P 0.023331601293078326 5.631379077427299 3.740745618287515 2.375870042278076 -0.5521261490537007 -1.0453822632440706
Ni 1.370626002084489 1.1700674084305471 2.684068647856652 -0.5166852917475875 -0.7294034549140471 -0.08742290680035911
Ni 1.9020190916730189 6.2979975546044535 4.898215905487425 0.34518396913907007 0.7737351869518868 -0.6722064368777648
Ni 6.423850705793384 5.557908735883177 9.25313906891101 -1.8015763559884006 1.065090026085643 -0.9542068313798148
Ni 8.54648969946039 2.321717282540763 10.33718442268889 0.3084735010919139 0.05212757393317475 0.22836923944015508
Ni 2.4522656335539588 5.211771702803738 7.042739797677672 -0.11571918264189103 0.158917572406236 0.2455354668067965
Ni 0.5473458710417319 0.03625384467789058 9.02324228757372 0.1865697869058658 0.2738165731396768 0.10917109711072812
Ni 1.4489096045703145 1.118293067621766 11.530741452677393 -0.47265874965499244 -0.601005648363223 -1.092340891381796
Ni 4.247157883588601 6.960547464042206 1.6462124358702925 -0.23393542067402293 0.6613993189599318 -0.14533726261864002
Ni 5.892475779453691 8.009030084760429 8.150883241849536 -0.6830109836924366 -0.6746993785029476 -1.5130985812921232
Ni 5.3654872777080405 2.939413048976486 5.164358358040628 0.4204854100855468 -0.4453760026796394 -0.9335709002970181
Ni 0.7260940354926622 7.430131017839724 7.0013357637921585 -0.5536338439474787 -0.4854420174625897 0.7036407441276462
Ni 5.082558350580033 4.711855523449068 7.28098350001783 0.17101846943482804 -0.6840206559038735 -0.45954946596654406
Ni 8.216872141197856 7.239507721299412 9.207787252890856 -0.08396065928337153 0.16659848599026147 0.4235907884837479
Ni 4.343604734911046 0.3920201241280631 10.791514480113413 0.2427717880187303 -1.210469454796128 -1.1453521534715048
Ni 8.269264032467081 7.098533665453997 4.878012015644013 0.16940561642175342 1.339872562683015 0.6432414171039825
Ni 7.396374619876867 6.137861271236407 7.058743436227617 -0.395886380589944 -0.8133162916786187 0.12271206901995642
Ni 2.454308999048078 5.424481509929378 2.53095881730105 -0.9740243803263741 -1.311112716941503 0.5511750979943411
Ni 2.4830523403320273 5.12785749317856 11.584866117885634 -0.8231813573981566 0.3695935083316861 -1.194989613992974
Ni 1.155800176469383 3.4820945977169737 3.7766870550854157 -0.3905965929459144 0.36264767314147217 0.032185326483292954
Ni 3.3434091112249735 2.697751023205276 2.556400079946502 0.032754825833517784 1.0208822212201774 -0.10640176189570706
Ni 1.0738839242162337 3.3395675840960286 8.00726461697351 0.7934416642418788 0.5658432415294772 0.4069801765102604
Ni 3.799933289108962 2.5275341367329056 7.026669863269474 -0.0853865930966207 1.0633275348685816 -0.0698203632272475
Ni 4.246712883992104 6.997809369030529 6.019505001004791 -0.1591929375548097 -0.12109741623466887 -0.17439921298160288
Ni 0.7868482865262675 7.482568317231041 11.544605460514385 0.3737910913528014 -0.22403795905465285 -0.17455527894349293
P 0.2193484745754236 5.62288775859618 8.143652452487679 0.9729810266635243 -0.28642886258704864 0.6218431539338645
P 8.616281983115096 1.7506556574930583 8.089847460458962 -0.35319346970710785 -1.8058970948509416 -0.8148921208061708
P 1.5881581517762506 2.9626710891117756 10.202857207755235 1.792475936349029 0.7493487876877224 0.5083068378759052
P 3.9432413224298815 6.188418674373134 3.839451069602793 0.341958777333553 0.3088666227652745 -0.0672176354970778
P 7.084320923239343 3.9851439374959607 10.400134610506841 -1.135554964875425 -0.6522346217415282 1.7610773674330895
P 6.188218878635931 7.70758372544349 10.214607013427644 1.7370990022406212 0.5656853757953741 1.1932852297073577
P 2.2659924351100176 8.269127808100805 5.927259309138257 1.4680214864478265 1.4193183648151686 -0.779014175962639
P 7.008625583712735 4.067641413711883 1.5421896934580945 -0.6195803260416168 0.7066209098018927 0.09031719762901864
Ni 5.622915003469434 2.952626812505126 0.11750623018606171 -0.36595051226246006 -0.4380216191970972 0.9097084918571237
Ni 1.7580571813939803 1.1831540292173308 6.986621715909614 -1.116606705907696 -0.6649980920547838 -0.8151533448873572
Ni 6.9226044372225095 0.7396574415614071 9.364737702412961 -0.5284326620915029 -0.11639049767730278 -1.3006748094376308
Ni 2.8606117938988165 1.5414422757684676 9.048909682667187 0.0706405451356977 -0.15689488554925238 1.30012896423649
Ni 6.367208614296389 2.295317000356738 2.635619089747413 0.13005642520016958 -0.4541516919897404 -0.17373921080010077
Ni 4.264049705006657 6.789667618987299 10.416563269079562 -0.4713366884094592 0.6075354790619408 -0.5902440389713447
Ni 8.118054985902232 7.02116730703442 0.27738822807039626 0.16340671852584115 0.475117238497814 0.3130788610744092
Ni 7.884057851140075 3.768529031870448 8.384355458720314 -0.9635075399554502 0.6525562667470052 -1.0073960138082845
Ni 2.959356296199093 8.496359132671323 12.581145745122532 0.18391975087752843 -0.6272360428146617 0.41391109930213876
Ni 9.198050843351988 4.883071388607453 10.384969205890707 0.3509712652448085 -0.3451934822207668 -0.8330569646406556
Ni 8.422925117624873 2.3239331988988305 5.7655900475683985 0.6488636483867665 0.43283493278983526 0.7286364948410353
Ni 3.7946387020730876 2.549738708435672 11.474330942603066 -1.2107697596453664 0.07901102858758005 0.2242603594781041
Ni 1.0551394514168433 3.327189330013873 12.316252015926842 -0.7452802740453035 0.3384129689638236 1.0488709931236195
Ni 3.393285392530328 8.392301880086334 7.967110214607954 -1.0225822346304196 -0.3813107967686143 0.49738761986024016
Ni 5.606658895760662 7.672183553460919 3.6457754390954875 -1.0847630790345382 0.6146114120721158 0.2858099980561271
Ni 3.10251902352932 8.668337854280844 3.835981889074999 0.11436703948937078 -1.2431872567441236 -0.56771654729279
Ni 3.3300591233300585 4.20397475947954 9.296776274240987 -1.0003995278857933 0.488215723552985 -0.17190704268736848
Ni 7.2023547958041085 6.081891219946367 11.426573404274503 0.47456316576655694 0.28311445350183495 0.3971801597007031
Ni 0.38855366808759445 -0.007337952529993884 0.24962842671095037 0.3787371225041671 -0.0027279404541243344 0.56212594057889
Ni 4.527889057607377 9.83004108662213 1.8172521175149619 -0.1417174064778656 -1.81335200846709 -0.9569591973139714
Ni 5.9242160567956805 5.66011333708683 0.299584626311186 0.3935399918449545 -0.603491133789238 0.4649348986481735
Ni 7.897979981373344 8.830862604870907 11.316543167309593 0.021810925227504375 -0.7245183589076039 -0.04377663086531816
Ni 0.20761047501475888 4.9646970288792165 5.993824891637138 -0.5462943728632721 -1.378476133987826 -0.31210929807228827
Ni 7.927531587230522 0.3049418765555466 2.3922588002099805 0.8334500863140162 -1.424172093363044 -1.0165044038674558
P 8.406405642807968 1.8996669509486765 3.6569939697394247 1.1692772968285345 -0.4196577719779289 -0.19091957923412925
P 1.7879266441057993 3.482911943914622 1.2234827987717167 -0.06002574573432888 0.0920758321913382 0.7325918799443577
P 4.860340082688424 0.944861286105314 8.21690483504576 -0.038679675958385 0.5891862871307917 0.4573138917678059
P 8.280425348877182 1.5761340810464093 12.437978476980094 1.2915335092579951 0.8514418949057465 0.6417262660110368
P 6.370123815734666 7.624523188513633 1.4777374049613539 0.05602510921536803 0.3753774620033148 0.1623474240233914
P 1.8689801420392096 3.360755013863944 5.925464780153199 0.3368386824981683 -0.6661116368339367 -0.010689618503362235
P 6.966786540017584 3.970132012332496 6.260459568233815 0.08528477741143378 0.9326121359281745 -0.5418031698611379
P 2.302636789637895 8.63119401040996 10.182307308021485 0.7028892106736024 -0.633837093070947 0.6010722399351003
