# total energy = -340870.3784331587 ev
CRYSTAL
PRIMVEC
9.25763677002136 0.00000000000000 0.00000000000000

0.00000000000000 9.25763677002136 0.00000000000000

0.00000000000000 0.00000000000000 13.54948718919063

PRIMCOORD
 96 1
Ni 8.825804974169081 3.426982694290826 8.49543324800001 1.663056630512226 0.6258597312924253 -0.540377750268521
Ni 6.325659835281506 6.356395189110453 5.18675759609522 1.9083077333093843 -0.14423503069339677 -0.9472085456851105
Ni 4.272640033511538 7.323568267595849 3.4272752356104026 0.7936193274703235 -0.8583602192921347 1.2752946788016295
Ni 1.4375535989820123 8.194480439721792 8.693743860944592 -2.44244104533009 -0.13088123509431007 -0.6397704278362466
Ni 7.38452980523549 7.876887955247143 12.24994187093972 -0.5706234365269399 0.24313945577079418 -0.9647139015587258
Ni 3.4515154315338106 3.218648838096064 6.283493151660999 -0.24670814695865897 0.04978478473261103 -0.03956567810776412
Ni 2.4746125768814795 5.046495142522217 4.564050069884071 0.6551170854956458 0.0034766456946907867 1.3973999674755224
Ni 3.9111941240104677 1.766829220966339 8.966833960060468 -0.7027274882847574 1.2475280502113224 -1.0168389043887391
Ni 1.9366142779611812 9.047692010486005 11.517429515883652 -0.06598067776618313 0.9295905754930313 -0.8349462112435685
Ni 8.472848317517753 5.307060584952797 12.489917403595914 0.3889719128582979 0.4626337613188226 0.19693056131489955
Ni 8.832127940032084 7.176492193414984 2.4933361470980593 -1.4748840178956149 0.5440845096961469 -0.5695155481747417
Ni 1.481416281645129 6.764888408297881 12.109772919497342 -1.1240258811899029 0.07823789786698139 0.45668962792024576
Ni 3.1015212186250314 6.018685860096557 0.09538420816439254 1.1650807422486837 -0.07325767104357062 -0.2577541203601754
Ni 4.335397552670101 8.23268670636398 7.091286756797256 1.5616278963510783 1.6565247429309793 -1.4178230112165646
Ni 7.9543003132946275 8.470598711800754 4.880850100657589 -0.17951905070667148 0.4583145651181784 -2.080824127445978
Ni 3.0180821390887984 5.160262239872797 2.3280188255724483 0.8500429576756908 0.27705693445384544 -0.10199206286378563
Ni 1.5476824451112732 8.894024498977968 0.39797932119238694 0.506535090687463 -0.7558840177030788 0.6894852785628706
Ni 3.7137657638429644 4.524558843268553 11.09998416201171 1.2439758140836898 0.8986650895587683 -0.554350153288213
Ni 0.38168402908102805 2.6291595638755854 11.68177200826523 2.1534367087063817 1.2129945352108271 0.11475861850083463
Ni 1.1178226004307108 3.567985758799465 3.2732170518338175 -0.41864424311174997 -1.9330713134073094 -0.09739775862488388
Ni 3.6769666579784883 7.0553652748915106 11.383533539066121 -0.7860559133007687 -0.5809962951208317 -1.8655307473531741
Ni 4.971119464547735 5.5387329432568295 6.987267025123333 -0.8734484810838248 -0.029725294978574613 -0.06317611843785248
Ni 0.9867159495495244 5.934061803063304 7.129591154388415 1.8106934877983203 -2.5790113603893774 0.3260845293054578
Ni 8.544382076263616 0.3237349264220905 1.5363353598136407 0.990295863792888 -0.7230376605970193 0.27917243813495146
P 6.425957071240182 7.640466429318338 6.848249723685871 0.8023178836855859 -1.153538545937039 1.582549476995094
P 8.12765881805392 2.5156516803524793 1.7569485453212683 -0.021848977554291407 -0.6665785491680262 0.4636789147538853
P 7.301933170638545 2.006028037903784 8.59372157679577 -0.552668394710416 -0.6693476272727312 0.09130630101516533
P 1.9708305031876228 1.012526240656483 9.461742588981721 -0.9610161409921643 -0.6273951941003453 0.5506259103590904
P 8.067798939181039 1.4372203240609756 4.686916498342623 -0.22553794063894705 -2.4300472996514277 -2.581720017569792
P 1.8184405455435606 4.623004551888136 12.100803195303106 -0.843738869834534 -0.8586546106041019 0.12908377687425512
P 2.9058518094296666 6.868786864931093 7.450741348645131 -1.024816523277577 -0.8501887392249358 0.6630975325979612
P 3.853417213394066 7.6916519026075685 1.4603227564345105 -0.5096985760171093 0.4765210608238761 -2.313463455016396
Ni 2.5932491911338733 7.468061461138678 5.31166996226347 -0.8977585185840989 -2.8445425535918107 0.9525952639183207
Ni 6.147792861451522 3.9416239758284637 5.352724803716852 -0.7059256835070811 1.5842024392174845 -0.700800960686006
Ni 4.779958524423062 6.511182874658641 9.12740859430699 0.7320637753550296 -0.14261523570178664 0.8409888178932226
Ni 8.18039957430799 5.0429031794843775 1.3043954558091109 -1.104968864558452 -0.16520417674589616 1.0329332388474404
Ni 7.440112655955067 5.869378695472085 10.441329232512064 0.3254399537429234 1.9175760459851878 -0.15154493409124867
Ni 4.337878599304486 0.3443322423058323 11.317601576284682 -0.15198896360720276 1.482818442251343 -0.41984083452301246
Ni 0.035129028204614436 0.9817260833706684 7.769370688429673 -0.66607024207304 0.3000757639465219 0.8321357383779668
Ni 2.2976343361742604 6.018037825527874 9.371448229472493 1.533166812796908 0.556505509068319 0.18406578953708946
Ni 9.227456799838558 7.702520368088045 10.621104205264986 -0.043914184884446955 -0.39223412854933737 -0.021901428058781636
Ni 5.631688873316 2.7762171227830588 1.6477667554259539 1.131628376127509 -0.8613247012370973 -0.4586986879304745
Ni 0.473737339562392 6.297692514824504 4.728608265200653 -0.633557099936683 0.3007319094732821 -0.32416442946460944
Ni 5.688891810457284 2.947400082918917 7.383441107160104 -0.4622617226913846 -1.264330723590958 0.6050433087677064
Ni 6.700779274181779 0.9113208305379815 0.18727551000358583 1.0720790558089666 0.0801274015802104 -1.0327514618539375
Ni 0.9180122503414643 2.0321160581116064 1.0894692365235077 -0.014623149229813526 0.8717494961148469 -1.4896624617563698
Ni 2.040392385317353 3.491323269324313 9.001588053978915 0.10370750289299559 -0.28620851904612643 -0.21119838408782338
Ni 3.2113260474699508 2.597979843485257 1.734171981759414 -0.7554708414250602 -0.47004110952648726 -0.2900898563784036
Ni 6.149551812423661 4.4942771136376845 9.08741097496423 0.9273537157427126 0.42138041109599034 -0.01741511015265388
Ni 0.9661177079021129 4.56952318469843 0.64775776534541 1.846841398473787 -0.629056383852852 -0.7348521367334442
Ni 7.812158559472446 3.0103983006315618 13.309850547730937 -0.05438474539846763 1.4994455092850627 -0.4202149300329795
Ni 7.886691792507641 2.747101855375819 6.1224982207085015 1.9757176873229265 0.40680534149529296 2.7091166365496115
Ni 0.5467078835233924 5.01276031440394 10.210988122364844 -1.6057485408193763 -0.78073552952912 1.1427576532714512
Ni 1.650016361142952 0.9355767644437714 2.925551134553948 0.3391171941196998 -0.9752770217865525 1.0277324113727915
Ni 3.564921481053266 8.463701772462633 9.181525035374005 0.014881545097522757 0.9435434381286977 2.1384088678389817
Ni 4.9497620966912965 7.958993935099229 12.842826846300095 0.984784961276988 -0.20965315108789054 2.2874901708810866
P 9.024696040934467 7.496954545265227 13.560733427941729 0.1996975825370754 -0.03445303947154712 0.41667374964894044
P 4.400136206081493 4.260207027429527 0.8929777491895857 0.3339276794989604 1.3277842640599133 -1.2827948438334167
P 4.083765729650645 4.240858566736004 8.7592694134751 -0.21215663423603462 -0.1657919309285661 -0.46591037518756534
P 0.9417053199361698 5.509525099482635 2.70896224371784 -0.6072914813719348 1.1634000121121513 -0.8966012650512042
P 1.321157332809921 3.1779985553662735 6.919276163940824 -0.5481483953528754 -0.8424119234929943 -0.390997685039075
P 4.161465074435689 1.2596866251520282 3.2767942026529453 0.7470461076964747 -0.3387574967874359 -0.6323522809953045
P 7.466080326885849 1.4632342831752343 11.849703686393639 -2.0632984598573882 0.8746882670281969 -1.3622416744068346
P 6.685393081993916 7.378660463570566 3.259586107563414 -0.2420801612683444 1.073981157927686 -0.9057965583972271
Ni 4.368262162939004 3.405032837685877 3.7351731229375598 -0.32756188518193263 -1.1898011278134994 -0.4775878115254937
Ni 1.840566297245724 7.694493997073076 2.5429404160397038 1.204724324782235 -0.478402337006989 0.6549743892701946
Ni -0.16835567788906244 0.6354414054857623 12.668431486230912 0.9972555829401729 -1.9608011752224102 0.38970801969337404
Ni 7.1129292598639156 3.6801420273650334 3.197841373859335 1.1227572988901244 -0.09693624560743305 1.4871435519892582
Ni 2.8004258427417024 2.4152896409369347 11.087328046885336 -0.4277693453414697 -1.4479193163813129 1.011396393216929
Ni 7.68194989935072 8.171706653450945 8.830390281624345 -0.5916820569694519 -1.3989318307390164 -0.7504672175628817
Ni 5.466236390294636 2.7397790647497056 10.474824287839931 -0.3880440017273898 -1.0109672760993105 0.7990024461591078
Ni 6.721784851843791 7.822054973099899 0.9601733793799545 0.558915146951076 0.2771988593483484 2.1237062715214847
Ni 6.982202172087244 0.4047429505620942 6.939979942646564 0.5895580686479137 1.3271836543614368 -0.2835757094089697
Ni 7.779895695588748 3.3000604951959898 10.644788942986667 -0.7988924029438047 0.5306157857857506 -0.011041859636458403
Ni 0.8048385675030646 1.3275636174031833 5.453316432522444 0.05660669275045089 0.5503693142635941 -0.6452921289854242
Ni 2.2518645803518775 0.7563581756562494 7.19683677581694 1.6935108332370252 0.4059350230751977 0.21614364390824065
Ni 4.70815629421303 2.4691320559577634 12.740948405993834 -0.20001228556401682 0.542027370056802 0.8665021316729786
Ni 5.945467211472118 1.6701794938656762 4.957458895839906 -1.2394846110815556 0.5621699064429481 -0.5138640202487086
Ni 3.146105996950394 0.19137849458701628 4.945021260939548 0.731920564908946 3.0124466457673735 -0.967247980834489
Ni 5.637641533711185 0.4048290465833621 8.958893685066766 1.6564499238289858 -0.5162338060324657 0.7951655889115209
Ni 6.121954797434477 5.798779958032463 13.495505971312816 -0.41939089146978736 -1.06479203522925 -1.8033339621094557
Ni 6.460728754668351 0.5409440789167953 2.6337624608405705 -0.32394382881337114 -0.27236415696386646 1.607026893311168
Ni 5.642501792976304 8.666055195352122 5.109091578802279 -1.3547034570482603 -0.20715378170480453 -1.3239425217163197
Ni 4.697093418361949 0.5759555351353774 0.866261135450141 -2.754737005491888 -1.0278509392285267 1.318404108396594
Ni 7.574672405323663 4.804787506040302 7.116434201116819 -0.2694307853671553 2.2994848813491173 -0.10749936583526003
Ni 8.781238711117108 7.401656433122103 6.619412053737992 -1.6765592929843514 1.2568362149861259 1.6389484246101127
Ni 8.403471588121931 0.7092590232043977 10.063054791025978 0.5291379156886435 0.8623752539887987 0.7247245613811389
Ni 5.998170937179405 5.465680932092908 2.144002929449336 -1.3119971764289857 0.620578428288828 1.6763019255579068
P 2.8430665173610175 1.3132142805252114 13.370877814591116 -0.21278038386296255 0.45574937549416356 -1.066328012257802
P 4.374788796809307 1.2290253324166456 6.591079982395188 0.34952964770227546 -0.3713534284455862 0.3937441374359606
P 8.65189101120806 6.074851941927947 8.62067148297994 -0.030843467743417848 0.5415568581782867 0.21161670257216458
P 6.08940494681322 4.691362941247455 11.610447472108683 -0.3080073600887728 -1.025955779088343 -0.22246547236121042
P 8.371773440076657 4.651305147266175 5.017334512695171 -0.8998076878036438 -0.48986354356905304 -0.217737984978554
P 5.742512042197421 8.116429304742319 10.641889451173645 -0.08155590649662083 -0.8176475720641209 -0.7353499023054691
P 0.8323846654904231 8.541928802539317 4.398976224203551 1.0853176659864279 0.3541941430574803 -0.35174748128920064
P 4.68281814257754 5.2589208741363755 4.490950844773003 -1.924979280427794 1.2758742054541832 0.2736715629213803
