# total energy = -340871.5284228401 ev
CRYSTAL
PRIMVEC
9.19844872357148 0.00000000000000 0.00000000000000
0.00000000000000 9.19844872357148 0.00000000000000
0.00000000000000 0.00000000000000 13.46285950039423
PRIMCOORD
 96 1
Ni 6.09748610687521 5.014975863722579 5.045449404599338 1.548740755975765 -1.0715812902369417 2.776000799966671
Ni 7.0355439107967745 6.2765707056646685 11.371404741933882 -1.5399442407300576 0.19468418848288405 -0.8597175046509774
Ni 6.975257277663788 4.483185945914015 9.454494933712136 -0.025144360476111533 -0.6003932115902046 1.471019392733886
Ni 9.239841773281139 1.7493609840145417 4.724319600617705 0.7494014953025286 -0.518111739781469 1.2423812159030603
Ni 5.761052843701733 5.341953121577059 0.6301470906441445 0.2833520234339378 0.8761597093674008 0.08697964861535343
Ni 6.684236755988259 0.32505570190979216 1.3996525195994527 0.2127780698701174 -0.1724775704788578 0.17507078512733076
Ni 8.377588385540372 5.254595453761378 1.7515180202473286 -0.002206777843331683 2.227220170346435 -0.6737706960410913
Ni 5.388966393158184 8.140286804587554 10.869737904104554 -0.1707906696947381 0.1524949567093438 -0.973560553316078
Ni 0.13989000864913845 2.0420188295682626 10.04768173741828 1.338058906513044 -0.45339038834368367 -0.08375908479552671
Ni 3.1873084854661835 6.103787044271624 7.710839747459629 2.316620512588139 -1.3340433575957475 0.6769863747649115
Ni 3.0865026855723183 3.4889716123499617 2.104904944319098 -0.4165261683274826 1.4160098692672258 1.5112831253499392
Ni 4.59430320686099 7.113086833792055 4.657880125113242 0.03183154268830002 1.3274806167765654 -0.08521227230228551
Ni 3.413148799271658 0.6188642734026246 9.951220364870876 0.747316587749042 -1.3274790741146685 -0.13888636478697372
Ni 0.8477290371583772 0.24567124947398244 12.24266709038421 -0.002679860825008288 0.4993465433588239 -0.5047859692068403
Ni 3.933900578575555 4.642493879882613 10.245734457383131 -0.9009412871874548 -0.40344413833254394 -0.6229271310266626
Ni 4.776910811523188 7.039149702708298 2.1495339779832148 2.5479748027985476 -0.48073587023617204 0.1384356504028003
Ni 1.9253457055739394 6.86727668774189 5.213074575931201 1.0246054357080354 -0.483141137243555 -0.7687845278148308
Ni 7.806042772217502 4.743170901493924 12.913372901118873 0.331207709464636 -1.255782834020947 0.11314062328143741
Ni 4.442473611729304 6.071960411583169 11.964591545640028 -1.0535640277239144 2.980417128135654 1.1223857744833188
Ni 8.292631512849457 4.052431789218164 3.8848700871827027 0.2766560994710009 0.1499948159953094 0.4029669415858092
Ni 1.364838230755735 7.082980311020577 7.576682212073915 -2.414635593082048 1.2408624652656888 0.5197950410211629
Ni 3.3039540141142454 0.6111992060560093 12.473473646671907 -0.07309774842693863 0.5598070626377262 -1.3138167461362276
Ni 7.8021886221896235 1.8210812889486114 3.0098372945881575 -0.30755124638796066 0.018828445560412733 -0.6293898559328709
Ni 2.16118473317489 7.132283996341421 12.620596395576229 -0.2597814352028494 0.17682093504921803 -1.5932298395270754
P 1.1840795142930693 8.60289518931812 4.04701666243675 -1.4492043537413235 0.5838455916441687 -1.6892075778759814
P 1.073247405257465 2.714894554363971 3.1457314970986068 -0.21140587211293912 -0.11407084840519066 -1.7007454033122515
P 7.853515966236321 7.777904717479356 2.026846908193599 0.8839339539961809 0.05666557101284435 2.720457515483728
P 4.0619061914346695 1.8991485235228645 1.0300248144078177 0.7876592532321467 -0.22141826204361864 -1.349741742167611
P 6.879896959432224 7.286266028481517 5.29794498320383 0.1596739909562863 0.4144885690721636 2.9897869993863284
P 6.894402913117107 3.838034345662528 1.9209746027260912 -1.1855971170344808 -0.28026078610312377 0.8336935697833899
P 3.2335858811469977 8.223017652680028 6.456128104720077 0.9792480906191587 -0.6147551367388316 0.734723838685696
P 5.822176535671323 0.9764613274690487 9.754447149127689 0.4262459667184078 -0.21499358946419747 2.4903630658223497
Ni 4.465662901037858 8.909626661465293 0.7502300795915344 -0.2642302150028224 -0.12181578245793213 0.9041531092565332
Ni 1.6281438263357972 4.5945607634261 4.07894999713075 -0.3488097388171154 0.7084978151096314 -0.41673391346291455
Ni 5.57012984136602 2.2353334285799864 2.5703022987118445 -0.40238535805072634 -0.7265248478146713 -1.1681274994948077
Ni 5.996358361274959 2.9336704595264584 6.325604876437022 2.037745808199265 0.6830719188373592 -0.374462149277897
Ni 2.729244134420037 1.1411779493049328 2.8139526489945976 0.4436029699396167 0.3961324351624791 0.9513014848075618
Ni 0.2721977359904465 6.568170729611692 3.265847600461511 0.2357529334987359 1.2132241347231298 1.9258390573249287
Ni 5.110860493533115 4.836001646318168 3.0897396196888116 -0.7101572050899254 -0.12358135899878715 -1.6941682643153664
Ni 4.004976992096853 0.7487932818961771 5.050753230150828 0.013322171030202863 -0.754896714089145 -0.4464820912596247
Ni 0.9776847211533158 8.305417356617363 9.892939913411112 0.8351076765220972 -0.4677302020051235 0.969339316145879
Ni 1.1067665525166352 9.0194009488942 6.0075050414749205 -1.0309935986225662 0.8987409371020264 1.0652571477911268
Ni 8.0153810689585 0.07795041427507851 11.046061128578092 -0.30636751049250466 0.12351296765469696 -0.7962084283537384
Ni 8.885177184677456 5.915430409138247 5.523972945363883 0.15122534596830084 -0.09563243919434497 -1.0142832278464209
Ni 0.5005308294082242 3.197252008569137 12.457076491923225 0.24247662537581463 -0.9552440143950773 -1.2205787753159882
Ni 3.2772693142792146 5.851915120492645 1.0640719526254612 -1.2728073936034014 -1.183126286896485 -1.3851651159722274
Ni 2.276570074343669 0.4486120251066506 7.859173012219963 0.35512128285744 0.33383511978515407 0.973738216544523
Ni 7.600843777415754 5.27200811725249 7.208365285829709 -1.2682449710436996 -1.0185196345252718 0.4583253637514559
Ni 9.17618850790423 0.2565051824163125 1.0343112915271298 -0.492898473740635 0.1362486700538105 0.18031043625971527
Ni 2.4072248404439036 4.79219863335215 12.088153387906138 -1.9727583475842863 -0.1898721118062214 -0.41237409383232204
Ni 6.94491159522471 8.62545898411141 8.81467291466865 0.5382465628581311 -0.13400692520748536 -0.321530077165556
Ni -0.16050465215147827 3.9372856077169858 8.595013038580914 2.094877263104934 0.3475570973569369 -0.41561394092585846
Ni 5.425760188173739 6.5484308585858475 6.927906423013395 1.07119819586591 0.04935206807056662 -0.21608116610142142
Ni 1.7266408155924367 4.7970186204991885 6.4502447768970885 -1.1071738426295705 -0.9406339777913865 0.8747096071844356
Ni 6.939972028243871 6.309767907217452 3.5439902938815955 1.1647768378550198 1.254287480422343 -3.3598929285780583
Ni 9.216753666908879 5.284113275812607 10.988372137373206 1.2493000545100807 -1.1373153992099574 -0.09197375939583514
P 2.278667320659556 2.061399961092706 10.955886895753972 -0.9478857742577933 0.8224565634169899 0.952303957930147
P 3.8192419148583334 2.7132020397932552 6.4916028421843235 -0.3827256748382699 0.5478208368101275 0.6207056978953116
P 5.79113177112695 7.573184042012811 12.92594718056544 -0.08577534389460713 0.21356816987158056 1.1615848132802833
P 8.341797221438991 3.368416742981497 6.096090702199246 0.02322734595905677 0.48726801492773497 0.481121792820681
P 3.104292485462339 5.886712852128606 3.1940500285579083 0.23136534595400154 -0.5200223265406205 0.9282032082272014
P 5.439613051997095 4.339441787236998 11.867268278444383 2.8364782885264375 -1.7248014158201905 -0.9471946617280396
P 8.023862038709586 1.6681294830689513 12.981104758673258 0.54675408610851 -0.5625064638467603 0.2732763843654907
P 1.120573424096222 4.739647895621185 0.4626203427139476 0.14938520743576852 -0.09870310769986872 -0.2224996680332555
Ni 4.584654034118161 7.937194254550446 8.629154000975847 -1.2183342022561858 0.13653560516661004 -0.010570576426994698
Ni 4.974935016296902 4.469526249514491 8.238960404060268 1.9251098924683878 0.26284053374414734 -1.5580412074410843
Ni 2.696203306496069 8.025756919152887 2.6779379468054723 -0.6414174765213663 -0.6760430370150357 -0.8485254925899
Ni 7.577452122234615 0.8886906493043186 6.437374307400648 1.547643409146528 0.7064684433844285 0.5906178773709957
Ni 7.287783772525908 2.754576662288246 11.139062044704286 -0.6395989352553887 -0.17184919286623954 0.5345071504203568
Ni 6.147856812251504 0.5614696325578611 12.397368441216857 -0.6524228264929344 0.7753518966197035 0.6331398098936063
Ni 0.9853930212090746 6.784886182253309 1.1477171265240722 -0.14384088057877165 1.056576332187677 -0.5099793404823217
Ni 7.92388409920357 7.205154107369727 0.09102876871335738 -0.6787473233200763 -0.28081665860659377 -1.3696850180587572
Ni 8.34732548914008 7.681624554372404 7.156923881018462 -0.8064141652421467 1.1151506901874602 -1.5035459046066815
Ni 2.3678738766747682 2.534779729314077 5.011267049185012 -0.2550603755780962 -0.15411578014221847 -0.6958348749299823
Ni 4.700103764428217 2.3665860938492234 11.081763987571437 -0.18264628348174353 0.333924851285483 0.2815321966163796
Ni 8.879658115425123 3.1255684974300832 1.257289967925269 0.9236544125142544 -1.976190770304603 0.0034689323852069285
Ni 2.947661300081123 3.5493870237655023 8.318997026512728 -1.5870671623597892 -1.183713783968839 -0.004799992491804636
Ni 7.3571032823352125 2.3024637075858654 8.574198788740615 -0.20592325173181308 -1.126347587344544 -0.07398375057631773
Ni 3.9783106891593296 3.7942129357990027 13.312331699852034 -1.9780854162241543 -0.1695583399495338 0.280759065895781
Ni 4.609103510905997 3.014717991496971 4.38271312986504 -0.260040602401507 -0.08225164701206479 1.1077487412964342
Ni 6.01079072736981 2.9722855473952827 0.07425355772089068 2.20411957977323 -2.2139100835010903 0.08565913003171699
Ni 1.069788788526003 2.352356093626958 6.859125022456193 -1.303560358515542 0.07016771926433721 1.3428463005993583
Ni 5.553177100312604 9.05129197072393 6.6072484994528375 -0.2519565398417919 -1.3922819295226667 -0.21266699821354984
Ni 5.0793650049998 1.7596816435164049 8.015908140072098 -1.7210648315958939 -0.0869030297411471 0.20638939273495424
Ni 1.9238647553245631 1.9263851302831287 0.6997931453842123 -1.1484948128655446 -0.31306394867607373 -0.6348534501506035
Ni 3.9026442497098413 5.0856107517036895 5.510725339468533 -1.5657689151026455 -1.2736607427426323 0.23791677391927413
Ni 7.9567869503962285 8.876907779247711 4.144070415083904 0.5642041632641573 -0.6778127273209488 -0.11523967190231121
Ni 8.58801209923433 6.457918122847582 9.068205158447705 -0.14755149666113945 0.02332813320297918 0.8105395002644299
P 1.71349623232313 4.953254272583987 9.474851100804491 -0.28287405535625476 0.5245970903954966 -0.19908745975690229
P 3.135410837596744 7.652014747833636 10.764135113185535 0.780287643358424 0.8236153596117816 -0.9942481635724166
P 4.791352376066793 8.890466292710942 3.1122224681330657 -0.3775163627231885 1.3049808930121525 0.05008174714773956
P 6.2972580169121635 1.2650166648785355 4.730511996318822 -0.2682835591365896 0.29177598583157494 -0.42854324739301686
P 6.207048829982778 6.368840345114926 9.183205084613697 -0.5648297126632982 2.0275079325213405 -1.028635897023667
P 9.233034921203263 0.3825303692587146 8.489652166864124 -0.9390131543585118 0.508032501168596 -1.3869692590605016
P 8.882316467114997 7.336250399010147 11.63313556308728 1.8453445022132864 0.6998702213416205 -1.039412675924197
P 2.0744985521182437 8.755598637081427 0.5310595609775053 -0.22883563755361233 0.3281079874933897 1.214681950215579
