# total energy = -381160.7756657263 ev
CRYSTAL
PRIMVEC
9.34857209707121 0.00000000000000 0.00000000000000
0.00000000000000 9.34857209707121 0.00000000000000
0.00000000000000 0.00000000000000 13.68258023222140
PRIMCOORD
 96 1
Ni 4.768342031083009 7.5214497700471545 2.066151290031454 -0.5517538533159465 -1.6076233892445864 -2.136284879517443
Ni 5.41022433966216 8.707073077357595 3.663552087244705 0.6826353455205728 1.3513497100846792 2.393333489170162
Ni 1.3034246642729959 0.349541240898221 8.47519576941214 0.6399203231505495 0.8752829631894021 0.4555989659592282
Ni 1.7408537011458503 3.271869353058983 0.9100217928218894 -0.8650499726074844 -0.9355529637240532 -0.15187634928873842
Ni 1.0387572397061478 3.0433341596373036 3.4518957407396105 -1.9730781928175505 -0.9703227631050707 -1.7130782138459917
Ni 2.5575075650313215 0.3122750279579919 13.217181371189177 -0.7092616898588495 -0.26617396899275453 0.5363611729099601
Ni 8.12883584759767 7.7587632726655515 11.371865790602389 -0.31102892052391595 2.3633703671491686 1.8805647588681613
Ni 2.769364905836447 4.038835556262288 9.414545902608834 -1.2349949507413183 0.8029251782522817 -0.43766295030609786
Ni 4.7305177083887395 7.880173178456574 5.816779717192992 1.6370406660644385 2.4372759561893833 0.14523596115408535
Ni 5.383534166332417 3.553429647400558 6.299638140158977 1.4200719551517413 -2.292416918758742 -0.8254868656028816
Ni 8.295333916600375 6.310566620937425 4.47122103849017 0.7008534111904963 0.3611471773365458 0.5270730627398149
Ni 6.213145151140839 8.532077156321009 9.197307523706126 0.5936749190297648 -1.05900551045446 1.6852797035764848
Ni 8.751432051945908 6.3472597664082615 7.091954866310885 0.500128415830171 0.2765648253087753 0.36461739527333337
Ni 5.867285377933424 6.532997196781407 4.226726897646003 0.3308809222528366 -0.610117123746188 -0.31670823029688033
Ni 2.4518500032194988 0.4101648612165105 2.578797068262083 -0.7858936766912916 0.42208592180344723 -2.5733806444661615
Ni 9.20700666725415 8.257079559589759 0.19369493493996812 1.565414102866388 -0.5389605582060201 -0.49419456684423924
Ni 8.31922886687387 2.820791400928186 1.4626271076131674 0.6554628988708389 0.005490333690609899 1.3067780941218914
Ni 7.570296059240816 2.916044001998852 6.9174880744548455 -0.12737630726484517 0.7886496421698741 1.2499577426987376
Ni 1.696522772273822 5.778081303007888 13.241015555744056 0.8631712675275328 -0.02163686154348532 -0.019574322587501775
Ni 3.805027768179322 2.2776206650946587 13.09361381495875 0.17201297213761343 -0.43829261347029674 -1.4952597533384893
Ni 2.4297593273602405 7.551421292182059 1.2236355363038112 -0.8284737161453474 -0.34491117509365765 0.397482007211838
Ni 5.475084732853668 6.61966780866934 12.472246947840937 -1.0744778950584464 -0.4522344203623695 -2.037232358897956
Ni 4.814673554383256 5.71232344689531 6.142971964428037 -1.2555596622665475 -0.6557017543545224 -0.7575521494341211
Ni 7.439546929927407 5.538346520217021 11.472911701800005 0.4351270712581216 -1.015559266345367 0.8690626933113031
P 1.6980559380973168 5.718886144505635 7.64542866344974 -0.07805843486632363 -0.3327804532683946 0.7382426504722318
Ni 5.5140776270597485 0.2678515482222282 12.728261334077134 -1.1838883618734901 -0.7451900283243424 3.171288627740667
P 9.242989321245807 8.84260867558338 9.869423114438828 0.518335682866817 -0.37397132568440755 0.11914234939082707
Ni 5.551995435474963 5.134572342884296 10.242902309042178 -0.4165174265767343 -0.36439139530545633 -0.5576956727216783
P 4.420547103452037 4.153187290121979 4.642321409534988 -1.2520650188497275 0.1878085444089733 -2.532788581976412
P 9.000664983984768 6.4672486892409236 12.85765772500847 -0.09089543872999184 0.4935687603347822 -1.816104888621879
P 6.623846620395573 9.058027822356502 1.9146034575222435 0.10640973231550704 1.509219043732059 -0.6328544174427037
Ni 7.606213273227811 1.0281840046672899 3.359237368425163 -0.10054298912208491 0.6333925493343607 -0.19073060315177476
Ni 4.076061570342511 6.227326935008167 8.20121529732477 -0.22587938313876582 -0.7384704502123218 1.898835275042575
Ni 8.13676343673379 6.6415902102308975 9.509092686486367 -0.42228903895318887 1.3105933541029235 -1.8303246317656865
Ni 0.5779109645938281 9.155028606408836 6.419059604665502 1.0805040466478681 -2.07041913006257 -1.423862275432109
Ni 0.42594151148315645 6.290411099501723 2.572735454116022 2.2543748763843565 0.2587632783509801 -0.18973867155215066
Ni 6.155539249894648 3.4400127707503163 2.684659363802775 1.9935644856963601 -0.11918065882793022 1.584004978494698
Ni 4.373093751500452 0.6088266925102764 1.3909160807908234 0.8809033946999731 -0.19041615723514949 -0.4921253430200363
Ni 4.791498444161038 5.122335062012622 2.5528547806998985 -1.1329360391953391 1.6250492980305173 3.284350832375686
Ni 4.530832208450628 3.316620967675263 8.179501368920919 -0.1655916419923019 -0.37523733688102473 1.9931289408208384
Ni 4.05988854061906 3.4302528614836776 1.314065209030934 -0.37192652734023685 -0.987602633231441 0.6887036632018397
Ni 1.5923703305692107 8.01392319941231 11.66842212944072 -0.7033502094704209 0.061830403043235435 -0.5343045474912476
Ni 2.2022805225852373 1.583414398502698 6.530600222896383 -1.7719207379054966 0.4473737498359585 0.35332022509295924
Ni 1.8654888643094694 7.552636606554342 8.81650746229559 -0.9683828657698805 -1.642627930344229 1.9818220004484515
Ni 2.2243057584398342 3.5596557964154822 11.61018893900699 1.3294999611994394 0.47774310615643534 0.5818573575695463
Ni 9.162806618391445 8.766931984478557 2.393000741884742 0.590656186808099 0.5652428889413169 0.04982232283876581
Ni 8.1875635774952 0.655897687863197 7.544574397980062 0.23950391590073591 0.2763449959884854 2.204619402227784
Ni 7.544288331673971 8.542584951355204 5.287441128630459 0.18569766871355758 -0.28360887663975026 0.22114572510852237
Ni 7.063678240296708 5.0582692974491446 5.836085453425304 -0.2065925098846958 0.20887153572685965 1.4108038995862544
Ni 5.08281864776925 1.5289963603407248 3.604826227061595 -0.4467294313837403 1.3862953729219287 -0.16471695269683245
Ni 1.3993784082507474 5.718156955882265 10.719480361275089 0.05958223043900707 0.7388257766692115 -0.7392921747826687
Ni 8.80983258182013 1.6687294674369304 5.638755793655002 1.4640697008889303 0.9117098385578685 -1.5325317503160703
Ni 8.637370123821146 1.6088331660275914 10.31780119894874 -0.1360270409613077 -0.40361717357529847 0.9970185272287023
Ni 9.106584305815236 4.707894163920096 9.283438722984206 1.8274174854212206 -1.3393624558158157 0.5488420789857902
Ni 7.113104140960229 4.72960154832348 8.361014179564568 -1.5450126563919004 -0.1816846908994226 -0.29736273589073303
Ni 7.5414650629014375 7.194389975321741 2.480528617833738 -1.7015033645241988 -0.3160466854534815 -0.5072004921856039
P 6.359459652991559 9.11032373465303 7.192165950020463 -1.8062231107317925 -0.21375200374761255 -1.894414263156744
Ni 0.5775276731379544 2.5403622838100435 8.831503506792346 1.3103961504904529 0.9569532837767003 -1.464485705380426
P 5.1747712028905655 4.004479553815071 12.941161975528003 0.0618291174916548 0.38630105089435407 0.14432630485562242
Ni 9.023643774193001 4.919527138994953 0.4693656288620201 -0.7682003731765866 -1.3554956139322527 2.2576993127718987
P 4.47281497003228 7.277162232646274 10.096758886060785 0.10560394858476006 -0.022823425652418756 0.80464138961244
P 3.2972226805792153 1.7325708662701402 9.247316775268342 -0.39625456256264013 -0.5942660156465444 -1.6857499583446838
P 4.0825588279481755 8.141484465641502 13.67723021310184 0.5464095582848976 -0.3931748951960519 -0.575416487040209
Ni 2.2312517475060334 4.551127958467745 4.452516415443533 1.6136683098870852 -1.4706823211094413 -1.0046971268198825
Ni 3.9681883969442966 0.3487325894120484 11.182759134846393 -0.7217400248315183 -0.8527801541011959 -1.6023217745260145
Ni 3.8692524584684054 8.909862303231076 8.663221730234016 -0.01550812293792813 0.6936833758046183 -0.3902453802540828
Ni 0.16004101025704642 4.323611759404365 12.010801429257361 -1.5303285720171644 -0.5906371606447054 -0.790167364365981
Ni 7.715507429584387 0.4280430704899958 13.34431914710249 0.07596221445892724 1.1529633901598595 0.235867090479097
Ni 6.063446466191916 1.515543765096767 8.757781602112479 -0.11110816623244091 0.16095491455123895 -0.8976186505721251
Ni 2.8212868752491937 7.499658248494918 6.769730153072738 -1.7923391536608488 0.6057912426773245 -1.4301319104909047
Ni 3.587411706963996 5.64522874497322 11.499866439720021 -0.3055532421213254 -0.06380243916794173 -0.30401932197530224
Ni 2.7662144370406074 4.045332813867953 6.692218337265768 0.6508259143194598 0.06857852040034641 0.15335164828268427
Ni 6.564352307586297 1.1358421609073317 11.157282406174513 0.6829940144115721 0.41760397477269373 -1.5015281028457041
Ni 8.3633821728761 3.8799378763723973 4.512241637983543 0.5699482648367862 -1.0301428205864969 -1.2062453894124516
Ni 3.099528426497228 6.574000033987801 3.8075883420760004 0.07146869746394789 1.1268224700984335 -0.2084982115478409
Ni 1.1423861613734683 6.011477753918697 5.5511325622706424 -0.36563375235298967 2.1225826994400023 -0.39272932301820107
Ni 6.59976469868019 7.770981856393037 0.14217027984123679 1.5922782742470836 0.7059292830515068 1.5929601308054566
Ni 0.7465582703210536 0.6271957018187218 4.111806770602969 -0.7285789021302226 1.8606001428207763 1.2118161986320097
Ni 6.047469756482449 2.260054698129129 0.8118262612558813 -0.8093102558430191 -1.2206728776916913 -0.4651701545874311
Ni 4.305540969545733 1.1921205649161064 6.183417626737599 1.3768481114660998 -0.6910261406874293 0.20578724037458107
Ni 0.7720097578482777 2.1381119237287205 12.631087601441052 -1.2739052546532705 -1.165367163140851 1.5372260704679461
Ni 4.64541765661268 2.6324924618011525 10.570682878676076 0.38373946081476495 1.189068877633165 1.3226981077862576
Ni 6.544523986173902 1.3702576061764398 5.5079776837681 -0.6583587323613952 -0.2421963751312345 0.3201501660988938
Ni 6.532426933883644 6.876688101262903 7.229054480648076 -0.38537493953565893 1.0953544813971396 0.6623380287241173
Ni 2.9007590866243755 2.082525314054937 4.229873627013005 0.8436005444844569 0.8659966527914699 0.9470180269408593
Ni 4.11121220141776 5.640573156070168 0.521241790271504 -2.0792745235706707 1.1872549643528778 -2.0737247973970354
Ni 0.334720014699631 4.108463721221982 6.9077188166161125 -0.3978594451559148 -0.600229946539463 -0.3163341347869133
Ni 6.318755970092189 5.335258140036518 0.7939368336958826 2.311746729435606 -0.8599928697995513 -0.27953984877669924
P 2.294401352004252 5.124008456417534 1.78160880119174 0.37437884553547135 0.8878787975765418 0.43021420733753657
Ni 2.931992665992037 9.104378042800938 4.6229334058682445 1.7630522317712736 -0.692237130276395 2.4193777357527235
P 7.98053944846292 5.080434761885158 2.4636310737729636 -0.8255452296446428 -2.0081133300448126 0.5249084509883283
Ni 1.8620766354949838 1.418888878211929 10.750758813788803 -0.7377564548644326 -1.053378908296302 0.039590617808428596
P 0.5229768852522396 1.2473706259944883 1.2738943947409496 0.4871685132353933 0.14010326791321032 -0.5191944313226865
P 1.3450258100934358 8.024085097279013 3.815730013513084 -0.23209296814864544 -2.3339206944294837 -0.302571276674866
P 6.823775183208141 3.1020244952464546 10.067492246261804 0.27306941056100714 1.0363060119744152 -0.3247262155053504
Ni 7.59400403807242 2.676374659212646 12.983537183117864 0.7561010188098913 1.6903064673671149 -2.418811321726292
