# total energy = -340857.30233489303 ev
CRYSTAL
PRIMVEC
9.34553822677374 0.00000000000000 0.00000000000000

0.00000000000000 9.34553822677374 0.00000000000000

0.00000000000000 0.00000000000000 13.67813985636549

PRIMCOORD
 96 1
Ni 1.5653029045522795 8.203130371581354 1.8391767087266633 0.7381593467298061 1.289035682536806 -0.16049982929169132
Ni 3.021505994738838 3.640825473769329 1.2182460588895379 0.8047252075754979 -0.8279127014355548 0.22210963168368844
Ni 1.3509349465326712 2.64506771114699 4.706907477707465 -0.2318749386005684 -0.9437141593786068 -0.06284367479909822
Ni 3.0480099414187407 3.516212065789843 5.739675441190788 0.11412972666758409 -1.5551021794174185 2.6143637717467425
Ni 3.423065085339 6.579642145439133 8.386135637547689 0.5122557952213243 1.2793115132705064 -1.8402388055556047
Ni 0.7811571006985245 4.020198256394143 2.5932934288456284 1.082836551435787 0.996704081312077 0.23000266127851998
Ni 0.870467737668373 4.004049166174512 7.320909684919806 0.19552931009199873 0.9355601628129049 -0.7628329382170863
Ni 9.307315069810263 0.6463346266565823 0.5603893180363223 -0.259528695762095 -0.8341537972492602 0.2139913734519282
Ni 6.476915988208707 1.6453380947379939 0.07439422325482986 -0.5643404317317056 -1.103233369924584 1.519712744174531
Ni 8.693453385159554 3.0455707559168173 5.996933812783297 0.9422769127114482 -1.9171790676570855 -2.6796787909044686
Ni 7.279202416498413 3.126568536549651 7.558922789446756 -1.9734952257503107 1.57222855468506 3.5943204583971515
Ni 6.118122080967937 8.559569203165095 11.477177110167984 -0.9136245390820782 0.06828927129470175 -0.15472693136365612
Ni 4.58010814831457 3.148287567608923 13.008143572373074 0.24017034584014121 -0.7158521985921736 -1.233440975990637
Ni 8.76683455206033 5.019993291571389 0.9690183083767334 -0.14872057726857613 0.16595879552373352 -0.7849714219873384
Ni 7.991668875979747 2.100699449455293 9.85549631113715 0.014842464329471214 -0.6780035031755162 -0.09360358168977427
Ni 4.342563255257529 8.64226787177245 9.456546494836363 -0.21716540030453566 -2.3318031338658485 -0.9971182860313601
Ni 8.031882727377356 0.7019013284088269 12.221336159205343 0.044202405548827095 0.8495644753773754 -0.6487957712633085
Ni 4.8631471219208935 0.008893214266782587 5.622112307321076 -0.2784162766952173 -0.04882267792965785 2.026642499197252
Ni 4.894407947606462 4.779999867474103 5.734833517786395 0.07742902881244083 0.39464608042493965 0.20709258944956593
Ni 4.424682500488948 5.195259517253651 0.4727795690409951 0.15648248060218212 1.7959281565636878 -0.4075640740381884
Ni 2.8451930687645626 5.826503903182434 5.66425414327442 -1.244011809527948 1.2710202197959917 -0.3578368820163902
Ni 8.798740219890085 2.3102824918542697 3.4907707068171 -1.8002596940595061 -0.039569791872822176 -0.896616948780488
Ni 9.17498224717718 1.4465584946387238 7.929723844323047 0.5364570750578761 -0.5756157475352087 -0.42096954881081694
Ni 8.920409783298284 7.425740457380244 1.0042500532951273 -0.7685464436620957 -0.4382854143814452 -1.5681759818822412
P 7.359106769147626 1.2574982543938606 6.638548008033666 -0.1241781120425216 -1.5601479693714422 1.3380424514528118
P 7.765974125514426 5.339563974476634 7.729257374556739 1.1436757942103464 -0.34897403230912155 -3.44305731721238
P 7.221157277983294 8.847776259463233 0.6984266572608763 -0.541011527197778 0.48311568332225835 -1.3519264085237555
P 8.633641939901665 3.493558480898417 11.239204191455816 0.5976089639768482 0.4851512256950484 1.9834417954400616
P 8.272203245315897 4.9173605897241774 3.323869672486453 -0.6557958567302253 -0.11550603818982044 0.3547137630063762
P 0.6977322837635854 0.6967846461777807 4.164022352947397 1.6653320568099643 0.8744473546619844 -0.886833387031163
P 3.2384533213351925 4.805158056635704 12.005617770898272 2.6538068082337136 0.442212003129361 3.0208245854184237
P 5.90207192605045 6.9585196145329045 10.169956853688173 -1.2510836287730647 -1.5149127516827263 -1.1613516142235547
Ni 1.3645233592521984 5.040170308807606 11.259393357891852 -2.8126590746196527 -0.9011827137742996 3.071790792053645
Ni 0.7093880391582169 0.7292136641535432 10.430019821330978 0.3511131901393114 -1.260505693417913 -0.9301330782600626
Ni 0.5608425766449172 6.693825932651775 3.071590603711664 1.5207671535809744 -4.163043849687901 0.4831748186949678
Ni 3.3864586117335067 4.154923536837541 8.029409897937477 -0.8636669762170287 -1.4342755003456331 -0.5386638529012079
Ni 3.903939759674118 7.1228048326873505 12.314265388613293 -1.6010717041689975 0.6153243789787403 -0.5489199834115772
Ni 2.375336784110547 0.548860661962864 5.926998345861676 -1.1774251227466497 0.3214035788900207 2.1191682744418148
Ni 7.14009407858221 3.608919805939573 12.992468300946346 1.5728451052231365 1.835694637828348 0.2645068657029767
Ni 7.2437454441064695 0.7142019259476448 2.34870106534031 -0.7427469661004885 1.2040108436549781 0.47792102649519635
Ni 2.9059390678546078 3.184258544608551 10.725084633649464 1.708672114358496 -1.2462309286664537 0.7969723031029564
Ni 6.674835798782394 1.2383305552963713 4.739119679194168 -0.026854658298998912 0.7444158691624793 -1.8270806709070921
Ni 6.066759002352723 8.93037212714905 7.719641750177701 0.7925183810966608 -0.3751285792173023 -0.9315091326719829
Ni 2.022785696468569 5.793962738746814 1.1490844025409412 -0.41079697915318925 0.7760319534058635 -0.8077909909850153
Ni 8.980931489468611 8.61099770054856 3.005347558980886 -1.8145668547107974 1.8321724836077027 0.6934643178152766
Ni 1.051672118400145 3.53451997536175 0.14372970661620724 -0.9289362297384841 1.076668474951862 -0.22714025212906042
Ni 1.2150695104140445 3.135773891796373 9.342498217929386 -1.925604058495987 -1.5723316559218277 0.8231877851560597
Ni 1.0283363092112463 2.3307585663167756 12.000229133502069 -0.10197972156861147 -0.4469616019992044 -0.7357309397939716
Ni 1.5753587037862622 5.4327576826190835 9.24811856097393 -0.08451627467652541 1.6068908819539358 -3.0684421872963865
Ni 5.856708683037669 1.0168319515374238 9.508482454950688 0.16418087768770434 1.2570380465842868 0.06790874802683144
Ni 8.777927706048002 8.085021458273664 7.333767276542588 -1.2215215988452317 1.877408472627367 1.2191682681217069
Ni 3.1783334733126907 1.552705118894836 8.962067520366572 0.9412204464224757 -0.6934704884628637 0.19589774917501102
Ni 6.166447859628647 3.598639713785873 10.91765879630323 -1.1919048044200633 -1.4605416331310137 -0.43141516962417314
Ni 4.384851816162522 6.1506912820185216 3.448464389389296 1.8286536718211666 0.8048439925415493 0.08182690076982037
Ni 0.4721468760966265 4.792261213751971 4.939696426312671 0.6458428592825716 0.5130376676926713 -0.07084571916796831
Ni 3.667964917055097 0.35069506373131915 11.236400529959353 -1.4184133365023959 1.2641353197507004 0.6868802368398557
P 5.045244936116204 3.0522060881251147 9.08688092286614 -0.5594759045505525 0.48817381457145603 -0.8241480921868
P 2.0451589152103486 0.9544504832411085 13.478397976959586 0.48159204758888025 1.6189884365484182 -0.23171347332203965
P 2.528912015348502 5.375123747790114 3.2058280470546774 -3.0372745034443303 3.32588957504942 -0.07719402998349931
P 5.165064082936738 3.2032580240162525 1.5377513230265314 -0.38402973836167414 0.16420144651299462 -1.326693859209212
P 4.97319083565709 2.653460004559738 4.62410040085558 -0.9146041293865279 0.047543554106918115 0.778614369421059
P 3.367814262782024 8.691602968571889 2.5946475973484207 1.9007882850038877 0.9382662488901582 -1.2591304103369412
P 8.534373631850208 2.5796676339728153 1.1329222285676606 -0.21895411677384224 0.8432174501134253 0.33109046716048146
P 1.2206301057153641 8.012266442440433 5.992817103152655 0.8384089729811883 0.42737236701336717 -0.405259851385044
Ni 1.9084523806427829 8.448039548835773 8.467712841556457 -0.5336509730676486 0.5945897175345501 0.09445024596078572
Ni 1.8398561293626396 8.264147391282723 13.342806365113782 -0.16202217947348868 -1.7593390445857442 -1.6093061762636476
Ni 7.756656623807845 4.655377113956296 9.68819902598167 0.7622022466116228 0.30821844765831435 0.5099361459492122
Ni 0.7928782748614067 6.382572778852706 7.098955018890767 0.45850482675211357 -2.8537597013147047 0.6242198816961572
Ni 5.502148304656559 5.19374554004556 8.25247294481145 2.0500462228331724 0.22851630654098065 -0.8023631351012246
Ni 4.58501455593338 7.77180574142707 1.0804432926768546 0.255015895493406 -1.314091339953853 0.7257041516855889
Ni 5.441654635101195 8.710770667669378 3.58993714850085 0.5007300539699119 -0.7721035648857347 -1.89106334440664
Ni 3.2566864666005273 1.145847108066358 3.9934017943647753 0.9500863814535381 0.9166281017950924 -1.7879777913683594
Ni 6.55391387843992 5.731039229227847 1.4024064333924147 -0.29031379946375163 0.2433700837243615 0.9426790332458733
Ni 4.533735587163061 1.0075331409074864 1.7639189577309227 0.22013399601455635 0.5175998331420569 -0.31043576702460723
Ni 6.6301828166820505 7.275239908250079 5.729855149522509 -1.093084197305724 0.46493695553070247 0.5906093927305635
Ni 1.5955357210224785 1.9887025182098927 1.780442804037247 0.31673188444596423 -2.5029406453770444 0.83064655542695
Ni 4.059608391496099 5.15667178952399 10.009020141914338 0.762626478633235 0.4379879377456844 2.37438214487864
Ni 8.657370261700068 9.161664855068977 5.402099644155254 -1.0480366701477821 0.6874361093433257 -0.2951222765959885
Ni 3.1604554585035745 3.5939202169334927 3.5264155245293063 2.115125471831009 -3.2140134203027033 -0.3304201805663342
Ni 6.484457837634194 3.3867670144981177 3.2046925641486097 0.5440014630640373 0.4139139275156162 0.49306713810801533
Ni 7.056928133058777 4.6634329679894675 5.5982167003867165 1.9921115552999173 0.9012521335596544 -0.2801764539194336
Ni 5.5786508813567295 5.655050657135362 12.034697347939593 0.93750571657505 -0.2648138554204343 -0.22636455030530048
Ni 5.150251404697089 2.178276763062441 6.9050537897953435 -0.3048718997835846 -0.1753057839562723 -0.05175707796763344
Ni 3.120185533876036 8.201055662073971 4.524058282231101 -0.9016807364566406 -2.728051782891218 1.7580820322501916
Ni 8.221671919611302 7.916110198650053 11.340231329819387 2.0766972497617977 -1.3872981031548302 -0.315879820858314
Ni 4.844297171126335 -0.038972763908508554 13.138250287777964 -0.6359579960686919 0.9520473618346507 1.4943346704210587
Ni 8.64129593578701 6.8044023420723 4.9817289194676535 0.8261466106740675 -0.1855323467802869 -0.05889343190209857
Ni 7.724517317520051 6.974388338602889 8.987508879339316 -0.942098735262371 1.003954078006271 1.218680786962327
P 8.338584604013834 9.221747320938194 9.337805823138137 -0.2540573882348786 -0.6968237212058128 0.12322551832126521
P 6.820542086753608 6.9494918245142925 3.5598314313518236 -0.2555447714136825 0.4333838633147698 -0.4467790536747532
P 6.976827524104812 6.9239224316665435 13.228689865777055 0.17358083084536557 -0.475845117802774 0.14813128042400941
P 0.32117157361972515 6.413730803616739 12.725744768141775 0.09411831654266371 0.4294796431643571 0.5200099852454464
P 2.1372965775224646 7.312575333844652 10.465650620735701 0.7355846440240945 0.5456999338123827 -0.6232122663672492
P 5.753459175661235 1.4225965343822813 11.626829084418555 -0.4804664186248692 0.6998571087154979 1.214964000232372
P 1.8766775503495283 2.0761019925929856 7.39861503240196 0.33363534506952214 0.7438957349929511 -0.8673271986774354
P 4.590705988771202 7.07230154359772 6.148296955100542 -1.0602676649963354 0.42370880211885087 0.9720194340812034
