# total energy = -381179.8388812427 ev
CRYSTAL
PRIMVEC
9.14038906886103 0.00000000000000 0.00000000000000

0.00000000000000 9.14038906886103 0.00000000000000

0.00000000000000 0.00000000000000 13.37788332697544

PRIMCOORD
 96 1
Ni 1.2957232664306146 8.654230007023965 7.433113337875949 -0.9566797184003395 -0.7818709286851437 -1.8836595957434012
Ni 1.2632109026931628 2.4716891559458247 4.489189639464576 0.1724382326004901 -0.9471458107679753 1.297315663157411
Ni 4.059840888233143 0.21655592469509594 2.026990035397363 -0.32987664935803834 -0.6472579944625434 0.7885018037381
Ni 1.4063219735498633 6.665500726017549 3.729445988511876 0.06274391599644033 -0.04439549539623967 -0.6605889072434946
Ni 3.538509660195668 5.466894092904457 12.75998581141183 0.968691655259551 1.6022559542850858 -1.3554979279250978
Ni 6.450180581917703 5.665012024872202 4.515864950775057 0.11601383106417439 0.5368118872941335 -0.3721234738423914
Ni 5.501773817397601 2.375879598257894 1.6699481595715704 -0.5385923762333241 0.38242665554061234 1.2437050769208065
Ni 2.1422146933986816 1.2460543925061522 0.9951351752974352 1.1783522625466094 0.6117145501402949 -0.4839952577137342
Ni 6.493067287190721 7.143607054388338 6.594400381962301 -0.8266466902389378 -0.1308256992660263 -1.3319504796224608
Ni 3.3664052753734914 2.4225412841953955 2.8738635306263873 -0.3464672067268678 -0.577311904290709 -2.127494277809007
Ni 7.854985250890558 0.3180873659083698 7.390183672774546 0.7904653552223742 -0.10822415981642652 0.25263016887004874
Ni 3.0712072716442975 1.034015648063811 11.920710721573569 0.7936075003957815 -1.7669423108542988 -0.42066461597588845
Ni 6.714858826715395 0.12697645616191547 1.9630438738265972 -0.4858418240041698 -0.028354382772976975 0.2671260484933786
Ni 2.7530211895345316 8.079875382292375 0.02332810085204514 1.3945524707243984 1.0500164195819723 0.5901519934781707
Ni 5.359860137502276 4.41841834941398 11.184686380122889 0.4758322622869677 -0.4338610600615044 -0.4668208028169767
Ni 8.5380739433817 4.418537174471216 8.794553259230138 -0.36038870190396644 0.8060660378741086 -0.23704208462380466
Ni 8.502700637881576 3.8255909984767715 3.8756264020008606 -1.3518060808958074 0.04836425023600058 1.8993147857821548
Ni 5.449856407774681 1.0898085826304138 3.850729810393306 0.036013441980131525 -0.01583439592909531 0.5435726030567348
Ni 2.685007554850703 4.303679046069523 6.490694442201616 0.7507567237788425 0.281183040807077 -1.671818692975572
Ni 7.6371149382546575 3.4692163710493022 12.238850187699342 -0.5261803757222164 0.5334612256543458 -0.6413130897330181
Ni 8.73320296814052 7.622819369830318 12.154850012622822 0.8553584563513335 0.5575000117711044 -0.8163699909032779
Ni 8.119444126351816 1.4446476247028393 10.769571042670472 0.9721950404271192 0.1648467934064774 0.6997666058842206
Ni 7.646209625327686 3.200616899362836 1.5918746127343988 0.15868077380508155 0.9044876097778164 0.15688511535723948
Ni 5.326689665755518 0.7047175950247174 0.20183441414251233 0.31380082684209826 -1.4940287091448659 -2.516848256597072
P 6.127780780470585 7.590243023369739 3.2073880995474595 -0.20564814369355552 -0.4735822899105263 0.028308874247022213
Ni 8.73660319285526 6.839871927316219 5.529453657461173 1.0384171447801471 0.3561926615447478 -0.9518722697093671
P 6.187074484031127 3.149842038367181 3.969552125512157 -0.7074182088922075 1.1700455424531266 -0.9902961209032041
Ni 4.958487374938602 8.225902237245856 8.073512757496863 -0.2428962294117365 0.47885125161894954 -0.41897900074334943
P 0.8475553682497761 5.030577623124512 5.306672213805837 0.11979875202790335 0.021548415594737084 -0.688138534726989
P 4.298085127990434 7.8488886114154734 12.026770311506418 1.401048105751071 -0.6927688344101488 -0.6595890052240705
P 1.967477876539287 8.72819403495859 2.546452967919535 -0.04725944720759603 -0.5611628053346723 0.18437997834339856
Ni 1.0522872857110324 7.045338732054533 0.7648339335968908 -2.3925544449122924 -0.370797041721484 1.5246294647498582
Ni 3.891118447347672 2.8919002602758423 4.924760253500642 0.7730636148061589 0.5132922069056386 1.4403990967448679
Ni 2.888701124119501 7.202379755774848 8.793002135213763 -0.8794720615700853 -0.08994310211905156 0.4262176845836336
Ni 6.198344583690469 1.2626807601301118 9.12185687938548 -0.3418001402685017 -0.7433707157274165 -0.32836329803730546
Ni 7.816047193673368 4.9187358230988 6.347056884937473 0.02660680395425095 -0.37779044232018166 0.7742442653778214
Ni 2.9318071987289533 4.850639924913807 10.299779726189469 0.24629265668779518 0.6939379150175855 0.2114228413938036
Ni 5.2049853859792545 6.6790010805973115 10.13838879133543 -0.3388845092836034 0.5853085493429404 0.30591653899801513
Ni 5.794412512201722 4.301631598929465 0.29535247630360056 0.7046236768662058 -0.26431891806188673 -0.4911480667084316
Ni 8.26468490784974 6.988960812590769 7.785393071023301 0.7320959141445456 0.3544628233378347 3.1294737485874102
Ni 0.8780860956480996 2.78345868496487 2.3615977404170816 0.16280328061388735 -0.5206604743452516 -1.1741122563233326
Ni 3.9763708557196744 5.619959047401889 4.939328205517721 0.9140328302640903 -1.2537688889147118 -0.9797057469818676
Ni 5.9310796088006486 1.866458297111028 11.40023046375368 -1.16151796459809 0.09929574697854512 1.0840904784475458
Ni 7.472587935928503 2.119564809411781 5.294177302018067 0.2794989682364348 0.15947550179223502 2.2049377047991507
Ni 7.632581305301669 7.625369538366374 0.6963504829175307 -0.6179461328723036 -0.31053501160663294 0.18977980920273121
Ni 8.3600557268648 7.475311771855902 3.0125122635644415 -0.23656797320086356 -0.14178116983626549 -0.11696873877827596
Ni 6.24155120257912 5.303244567924041 8.465337469692209 0.00043014555888313015 -0.7863485048405231 -0.2710420957183332
Ni 0.5707761624309947 3.759899022603545 10.693477304094626 0.20116722510406643 -0.41790093718782223 0.39592828957147297
Ni 7.586431481149184 8.809406391384583 4.964104143990236 -2.289083226399819 -0.019625487540411362 -0.23141779645849178
Ni 4.762188380385464 8.086090846824698 5.185642494739109 0.7321936160646745 -0.3205743981205059 0.5177291596310696
Ni 2.1775697181207687 8.11247914992001 11.057997846215043 0.4913583829470248 -0.7511130786769968 -1.4384028922504453
Ni 2.0253091178569305 3.609027761470461 8.4478793266676 -0.4763809357015861 -0.8204673009011031 1.9355899660641052
Ni 0.2540050125412342 2.567434730910629 0.1643972088020976 -0.09694344469628464 0.08359864795826247 -1.0784548774283234
Ni 2.2691655564713464 3.1425114463746495 12.30278263868658 -0.004474233721269714 1.3804078037929 -0.02347417186254022
Ni 1.4540805061695388 6.005089338680364 11.91474387562254 -1.134943042323039 -0.0480523754225366 -1.2433952589898716
Ni 6.979692458126396 2.78817512569822 7.629674661593908 1.0178089816114921 0.43738321428214993 0.3072404000157612
P 3.591450793388617 0.06225793171911882 6.557825115306295 -0.7781356300124276 0.2739181317145476 0.7844222343520878
Ni 6.797789576276796 5.692862790210412 1.9696523750866979 1.152844348083492 0.5072583420067328 -0.16383557853314365
P 4.13117248413055 4.40145378739635 8.47443398484304 0.02534567785364022 -0.38572280979338086 0.32543969663260724
Ni 8.016422801728588 1.4356077799639189 3.229661399506813 0.9953971895751953 0.15119886360573961 -0.12827130827528876
P 0.2928196745066796 1.2477088029184318 6.041652722830646 -0.55931469638234 -1.2183226322919598 0.6686683418175193
P 6.894193259250905 8.27032452787392 9.101040557435613 0.5969541040016687 -0.4894238849284733 -0.3279290387133643
P 0.6413801833625586 6.383135828469795 9.808704099840869 0.406023726134262 0.0553746201155627 -0.5469127231735613
Ni 2.3990596248078453 7.04943362633465 5.821559467585538 0.009541878052164212 1.0561808965214714 0.7160149494222829
Ni 0.21343905203991712 8.80261508234412 9.638309881803984 -0.4532821449005935 -0.9525587542534305 0.0793316451517924
Ni 2.9666777828330804 0.737824084048347 4.444413615781513 0.1776999952200617 -1.6689603975911709 0.22057262621387175
Ni 2.437714329965474 0.6923506486832015 8.93229252346089 0.9517444858822512 0.7670616315864531 1.4037076548611052
Ni 3.6825621911212343 4.0117258804417615 1.0172658851881067 -1.2474974540837032 -3.3961719655147515 -0.3207556608933766
Ni 5.839913368733922 0.715520620805233 6.381223659087205 -0.7742710048506989 0.38267836654010223 0.053570477027288385
Ni 2.8024798345115776 5.816623657515753 1.824502083440055 -0.8138094292649531 1.1442193254186424 0.21714611703082604
Ni 2.2473291671070585 1.8011867791326353 6.803630284859374 0.19875527322846415 -0.2726613764893111 -0.7124110341211086
Ni 4.426544155251088 9.128671039398487 10.1665219946943 -0.0803127781181391 -0.24749644718790925 0.7879186775411204
Ni 4.302865551446911 6.120011449805182 7.154906403292537 0.18359399210699348 -0.2670612566937143 0.4100693569585454
Ni 0.1405673005929577 5.009591289938909 2.2805946988996033 1.1036470604232347 2.1752987988867956 -2.1739024327599012
Ni 3.8755523648498142 7.272422556820699 3.340578192163892 -0.5638544932342224 0.0529140743902121 -1.4016690271645216
Ni 5.732550359327089 3.885177194485894 6.0894249660338495 -0.919334702092978 0.8737120191578565 -0.7406299197574857
Ni 0.8123539020631935 0.37818450966360506 12.349203932392903 -0.5267532175065508 1.0039255387611807 0.9499493416550413
Ni 9.216437054750473 2.0792008515077645 8.750473733190256 0.657626739291377 -0.7025691083300223 -0.3366538201808718
Ni 4.469485702858216 2.3077928404619206 7.410932355845677 -0.20745897165004917 0.7326954954017575 0.9607600591173001
Ni 4.848153739100879 6.944501960406636 1.037992631325595 -0.0919984419861835 0.7006760050723674 0.8224694189327963
Ni 2.3408901890965317 4.334235366557098 3.62778749589125 -0.22421562228309774 1.369544378715835 0.4706622880502539
Ni 0.6402943051472061 8.8833155769851 4.539409678846831 1.4664924513978097 0.3287209384870403 -0.9128228691163891
Ni 1.0440243740386521 5.802236685201232 7.491106364079212 0.6189622328416436 -0.020295774134558596 0.47519000071727835
Ni 0.3705550269501805 3.310246725246164 6.659576839894906 -0.6354260348246218 0.5724319504905883 0.27086057583514644
Ni 7.942678143130399 5.863650959013979 11.03851967721743 -0.7452879873547874 -1.1809009971103919 -2.099158149868475
Ni 6.058350385488947 6.307499109344855 12.591504676796436 0.24841073147206252 0.8193429574886728 -1.1190909057821308
Ni 8.41644278671758 5.515009100695838 13.241121264703223 0.1337593279730535 -1.1208235722025213 1.4583795924826883
Ni 0.0976065581688932 0.3575866430112723 1.4579889365136869 -0.8278126855225808 -0.6598286320387022 0.02443242201075147
P 6.894650278701811 3.2987938178064597 9.903405842379806 0.6522976137689799 0.3694065891318606 0.41841592915102777
Ni 4.058570374159625 2.608758429661548 10.008021250847792 -0.44877577238980776 -0.22555053904443736 -0.41996321903348965
P 7.6562914744146715 0.5235203512073158 12.91744363687137 0.3726803747871259 0.14208070335455533 0.15717899244857447
Ni 4.936047719899118 4.654267807248524 2.765342433930957 -0.4192265979777812 -0.5111767032245326 1.3962038902848923
P 1.3747967718263683 1.5809308249630043 10.636621342285215 -0.6910423386373453 0.9213193366231744 -0.563207603678843
P 4.292381525243128 2.453115885461006 12.795329867667094 1.5178900891434954 1.921007183153924 0.9121867781942871
P 1.4175098097080419 4.7642541083035574 0.25040187119029145 -0.3068614194097876 -0.867336711759132 1.2961812924426515
Ni 6.743120909559423 8.4873265035531 11.218532326618083 -1.139467926776586 -0.006424415469105066 0.35977035159367715
