# total energy = -340851.8334893329 ev
CRYSTAL
PRIMVEC
9.50914290165360 0.00000000000000 0.00000000000000
0.00000000000000 9.50914290165360 0.00000000000000
0.00000000000000 0.00000000000000 13.91759183546045
PRIMCOORD
 96 1
Ni 3.812871551827348 2.1500742827936183 11.165513019990707 -0.060100564836322305 1.2348555969499766 0.8291198343697785
Ni 6.852725852467825 3.4502689116873864 6.072899103992475 0.16660542796879693 0.020722063038699792 -2.5580746102367105
Ni 7.61856370070427 0.6905320922294063 12.273618206102892 -0.24891312502977772 0.39439848319050785 1.1228719700911178
Ni 1.0317610316916543 4.479405419916368 0.42754723395523264 0.11277938328727674 0.7920278146134876 -0.5068629063405271
Ni 6.96470552020852 8.914155904395379 8.706775759700836 1.0282206638631195 -0.3097811641597439 2.503532256214456
Ni 3.339297213102645 7.195121563773804 5.709580425386067 0.05904846942272411 0.44258892685280543 -0.12123368470221701
Ni 0.2021520178837567 1.160933229941451 13.463767326938237 -1.495656988776908 -0.220161249708066 -0.33935399272085426
Ni 1.2391174035287469 5.959750762579453 5.927321732272379 1.4304805520795751 0.9263155042861854 -1.201143806519828
Ni 7.56989590692906 5.609034551165362 13.043761794280996 0.8498424116291105 0.3956506104300541 -1.5630178347200696
Ni 8.97590827891203 4.534149556056244 5.052127788843613 0.08410309839850677 -0.9754392583960297 0.7226085434794006
Ni 0.6847952262691515 8.553179327705116 5.9560336385882975 0.16860137535290318 0.08380022244610728 1.6915524239590738
Ni 6.844928355223653 4.904264419150958 1.5012207642486097 -0.9696136528531882 1.687807869314977 1.7859486767534727
Ni 4.21214144730088 6.105697089047199 7.6810910703738475 0.9697157256486914 2.825242567711618 1.8304711846458797
Ni 8.548396228785826 3.792683641279327 9.973903294793526 -0.06324836643668462 1.223901669041634 -1.3705766766350913
Ni 3.5037102952389065 3.084851565225138 13.550557274923065 4.394305580184502 1.7493405386121357 -1.104111144543847
Ni 8.836390133099234 0.24970438918733134 4.240760164015588 0.24438464103180488 0.8272195320232723 -0.3491162143139407
Ni 2.4397417962716297 2.931022159226392 2.164993177216035 -0.5558979573913072 4.328401521292526 0.31905076238712793
Ni 3.3090201018521035 4.737664234129134 10.796126557248314 0.1664241651959263 0.9763792537117959 0.863091563329533
Ni 5.842379410768702 0.4076464995252287 7.1445538432310505 1.9825689059168048 3.2756445628509394 -0.7884336695043259
Ni 0.13793962807799984 0.5572329259259869 8.113177018273767 -0.7244044590375589 -1.0918097014686745 -0.2928764179846053
Ni 6.602340608643075 1.1791147113205447 10.246715852338252 0.27710809940675507 0.7491698389076968 -0.10949299922652111
Ni 0.4390095549041656 6.4887063500237385 2.0021567109859726 -0.09004440358360621 0.20102581443019574 -0.7164011291171081
Ni 9.11412367213647 1.5704349632622137 10.734764057593873 0.9411952496114953 -1.3155712669334891 -0.9383390111096227
Ni 6.64452316690545 1.1548949241487079 2.203753394919657 1.2973454879540818 0.8974132194295383 0.5481108572467206
P 0.9157837202418737 9.011966949094836 2.118146384321628 -2.5355921128634784 -0.8505155264367351 0.7076287822411167
P 4.300985370169538 1.9137910980092436 2.7100610565268153 2.4772080164976304 1.6908096322557784 -1.8496521284497047
P 6.656675851634781 5.626198554245522 5.055189732883398 0.14501124673778895 -0.16449095272895542 0.4377765930658268
P 9.381720464756283 5.504205758946152 7.363449560075219 -2.3369522821669557 0.2077554198445454 0.791848608723146
P 9.35974483532789 8.770273061954443 10.43347637139345 0.975231770370914 2.3052102138686688 0.28441568881176177
P 7.854761303201818 3.727080063855494 0.3012021039135975 1.8141292529527466 -1.1097266909584114 -1.209223498204169
P 7.808470795171782 1.6826238321484843 8.162041651308677 -0.020374707001610072 -2.028701438608809 0.1400374476722814
P 7.88396388129554 2.444410785475152 3.79102714857209 0.5242206808926844 0.10905539746847025 0.14997141895654173
Ni 6.217277372782705 7.493347305934443 2.8186602239378726 -1.0435896901200221 0.5468350758580904 -0.22649181991178413
Ni 3.5163669645462154 3.5241644617903876 4.782683369742652 0.21826377557503698 -0.3406721973116455 -1.0587658836398282
Ni 1.32449048920945 8.535007355469004 13.861086897186429 -0.8710830661754417 0.041513031642122056 -0.4978049099033169
Ni 4.010842399542492 0.22294090626815788 6.0452170378613665 -1.2392439558256594 -3.5182039777485468 -0.8180913444697587
Ni 0.040025884634352464 1.6867317819161458 1.8907323771953501 -0.19891828116888965 -2.5460282205951374 -0.33497154738244245
Ni 8.076181697507362 5.926021832426917 3.4539708210497717 -0.5892351380908563 0.58396437661022 -0.9747404325567922
Ni 8.25101680035047 7.606363470260035 7.350980220884631 1.911306153816076 -0.40645798545820316 -0.61229664789601
Ni 5.247268715607701 6.209517912110456 11.705057038144 0.17531092616259486 -1.1890354532920684 -0.05369080465523656
Ni 8.21939889993965 7.095551327622919 10.227718486491412 -0.32365200860456517 -0.6020981100964534 -0.28211403726177864
Ni 7.554063183866197 7.06707144439573 0.8382813522062939 0.29351765111302996 2.090302756360374 0.5882874294656062
Ni 6.96416349905862 3.526294509818064 8.207454465441595 -0.12196464933097059 -0.802465979227676 2.2105110851218703
Ni 2.7077379728966307 7.972379892730067 1.6590468630421427 2.228556115549039 -0.8202055625992842 0.3537894514198939
Ni 2.4208946748838867 0.8768418779073207 1.9692274997581147 0.3710806344001738 -2.200461671305668 -1.788514894818752
Ni 4.463848461999946 8.81927367573398 8.656157640700284 -1.842016466281318 -1.5245744431422064 0.02175101852384641
Ni 3.101673239157992 4.488828980610239 6.839160109091561 -1.228314196287033 -0.47108420607902096 -1.8475402243130246
Ni 4.797704962909259 9.362987453084308 1.954850626485598 -1.1536051375089165 -0.7844212059108232 0.17628306026787705
Ni 6.959038070992023 5.546435862923429 7.409517554159508 0.17914675496891727 1.250534184027498 -1.233576730237553
Ni 0.896528656620259 6.004453243731712 9.223299093612157 0.2656047267528458 -0.16111226606470963 -0.11712866139490795
Ni 1.5225944649263239 0.2296962014416455 11.765556107615794 0.6287586501067752 -0.5106807374247204 -1.6884989818447305
Ni 9.051353819320886 1.8596650561631127 5.855005650818472 -1.884110824348207 0.011573820880528454 2.9031441652851036
Ni 4.774093760888187 4.020998164245877 1.5936619959068659 -1.4129047479793408 -0.6851583690527426 0.18911080816016462
Ni 5.950460329887311 7.69148931822324 6.93647192378453 -1.071456077512987 -1.0864103848299742 -1.194567438853891
Ni 4.6227937869223075 1.5437618172013567 9.034145123268717 -0.26731836700984285 0.2611479765330728 -0.3966176023290137
Ni 9.16020497902093 3.799073785362356 2.266062054300678 -1.0539702620233977 2.0593263625835183 0.5414699548914352
P 7.526163358360831 9.129652102623949 5.78918906859187 0.8697124110801602 -0.8617324781984772 1.3744796112339233
P 1.5779947319318683 1.0482403764772033 6.066218931048535 0.21543967586268056 0.453055116491452 -0.009429777954332147
P 4.871562476440338 4.151748880230469 8.061416851201233 0.815894079708124 -0.5843135324195227 -0.5555236047710239
P 3.5543750090400636 0.18820590878826557 10.699051520215566 -0.3307929905247206 -2.1510525247449213 -0.8208331688809541
P 9.413547566312678 6.919689237337897 13.734839711317495 0.2667766355737599 -1.3242716229209643 -0.7778952318668474
P 4.035442552433557 8.308385459953017 3.864636473471372 -0.4584750019554427 -0.6975652273575277 -0.20745331522309432
P 1.749397034158943 2.488162352329342 13.824372096137957 -3.609014827184533 -1.7440582071672737 1.013199507863939
P 2.272580571813946 7.940077334024638 7.693798138138953 0.4520115057182861 -0.6115821383274886 -0.3880342315353769
Ni 5.520238174011608 3.517479534274957 10.039357578672561 -0.002065624279777088 0.6975433729806567 1.850344526531039
Ni 5.187589334260844 6.775055172601486 0.43255284682027184 -0.2986773409370985 -0.6248186916224207 0.14668323512357317
Ni 5.8821561558569595 3.974431891069401 3.808424125655276 1.3617279679952097 -2.161577849756277 0.2767856830703298
Ni 5.7014253843658205 9.404941791915146 13.535276082153086 -0.6025069154990977 0.6417218951356626 0.559900650792797
Ni 0.3249245629075438 5.751481513016213 11.768214863993197 0.11811159413346757 0.06260353376383412 0.23374670170198453
Ni 3.390456402338798 7.613343181207866 12.96255276231154 0.09927157860882903 -0.27159745400117097 -0.4411444810967951
Ni 2.0356888018788064 1.289021385891448 9.069663674130219 1.3758798340155594 -0.6293122086174001 0.9093716773429952
Ni 1.7091067953497272 3.1134265398821337 11.497810021451185 -0.9864968017617719 0.28263185743846164 1.150617515635502
Ni 5.890086781102862 9.469651509898794 4.465528727564636 -0.19768543720305312 0.43579684363163657 -0.6260481931541476
Ni 3.1266822851972265 1.1274515375064147 4.175694804084463 -1.4858045214628606 -0.6533165419517973 1.0328357940376278
Ni 0.6405425275798788 2.4628490137147248 4.07629573250723 2.024179896589372 0.750571861461546 -0.9093500800764402
Ni 5.824911115113159 4.169901834180621 12.839020436763597 -0.9231389063304166 0.25206324062298524 0.8852089640538625
Ni 8.279344537289967 8.275093950377595 2.8032535104805465 1.1236628414235292 -0.06105855787421742 -1.523903642327427
Ni 2.6987803602088136 7.097804994509345 10.538275685269419 0.2538059343457048 0.6131173440250924 0.2233288488027702
Ni 4.871619531298222 5.828343915729191 3.2542113035399587 -0.6165639078127962 1.028691947072583 0.6083248077324556
Ni 2.7518603963270682 5.733300031637119 2.5084653235074295 -0.9940098223093656 -1.1931415050406418 -0.15319301121763296
Ni 0.8577094822301571 3.5901959506483516 7.0522666596890815 0.23863873968696317 -0.4031728869490282 0.8376720948151638
Ni 3.3130044327610157 0.49564410866860453 13.584558166564848 -0.019198170195005648 0.439502831728314 -0.21012520562830264
Ni 3.0224525689857997 3.5393125265586387 8.884253453378278 -1.134123374635221 -0.5969687592896881 1.268241885719906
Ni 3.382972706812989 1.9783676879911614 7.041494702520548 -1.0427805639551653 2.2108910941691082 0.09059513388075366
Ni 8.085633785630176 3.3560808504635764 12.07928650740646 -0.3659952494574664 -0.7748194211550011 1.8433812078393286
Ni 6.911254627514019 7.981213886559135 12.236513530192209 1.9732394009857632 -1.4094427575726693 0.961351412844396
Ni 5.269044653033499 8.296204247794744 10.896263538320849 -1.4144628364950802 1.373901113022634 -1.489742680175002
Ni 1.4930685759712576 7.936273676832358 3.923716778810446 0.7247273895946164 -0.3267918397851275 -0.5547193637021737
P 6.087287388236569 6.694874078988243 9.291189619922848 -1.4696623644853593 2.8166034039793812 -1.4741080589615387
P 5.284630138378862 2.0575217941624886 5.541220097998517 -1.0756875990958314 -0.14803280717293213 -0.16702143246029302
P 1.6073970020281854 4.5386093441141915 4.1911300449707305 -0.05174807910656895 -0.04128908855677405 -0.2798090432776858
P 0.8677749100752256 2.9946668531962013 9.531672042247498 1.4403016519350549 0.09322331553222009 -1.1337567353244218
P 2.804693194727824 5.824882587684217 0.2337832310947493 0.9906920707900424 0.47974059620243825 0.6278039995029897
P 7.737523079392797 9.47779133629027 0.5811455677795473 -0.3968747126451423 -0.040162688261814704 0.05882915432306643
P 5.561812147123218 2.1821200946385697 12.425570507277246 0.44403311549849983 -2.1089923623500777 -0.2592731281078632
P 7.064561030648826 5.246774240172705 10.428716094417311 -0.29023563792764856 -1.6872535394734038 2.459599816497564
