# total energy = -381163.75955424225 ev
CRYSTAL
PRIMVEC
9.33941299058712 0.00000000000000 0.00000000000000
0.00000000000000 9.33941299058712 0.00000000000000
0.00000000000000 0.00000000000000 13.66917495406257
PRIMCOORD
 96 1
Ni 4.604564141339218 8.163394198391124 10.033489324425151 -2.0103661306347314 -0.4141021322670223 -0.7127576188272499
Ni 9.08017900607082 1.2476895530613488 9.542026992755948 2.058492810938629 0.4736869338091907 0.7318735137210944
Ni 6.239073505984133 2.9093205733351857 8.581918515609505 1.5725316877477757 0.31133771001358634 -0.8334747689043647
Ni 1.186768561440324 7.505068308712386 6.765859365862602 1.1699748371161915 0.7255645407839311 0.09360666701356783
Ni 3.018320863571117 1.9412904060012572 10.261148725920235 0.4612440800601476 -0.4565723856160911 0.7344497590887028
Ni 1.6838027869622183 0.4768321410553238 12.783535546832091 -1.6263477051269668 -0.4619740162476366 0.3801841393633388
Ni 7.071635486369884 7.551513210035604 3.9300381057052705 -0.473531639178249 0.6416378200622884 0.7055315333924559
Ni 6.7113863050426135 5.363755692447831 10.650146488637638 -0.07192146873065033 1.0080133356773093 0.9406537752857284
Ni 4.702291759969051 8.516881644637355 3.282351675424764 0.8865482516905765 -0.09077048311635334 0.6032103693240257
Ni 2.677647092091718 2.42148566971222 1.0100771390305425 0.8154577635016538 -1.3110497249140516 -2.9351042631314677
Ni 8.756783148817833 5.726591891202516 0.8575561177115494 -0.1616923069378957 0.3575669161844552 0.31826786147451636
Ni 1.0382905720503117 4.642687625594473 10.383911575293487 -1.644017354492588 0.15220030828706047 0.20870312846979538
Ni 1.6290551473972257 0.4793295001170227 5.975561965498588 -0.40651249284522245 -0.648918927104734 3.6566709956099155
Ni 5.085954849926386 6.213894448279046 12.417556635570817 0.5257330037721526 -0.16387517352182746 0.6628522493563747
Ni 6.658011559202638 4.383649663981604 4.551766571228537 2.450466229627412 0.6241651171988218 -3.4769945933897732
Ni 0.40445916109677016 6.206712439608716 8.559487113237072 -0.41644337880568927 -0.2500462101929565 -0.1999600921698427
Ni 3.15548882370265 3.7207474618861394 6.065956276965945 0.4795835017992837 -1.1272639285112263 -1.0126045545924174
Ni 6.618477823569985 7.085700642491494 1.3595617128241029 2.7779445539566026 0.47267391916364404 0.9011276921666481
Ni 2.2131513817940536 7.096011354548771 0.7060988555441174 -2.0067832983794793 -1.68177143331291 1.4517919119628415
Ni 5.195263340794465 5.561629837699195 1.7055029132892843 -2.011587918856974 -1.2151282937243784 0.4276305057707603
Ni 7.386962090708479 5.134015469715102 8.326728392191923 -0.30246740410715 0.37496659971814134 0.7222120793719303
Ni 2.5277775301504968 4.779472669789096 3.7580798978522165 1.9156047811914299 0.4384715622503223 0.704610050019451
Ni 1.6324360149377455 0.2864463372238178 3.792922446287071 1.4334933707639699 -0.9704178939220384 -1.1561237901657122
Ni 4.039959262072403 8.663230247841625 7.002896472046735 -0.5092488900742004 -0.7391872737736883 1.453986091400683
P 2.965786664909724 8.296882429763086 5.289683873247232 -0.2482271547063467 -0.505147209201001 -1.356302168993948
Ni 9.38629694909739 3.496564189945149 8.377919583250202 -1.6980555151849142 1.0696174816423514 -0.4815452535113449
P 9.04478263043941 8.377780425995082 8.858814369002008 1.4601058311451756 0.8871316349978722 -0.39755425521067017
Ni 0.965134949274367 5.165806831891704 5.479261817845989 -0.3800159892165907 0.04615258729666245 -0.3880686843177381
P 0.940581632246669 7.969115727181472 2.284077686664136 -2.3673432357539874 0.17339442586617235 0.4669964091628925
P 7.317112620168292 1.4576302200319167 10.937376402620158 -0.33414930859146325 -0.37437010378472296 -0.4003557292152073
P 3.003461857336401 4.22758807115816 10.688037421506818 2.183998126433006 -0.632421443670343 0.6867316270771334
Ni 6.05618911875082 7.337108303605455 6.091749868052707 -1.0466670434937653 -0.7892237695057892 1.177234089781766
Ni 4.280551882821939 3.660284101506787 13.115327536457803 -0.059038956341027356 -0.11260866203736734 -0.21580862916632507
Ni 8.881949963121832 8.515714218000435 0.5400338173542351 1.1790837413959951 -0.8814880635588496 0.6599211917525087
Ni 7.093209530620162 7.6013203000731515 8.73376896706825 -1.552375781625191 -1.3777528826685561 -0.9169456330355112
Ni 1.6688317077703585 7.068880359506752 10.744586633857907 2.0976427416652133 0.9652666887384019 -1.855546639557269
Ni 0.7231218037930278 6.567746131635996 12.584785364632381 -0.9483105205000376 0.2560309670214816 1.4475228522738424
Ni 4.90156681718472 6.193814710124025 4.1868140614664435 0.3820733859662517 -0.42554405555537683 -0.6937121721600246
Ni 7.192608904194065 2.6251222328434207 3.249381679315529 -0.5925783435314762 -2.1512265884289405 -0.033480134035316536
Ni 7.945795212682362 8.709974010383895 6.138785954224862 1.1144099553666935 0.6798590683270161 -0.15334342075256815
Ni 5.963654213802005 3.42158738161561 1.3311222660074262 -1.4628440560119453 -2.756435990460866 2.445287256529634
Ni 8.461470906742592 9.198154472291389 11.947200443555817 0.3638447787733669 0.37754618751985947 -0.05734434224742382
Ni 8.515228568519477 2.6068636802419944 12.453479754100805 0.3650814793939454 1.1930031796905647 -1.1308925264027492
Ni 2.0573139348848986 9.20087224150214 8.828468747972568 -0.39902903998398376 0.20908673706145922 -0.3238618106225261
Ni 6.58176459069213 8.078059980938832 11.126476169268432 -0.8683152736223174 0.9253719094259935 -1.177683775724675
Ni 3.889809517738322 1.4689122310511102 5.302013766415724 -0.5029481446671532 -1.4401193607209197 0.6427251395891963
Ni 7.189900474396411 0.5761848175637495 8.70597954340301 -0.9729987672753373 0.03255042313219555 -1.2491732991242293
Ni 3.8889035946680726 0.9516301579384784 12.527607609779976 -0.15828045304286933 -0.08398431343245535 -0.05698027403978574
Ni 7.434434327472187 6.963998750445875 12.735378731088494 1.301510932185681 -1.9477060326013491 0.7907870002278511
Ni 2.480931034064178 9.112549411859332 1.4178349808325934 2.1983086295184076 2.0607337844540057 -0.35337164715618496
Ni 4.181815607577807 4.486243116834119 8.054752541618054 -0.1818937215864351 -0.626668857457282 1.1262123473182604
Ni 0.6415028048700692 1.0012878173665005 1.862479768596073 -2.3917736008822095 -0.9170605613468206 0.29927692219431035
Ni 9.158704791376595 3.615940568130024 3.8534091551991616 -1.456097481316731 0.6184832363226961 1.3101776067217434
Ni 3.3672506762268126 7.7637887302800115 12.589693226213992 -0.22330390910210574 1.1219576858069646 -2.009029414101179
Ni 8.558442032911701 6.355358538434444 6.506335754768775 -1.5911883836170144 -0.606718125366968 -0.3166740346248353
Ni 5.167245101508389 3.302649955846217 10.524991815570665 -1.086031918444633 1.003593866453375 0.9350096896260734
P 2.6272889766815437 9.110728226305737 10.912212287976024 0.7150446150892136 0.17821035919757694 0.15811898776434058
Ni 7.405323376853954 9.389752531942674 2.350004603704273 -0.1594017111315061 -0.0673518470820969 -0.6092648030482217
P 5.355340881248912 0.40216353335793104 1.4500811724269385 -0.6700904189760266 0.4691576784802694 0.5384440235809179
Ni 1.805103084244737 2.9179034939698205 12.235073843100604 0.6214975976689877 0.3811084509498211 0.1407938662223317
P 0.6397040339079031 2.2900894668736185 0.3272390257417255 0.9400475091602972 0.13381717779418245 -2.491093259120155
P 7.984675189398341 4.015807539807806 6.615307092824111 0.08287102576361857 -0.6408433491854512 -0.81089148428721
P 1.686324428497965 2.390357405865389 5.1241633228408086 2.6737485414629627 2.1832226817195624 -0.10213758730271442
Ni 7.671384577114533 1.7236447232270184 0.6266960993486874 -1.8175986995585856 -2.897446343569378 0.4408107519064602
Ni 8.734583363890167 6.808843080692681 10.415952299799732 -1.433329591492596 0.3021799547737183 1.8319027748860837
Ni 6.656582628999048 4.482610085140024 13.400111458150649 1.5034978249775655 1.8242781684612905 -2.923290044105359
Ni 8.631635013340027 1.7003055299017171 6.876879771151059 -0.9864898597832367 0.6750745024541793 2.0322917270632286
Ni 6.647532737709645 8.896229925744635 13.68407444543241 -1.0964582559842795 1.4521570086117441 -1.6012938474821328
Ni 2.6691949232404184 7.291559985939391 3.2949412042773076 0.44761414798153876 -0.9859918371008954 0.8214780015538046
Ni 1.6480795318724715 2.75672390277012 2.9584197358601054 0.48195765845841515 -0.2416559292467322 1.3087964101035006
Ni 8.685812948706204 3.3766181075614576 1.4253672174940002 0.3790993909395923 3.2819252536533288 2.12991214322188
Ni 1.8594304502204384 4.7454678667088945 1.345826237984759 -0.24311065941538776 -0.14493282809136973 -0.4406523719517249
Ni 5.867318167723381 1.9385072608988405 12.575053696187018 1.8640377077474157 0.3875056127254165 -0.04914406582481859
Ni 3.779893965019046 1.301017601835847 2.7545982523496164 0.5130808622257809 0.4749100075830143 -0.02043487081558416
Ni 5.3071495096768615 0.878635173067774 10.041376458784184 0.45969601884673733 1.5128571547052785 1.4209157912092756
Ni 7.931057618817886 3.49489243500108 10.31270882379578 0.35384961523386804 -0.2928049413167215 -0.3127019373509647
Ni 1.8783427617385398 4.8434102918399216 7.480278704533374 -0.42089113016439766 0.05916751149909165 1.4693751722622437
Ni 2.8216701814352443 5.486307471085127 13.016786454947365 0.40654566007600307 -0.9251721347103614 -2.2208806012816527
Ni 4.399582702722286 3.2699900282517476 3.9972221077480428 1.5575573258261306 0.777406465155887 -0.12102208291204318
Ni 2.009552176315234 2.587008088001262 8.41537343158652 1.0295296124825302 -0.5224039393989197 -1.246541517928337
Ni 0.5244724872547485 5.50421112598893 3.1339315903959433 -0.7015339821972886 3.046848006065378 -1.1519884278411
Ni 5.830913135477672 2.6976801331812625 6.1025210131755845 0.1825771208067049 -1.7975453804521366 -0.2675947605996811
Ni 9.230683648102524 1.5920710715396054 4.829401172196883 -2.8167268169311233 -1.9940100578742108 -2.132597403363527
Ni 2.7203001916982212 6.790752637526971 8.576559560375388 1.0850669834282023 0.3072455422220838 -0.5992233596518196
Ni 3.4129671033285938 6.200398996356253 5.961031706604829 -0.2560998725862041 0.4712520991154529 0.7650484578111664
Ni 4.476950400804237 1.6564196277666265 8.057650561501545 -1.7073842487850077 -0.09222881282943471 -0.90733382097736
Ni 4.419690459116593 5.95817197831503 10.101001139867574 -0.1902446646542917 -2.0362563681379315 0.7090775988725013
Ni 5.776118798847203 4.775148521525945 6.330564264548887 -1.7533110932241094 3.9341567900710626 3.2115541601289337
P 5.103970577787334 6.450097544873763 8.0217414520912 0.09488656216725594 0.8015234128087486 -0.3803934271606675
Ni 5.909196096042969 0.47951442049631077 6.598315898579724 1.1599084540191251 -0.21293927803833002 -0.9852356756611612
P 7.138365592936221 0.6024379077748028 4.3405641495487854 -0.24180119657534482 0.08006595221465565 2.1601238909185705
Ni 4.456226243145636 7.773352289289659 0.9318081875848891 0.22103285367974193 0.1394358095325405 -0.06562252309581601
P 8.586945921678735 5.088775352681185 12.286975763495441 -0.722243189720182 -1.1797931087581939 -0.7979698911295354
P 7.698282086829166 5.831772361482446 2.972443798564096 -0.1641831916805495 -1.255474558751909 -0.4575856573719539
P 3.747532898643628 3.894049611283615 2.0506633388196938 0.9398996707285232 0.453472920755161 -0.10274796719320368
Ni 0.13776661651094557 7.591943529325412 4.586281306263744 0.6371047080786254 -0.08063879399899015 -1.1315532999151996
