# total energy = -340892.21602395724 ev
CRYSTAL
PRIMVEC
9.06008159847302 0.00000000000000 0.00000000000000
0.00000000000000 9.06008159847302 0.00000000000000
0.00000000000000 0.00000000000000 13.26034522645113
PRIMCOORD
 96 1
Ni 6.467158736838315 1.8918356418521627 11.464960685557909 -0.2564958224730421 1.1305060895976078 -1.2308122801185384
Ni 4.766708259003608 0.40592517861621447 6.210031808612212 -0.11376437290836536 -0.11893331870381453 -0.681364192117633
Ni 2.983466755378734 1.6888988737766557 4.93878910712578 -0.437217378128247 -1.6757619938940365 -0.6749546890468634
Ni 3.437141282126041 3.973806156459028 4.749219583463802 -0.6508451975931694 1.5151125263983585 -0.10440684295286534
Ni 5.329792331323478 4.34347560647987 2.813089202600024 -0.5577722915958846 0.8534553257913495 0.6373906147501603
Ni 7.2701356501378385 5.932758882908867 2.5736874180438574 0.47693063755746895 0.0650540521868557 -0.0013210328042686924
Ni 5.198339607183672 4.395435174537061 11.624469764432277 0.22101614150919358 0.448502207013447 -1.3507146476038414
Ni 5.734950121026973 7.799434678118516 12.305043163108213 -1.587116527540486 0.12811472809276644 1.2702501743991865
Ni 1.9555280155996877 6.4798519111797495 0.20234242672161817 -0.11392609529721023 0.12854255965880443 0.7837126098795728
Ni 2.4942223482142456 1.3730916089519787 0.3611710934667622 1.6698715965515305 0.4752265103821687 0.8319878999461929
Ni 0.6882835281295847 0.41798595926098053 4.934612409501654 -0.16449249539085217 -0.8983113057637754 -0.6333418986020836
Ni 8.721633205378733 2.50262104387057 1.35295285954003 0.14473665292016363 -1.7182343041256343 0.17205616667072304
Ni 6.885091241617772 0.9474852150453306 4.726795881468762 0.45786770738874694 -1.052555383953742 0.07271362561464251
Ni 0.4463358606398398 7.273542240824761 2.1397158507828578 0.8669009097732941 0.5985229911506853 0.7486219368240268
Ni 7.687914133529855 3.8649492758649298 3.9915095559330913 0.48328177658647736 -0.4413486266878012 -1.2236324745406473
Ni 7.696702412695587 3.94105396142385 12.692338095901237 0.6101307505929429 -0.221003028883071 -1.205292281470563
Ni 7.947594192754829 8.964144409944879 6.651548611841481 -0.04528252598688331 0.674352022465858 1.4031317277529771
Ni 6.698480740610976 1.0112138291193122 0.34578163883695484 0.36487656247199096 -1.8546248990739478 1.4577825823286379
Ni 1.9004064790591555 6.5421127920322375 9.295448944370571 -0.7365963731180605 -0.6024151271162399 -0.8992024501194773
Ni 9.332518268294896 4.805277026435077 1.4925714352386767 -1.3098839867407248 -0.04070544813916215 -1.0798617850781789
Ni 6.281535784727463 2.3380809016758612 7.013224351854151 1.149231176810937 -1.8388488671866137 1.3556941030963041
Ni 3.493014805440549 4.374850669109696 0.7868689941977133 -0.24802712288039863 -0.2952408044517238 -0.5928344254063403
Ni 6.0684245449992575 5.6278237160211795 4.946334343094051 -0.5199120262150014 0.947999159907206 -0.8300647147815511
Ni 5.391473366952661 2.885762835251663 9.225023117967405 0.20356580724323003 -0.24454893452381107 0.7190776475080067
P 0.11935479716042256 5.701953303788214 12.548742144373973 0.3986878545944811 -1.044303685467911 -0.06961776029813815
P 4.011940039973016 6.039740326608835 12.667421965454142 -0.12016127757364468 0.7295669770751049 -0.876022412458588
P 2.4674498070444115 8.286450305205921 1.5723318637289094 -1.1550318426531139 0.7055911829857977 -1.1010283918534651
P 6.442062310767099 7.748571379936637 5.712106031245037 -0.5642992940811249 0.34259383981439057 -0.2845036205398777
P 4.748633396183365 1.1336970724611033 12.581044053352928 -0.683853791308706 -1.4891011899362612 1.0042464124357091
P 3.9498060002631257 6.259193623466951 8.055208936159627 0.5609900272022339 0.22077780024614235 0.9503699741322276
P 4.869005640509058 0.8499615905423812 4.002317327290619 -0.5546818255960189 0.9451161819324563 -0.37665221495068035
P 0.28511442634039685 5.507261209981588 3.692860273669305 -0.3519577975277938 0.881920780220894 -0.36381366842511537
Ni 1.6308509308747507 1.0748246621323099 2.7615862626561865 0.00745877027089038 0.03608774686149269 -0.8805704368405867
Ni 2.076534465638371 6.232801605724911 4.941666589046437 -0.5028473574232307 -0.12437994364068256 -0.6803871729163443
Ni 5.872029155849171 5.668050478388037 9.123926197275832 0.38198108336276154 0.24693157582337472 0.5110720593258682
Ni 8.48984913744375 2.4495652059380655 10.241150229346076 1.5109802493975397 -0.7323265420981129 0.04020845389808559
Ni 2.5439531361943546 5.026433618636653 7.026206542799078 -0.5457454423383375 0.7918630069008491 -0.5527079896990997
Ni 0.3599434524080439 0.11167728400058577 9.037827335688336 0.3591851685141685 0.11424619764079033 0.8223133529709064
Ni 1.5134866336449586 1.2297520577343977 11.398221406363543 -0.8339946459635765 -0.6465450275559188 -0.7601826450784327
Ni 4.096842064779283 6.713629197069848 1.7288701418419945 0.8198936877858203 1.032146224169771 -0.20172746848291068
Ni 5.5400677655064525 7.994960299433641 7.946792375531976 0.30934356240169303 -1.2242927338324658 -0.06738938518825169
Ni 5.421498477421977 2.9142205516017308 5.0499236922376785 -0.23214953241819372 -0.08601574204018736 -1.8200325058110591
Ni 0.5213207201112503 7.2634130695801336 6.441823124612486 0.7178610014920863 0.41687969501215943 1.700308058664517
Ni 5.068762319937996 4.479132208488646 7.113167018148081 0.7302421487652585 1.1148416435874737 -0.5115829375240157
Ni 8.15182655250116 7.241723234195842 9.183624887047836 -0.5356417782454324 0.03762526655194165 0.58305652008397
Ni 4.42980006409956 0.31439932814183713 10.572658615608086 0.1823675758990601 0.48347332377199315 -0.9924938998854714
Ni 8.36970339515841 7.432519492908377 4.396612985146902 -0.8278749062190839 -0.03512409739664273 -0.1754860182878784
Ni 7.455133456617314 6.316879163104289 7.013516086482127 -1.9017874156923633 -0.6889787712400973 -0.2843658094104328
Ni 2.1881909114512443 5.501807040849866 2.517185125065327 0.7865266822896003 -0.4755157594878133 1.3194790866283275
Ni 2.3707968563845823 5.208532198999598 11.385570814405694 1.230581909275287 -0.29541075437068476 0.3745084291348002
Ni 1.0855336786002436 3.316044231271216 3.8522098951072627 0.43833040868676765 0.5851126312820504 -0.1524841580760664
Ni 3.803757484642912 2.6019557786881893 2.5097323019295215 -0.7335609287258463 -0.41423325852824794 0.37441741208289064
Ni 1.250680846263101 3.5016128228923837 8.243293512445044 -1.580824266773871 -0.03727071142600033 0.700859067617451
Ni 3.760106011425903 2.612066829769588 7.00729724646217 -0.587001363664331 -0.6634397464287284 1.0044682986385283
Ni 4.172412205522968 6.934695188455282 5.912947202443189 0.3223757129953028 0.7024994314343515 0.2826727379787261
Ni 0.6401509385462132 7.431622544828576 11.340645493713735 0.20892758577577566 -0.15899110595664875 -0.24283426582554954
P 0.05294168090416612 5.627597213980825 8.151797560239995 2.257378181987054 0.23446506792524782 0.41028892916851917
P 8.22205124509249 1.7586524421240521 8.137038687290532 1.002450753987867 -0.6056637159605246 -1.2223281539069273
P 2.066242212924689 3.274096053397668 10.254662435065429 -2.0435822123753837 0.7702060907527059 1.038120953695967
P 4.02136252485174 5.917637606694839 3.881926056793537 0.19885348936922528 0.2388536839112467 -0.4041874442564717
P 7.118406463345548 4.040361515996627 10.336730466342788 -2.0507201089717455 1.172269289577323 0.8459752153642205
P 6.152665183847691 7.790999742135735 10.09937082418245 0.27178694430415773 -1.2792372083891452 0.47375403960170026
P 2.2661347935778386 8.384253886230747 5.910493732342076 0.9918110148858339 -0.19131527201065116 -0.4300666260160787
P 7.064961041903635 3.9235045833372273 1.4851457923477134 -0.07963889197956607 -0.018109308006201072 1.2837682634902794
Ni 5.394843717313127 2.980223246160866 0.25676180693705336 -0.6774247478539108 -0.11432255940468053 0.8740172091031012
Ni 1.3691414133682063 1.103019636115567 7.118232509778556 0.2123396967811182 0.5332869048600106 -0.6434648459686982
Ni 6.774820988291865 0.6386668971778142 9.29027744978521 -0.24655696609277541 0.5264531697676288 -0.3491246989543729
Ni 2.605126807253144 1.538646480287473 9.135581992272446 0.9449829987887015 -0.6521124943413672 0.02878324278027946
Ni 6.321853147910462 2.1441679748880547 2.6796903729294965 0.44462395500496327 -0.3340924872115988 -0.632621218385975
Ni 4.041303764484499 6.974333045517221 10.459216427709064 0.2588566093957348 -0.7187513745168396 -0.21035840468503128
Ni 7.958420990283746 7.090302090178433 13.694489125381907 0.8068003449369717 0.23790854638915798 -1.115200569588789
Ni 7.71957005868972 3.915921295026178 8.173106872196492 0.06971546221826704 0.3103223813751946 0.004223808273360468
Ni 3.0737685888270385 8.344235505741015 12.344054968530612 0.47378412150868726 0.07027390582489833 0.49691273710635064
Ni 0.2531278082016149 4.865309127210481 10.496677147159117 -0.9323306001320136 -0.472875750761805 -1.087967959125081
Ni 8.622497792356626 2.3135733809095655 5.860317188346551 0.048126937414213894 1.021093565900035 0.6319162218991503
Ni 3.5632938585215657 2.5557946628640584 11.516543354219952 0.8687898992658909 0.903366865909812 0.3715238925851795
Ni 1.2175843681265848 3.2844607867642646 12.63238844186852 -0.7243208981848172 0.6826240326666632 0.20110963239325363
Ni 2.978791753265829 8.306627106960649 7.998441182789801 0.4227662356999235 0.47184422417349714 -0.028798926509563304
Ni 5.778800916039494 7.664022698313322 3.5492108676605203 -0.4980404229528906 0.5928110283675726 -0.05366792183710112
Ni 2.992581197482576 8.150087016831241 3.6713389558030363 0.5555524011264303 0.24769030836627023 0.9169921700027304
Ni 3.584449149090623 4.361287726933303 9.163906525422785 -0.03429414529617965 0.4318617702432885 0.4898617437968403
Ni 7.194284646864114 6.1951207262916315 11.383900135356043 0.5280415973006712 -1.2691710824023947 -0.3039535017343733
Ni 0.7481262731992544 -0.1341064220445933 0.06420426835872492 -1.003656087149878 -0.6087508395262806 0.7359304573992874
Ni 4.452558989114323 0.32507663432412137 1.975724749533967 0.2678850381465903 -0.5412418980410292 -1.327823601938281
Ni 5.744463206721838 5.337584001511654 0.6158291494530082 0.6312418215399452 2.0485642389710073 -1.0868389877269604
Ni 7.713590404824376 8.762566654111495 11.382269320665495 0.9958494466212654 0.38055720643204133 0.299929982397277
Ni 0.08941485145827872 4.978877250243942 5.857426116303473 0.4462581481742766 -1.4624252233069717 0.1660953211015978
Ni 7.79234063421463 9.14370616745586 2.421855852329327 0.30011330205267667 -0.8331729213932296 -0.28443137254104567
P 8.668196844018434 1.7080518863089842 3.5534410197661703 -0.9567162280652297 0.04765179755000826 -0.044966280298045135
P 1.8524877074018782 3.177742085431107 1.6063180418799357 0.281768738107218 -0.20557461014314274 0.061801863798145174
P 4.71579966041366 0.9245088480718279 8.370075764512753 -0.47993985669743794 1.340550048366014 -0.29035879376907414
P 8.525092854922821 1.506546611128514 12.437951842363415 0.4741816140574221 0.7032249967464663 -0.051796415846001115
P 6.2397325681597415 7.826379360839019 1.2218906249177934 -1.5329230722172182 0.4196333464978967 1.7712918460722462
P 1.7404144978347535 3.2078396765533372 6.135694744976212 0.21850468794124947 -0.8893808360433652 -1.3102778797450338
P 7.060675623300138 4.13761243204299 5.981370750809628 -0.28352197335289886 -0.38356154047600394 1.639450303947196
P 2.2186327856748123 8.551466752501632 10.216340101853868 0.40980453333293293 -0.03995340046448603 -0.08222619309076806
