# total energy = -381166.88702539384 ev
CRYSTAL
PRIMVEC
9.24408619445814 0.00000000000000 0.00000000000000

0.00000000000000 9.24408619445814 0.00000000000000

0.00000000000000 0.00000000000000 13.52965455214172

PRIMCOORD
 96 1
Ni 6.741351440330354 1.7281541556664057 9.413202911427625 0.4280305694226564 0.691685371537983 0.2928532780561537
Ni 5.081825379533977 2.882971606048737 0.5860556432867241 -0.26873992994771784 -1.5852923298475536 0.2809058758862904
Ni 1.268020528208083 7.683508691024508 3.4859698102565 1.0277992600549848 -1.0822932773378071 0.6255131465862841
Ni 8.910004784674918 6.2083374384168435 10.009928078838673 -0.1920999726954756 -0.8444994021496424 0.9280666826493371
Ni 2.6666415041968476 5.458558862606874 6.824452076327608 -1.352017682685981 -1.3540833069657583 -0.011967199664205196
Ni 4.563796041115123 9.234583134227243 12.738372769171372 1.4653886768106696 -0.3895257284792388 -3.0318098807853335
Ni 3.1991378372912944 8.43173426037729 10.53508183437988 0.0036895330364452583 -0.35554500065842 0.48525072738739006
Ni 2.406383505413064 4.120338744899463 3.007087327462052 0.5628247664181275 -0.6250480340244075 0.16196227276983075
Ni 3.797350378148544 7.526525621643738 5.140822061143624 -0.3588694370459626 1.3890680505710593 0.2445137104105015
Ni 5.465501171233947 4.6789034006681405 12.765296169805662 -2.591687156084833 -0.27192218433044135 0.9860239758904115
Ni 0.9710635077871745 4.011970324080315 5.305369566142948 2.5143126346594116 -0.36917210452355126 -0.7474973363012805
Ni 0.9601832185008027 7.909055146672925 10.68611356115864 0.7161399050359214 1.523459355701157 -0.5426968853200008
Ni 8.099030359182889 8.098374029073005 6.097152344576831 0.8549169979385405 1.2258698485115984 2.6627347068509626
Ni 1.2107534150992696 1.2873591562344977 5.028417672352997 -0.8278813339769872 0.05620971442234836 1.020294209927191
Ni 2.3281970255624835 7.647937447886055 12.932414455136797 0.6882717178707437 0.8083507201432271 0.7640886650010582
Ni 0.4385311227571139 5.270192121070426 3.246522097999038 0.4936206966186402 2.7753235713939883 1.8659228405852704
Ni 3.3589865733490196 2.773503138989081 4.999829411820258 -1.0675387447364517 -0.08970578929726486 0.6690210971712478
Ni 1.1815698354246085 0.7177496664476751 2.71174894650932 1.7582661232365395 0.12779179753570896 -0.0002812786858446769
Ni 7.901974176755031 2.4817228067587993 11.450876800463266 -0.1502760946811541 1.3344115395684437 -1.1611330704548455
Ni 7.364717139342418 8.259415252231786 0.3387171791729774 -1.1872302817625295 0.3483186581133098 0.1322392917841013
Ni 2.1536409485917445 -0.04074608251186904 8.02438343988265 -1.5144823490135273 0.9703919257801095 0.134250151566543
Ni 6.7860558404908415 1.0797924479624554 3.6919040129312837 -1.9971622303499474 -1.0958805291039386 -0.5870101054150794
Ni 0.21221740796615748 8.125533153901689 1.6082019706121238 0.3756659397780111 0.2318019192707879 -2.221409734312245
Ni 7.350462758646084 5.10137662153965 2.653381787159998 0.3885240266876019 0.5737678956931925 0.09903709400051976
P 0.35839691397481 2.6051683319331493 3.537097925816393 0.18202921872303487 0.7499352563188116 -1.0383472107741603
Ni 8.031077082594852 8.5383555489321 9.750591715434544 0.3908501037176172 1.6616636068194415 0.6747569712137604
P 4.5864255637770075 5.854926784459934 9.427950001910673 0.28263262876941 1.1156479415388527 0.38847363306564064
Ni 5.635860433135856 4.7457936073598885 7.504601422747826 -1.2672923773224432 -0.8667183614488428 -0.13729870858487964
P 4.684958277033964 7.548249223872262 0.3456918421012421 -0.8682270847838853 -0.7554538721441957 1.371828032543689
P 1.1761805332547233 0.5662529621403641 0.27188890785779635 0.3932060055443034 -0.8860070344751257 0.6617448752248086
P 2.243419512354908 3.1672087640583904 6.941971217932295 0.13521740057581874 0.4363522019144743 0.34784994600700736
Ni 7.514822608698498 7.629292126313743 2.590617216074459 -1.1409198287317641 -0.2853212313451666 0.11041911058521628
Ni 1.1266229879155225 7.925047415547541 5.880664168853406 0.9550954046323551 1.262431449685716 0.5812024975943668
Ni 6.3056776645727455 0.4039795023104937 11.391630528530142 0.6991140599018864 -0.34036829291798154 -2.3461028383179725
Ni 3.179078170552614 4.257567202381358 9.006704395667228 0.15232577812133122 -0.23805304238682226 -0.06398858703681883
Ni 4.140925324543262 5.0840347161010495 4.839043325436588 -0.01596063709431445 0.41954952853483873 0.31401191441163984
Ni 9.138916087647242 2.3352132868779942 13.421849986571278 1.8898199589178424 -0.9978981016201783 -0.2886392399748061
Ni 4.231129116264941 6.534515014856632 11.960092827237577 0.844127106411888 1.1873678357816584 -0.8078961491043118
Ni 0.15531081421347678 6.37396372825875 7.6664431837589415 0.9189464655156239 1.7203284676505015 -0.16438399483744592
Ni 8.206899599355085 6.394753677795752 4.686063869726104 -0.463508193503976 -0.7796045012484702 -0.18902981841058414
Ni 1.5807202271801315 1.18557252468629 11.639345226946315 -1.5003083715059904 -1.1583933029261793 0.26585875174518087
Ni 3.2871692687901213 4.472917431111451 11.546301651988635 1.091304479697482 -0.42852267856772647 -0.7254850936962473
Ni 5.887355038339792 6.065266718548385 1.247100237057711 -0.436283553460068 0.12490933378159134 -0.5563417297969451
Ni 0.3400492519734584 2.0556813686701787 7.17886201598703 -0.2267576719786611 0.5202190159324589 0.5730780687150194
Ni 2.3368772223678387 2.310106349153452 1.1909156064259017 -0.33927917361886084 0.9249607900305038 -0.06768557627243181
Ni 2.4653792626141047 7.038447122042083 8.659831159368197 -0.36579110386646035 -0.9361031798005685 0.8921969653359215
Ni 5.8385092876268025 6.642892679761835 3.8665590016228073 -0.5898696863510615 -0.9471347550243816 -0.04132559822166431
Ni 0.01851405555033607 7.49051066237466 12.76056134892845 0.4664184251722354 -0.7215194241802799 -0.5342325566027315
Ni 8.548903051120504 4.649460986583948 6.572787379940266 -1.843258309108219 -0.1847093366583593 1.8352884035288652
Ni 8.531302311272372 8.977532833304437 4.122823555230965 1.5175085374343609 -0.16206023180027573 -0.8126028105513619
Ni 6.83931102025192 1.4028732555739223 13.360249245920027 0.7314410541693661 0.4776130083364742 1.0850376728521638
Ni 1.149677738535923 3.911570305440311 10.65396725190345 -0.7424314917425988 -0.6295392370265416 1.811368402378158
Ni 3.6363368872479276 4.659537040383562 1.0206645003308326 -0.0254768041148658 -0.09909108716690676 -0.42639431937081407
Ni 0.1679752121084041 3.958031081951191 1.636641401359382 -0.22368443236997607 -2.4338558747642405 -0.7853915402438925
Ni 4.405768390010172 6.741083361834767 7.3874751548004625 1.79476113283878 0.41880879371407226 0.3287985858025111
Ni 7.0122586262491415 7.58727775519517 11.67943313053109 0.1737777773475201 -2.083304213555354 -0.12386186635368346
P 5.629934973974798 2.3388554567835427 11.798088370311898 -1.1900505248201443 1.7662583974133967 0.057432016865223666
Ni 4.554487246458049 8.6942108398142 3.1560761112227254 -0.423840956821341 0.4085572911893932 0.9372064401670763
P 2.1291903409770856 6.301943053806649 4.967709910414627 -1.202157078275691 -2.3451106496080323 -1.693176332715742
Ni 8.647500472979845 0.35192790255373696 12.11273394939846 -0.046864011541390256 -0.8000416860568995 -0.3285247633158342
P 4.866290269082791 4.26440782606183 2.9733981802443346 -0.6629918602580325 0.9613154174001379 -2.5023580334006965
P 8.601252310448222 3.028029804418956 9.353970505623584 -0.3192222549679857 -0.6293592598052516 -0.5645371211235438
P 1.7222194524192938 6.062770815313618 11.547478424143396 0.40639936430612594 0.20888773367677574 0.05789224433109384
Ni 8.35295615901921 5.947413865437123 0.5507571006868848 -0.758485716991984 0.03663410628326594 0.8760720347496008
Ni 6.034696525965519 8.085543237629095 5.6420687613301865 -1.6075354575164702 0.7132301875882943 0.2500747494380467
Ni 7.489974505383487 3.777004144742168 0.11668902267697585 -1.851691784587553 0.4710109296389243 0.9046804425149129
Ni 0.8101701900052695 1.2075826935825105 9.434850712150503 -1.2435986332499291 0.1091811244130571 0.2370523690364498
Ni 7.259223629286279 7.165063368733192 8.238409915489711 -1.4312837647071608 -0.9926054857626712 -1.279850416493112
Ni 5.959384956877948 0.45951889573568544 1.715437990889572 -0.4002369442491559 -0.14618084156585795 -1.1855361818895582
Ni 6.443488499476085 0.26813488451098616 7.673884673032969 0.23647258527357987 -1.2343753148794483 -0.14716351719410137
Ni 7.967320621075645 1.684244746906621 5.318804920814838 1.3216328997465367 -0.32364326685381684 1.5486363691874168
Ni 7.353383889839366 4.855206609903216 8.93085759399709 1.7725164625079668 -0.6278731621780284 -0.1784859814564668
Ni 3.4802412501284077 0.3036099891544702 0.9462690201712811 -1.5661463530467221 -0.09589854837153808 2.771664377374846
Ni 3.587454160190719 6.5906543494667735 2.426990422046182 0.13455457018083924 0.2380710401089513 0.1609196904379293
Ni 6.822385098685779 2.9341930868777824 2.330658725678848 -0.5745052880798492 -0.12079351184100487 -0.3975385714813863
Ni 8.433610809846392 1.2848540089136764 1.8303188703342503 -0.9645575784865195 -0.538512414925008 0.12369937263389018
Ni 5.688385330098613 3.110940012243484 4.485851756319175 1.2751789791593715 1.0028215070637245 1.3261562415381871
Ni 1.4338501879431933 5.894546937290342 1.104366001921642 0.7143090224747698 0.5289057450731794 0.08540484792906582
Ni 4.478297489195281 0.9092630948771401 9.88943326593298 -0.49361606863295 1.873490625630199 -0.5078491815131962
Ni 4.289625692819028 2.0254347190992283 2.8714118764373455 -0.26116725980678246 -0.49711096916008585 -0.7079946502209677
Ni 4.17887229779777 8.974112521464201 7.444814371780503 1.625802631256774 0.6643630295739461 -1.0769446114313839
Ni 5.107902946294263 1.3095911831960305 5.635885392168204 0.17762440478711988 -2.152715771379957 0.8051237285654973
Ni 5.574442725388486 3.9346065678886024 10.036703574096089 -1.5832202778098734 -0.8921116047109667 0.2785869979451267
Ni 1.6128711584783482 3.9186974957884786 12.99379888417437 0.15788296049413453 0.35067995925663475 1.1122862241554714
Ni 5.420944676450334 8.057348775162286 9.595365946812771 0.42596648780477603 -1.1764414186771415 0.048277861169781375
Ni 3.4265146219785403 2.020082393273562 12.363857866751603 1.7670747226671049 1.7622382205104103 0.37953030782942376
Ni 4.213066172114074 2.4772116927641097 7.686209812969689 0.2746123295680948 -0.7921658828532486 -0.06669878687913028
Ni 7.010724107964063 5.020795923400904 11.458034496295413 3.0249488919994425 1.2287767377457484 -1.6990515605495964
P 0.08300727072810202 8.58110944693505 7.903658449234196 -0.2922950915598385 0.2675289403587522 0.3379445139678373
Ni 6.847723138561689 2.431823230235575 7.1412626203681775 -0.19358427055048594 1.712911092140508 0.2017704059057041
P 6.576307527909893 5.005090221193983 5.648468442105849 -0.41797138541444145 0.8385830366652075 -0.8776391221264047
Ni 0.8284845732968242 4.455436864382029 8.60549627035593 -0.23994023210720616 -0.4730873525519788 -2.7363027100461004
P 3.100438730485354 0.4663807808140829 5.108689618017516 1.9693590920947504 -1.08625791841251 -0.19194596361611457
P 2.6849078182409176 2.264274170494292 10.0338490003224 0.5117950535348218 0.11226464843438731 0.15146445856230042
P 8.938532034239694 4.679189967335836 12.358879002002546 -0.034365107743431135 -0.031468760032242575 -0.08441600165323528
Ni 8.019947202985003 3.8181773040297635 4.543434092762453 -0.3757955233773399 -0.3795696457077915 -1.6076401014151347
