# total energy = -381174.6119401231 ev
CRYSTAL
PRIMVEC
9.18763408175858 0.00000000000000 0.00000000000000

0.00000000000000 9.18763408175858 0.00000000000000

0.00000000000000 0.00000000000000 13.44703117893915

PRIMCOORD
 96 1
Ni 1.6683365124961347 1.1910205530435412 11.911057224103438 -0.1806894168656888 -3.0828262239322006 -0.5503034940226651
Ni 5.605357103289737 5.490722994379781 4.825534620674216 -0.4646374220124127 0.9110521503692116 -0.18768821678102515
Ni 6.397937534421116 2.4531258300300434 1.8942429750503447 1.426251601599892 1.4545743598039853 -1.9807369949143887
Ni 3.24434649133545 5.132699274254499 1.0712790384156212 1.6141257091394783 -0.9255835112161672 3.806400987979612
Ni 3.3567020670235035 3.9985869259547475 8.729100279931886 1.0351083921218882 -0.9398179096479943 1.0424869439741467
Ni 6.875345370213303 2.519120604759563 10.855196872998283 0.42626216466832395 -0.10487246973537423 -0.6547527601776917
Ni 5.894335754211018 3.762519859004968 8.636073648567368 0.5317627549060003 -0.3873143226502168 0.32383147160522296
Ni 4.06427850876361 1.023879116056292 7.918217163190222 0.7075840450461104 1.2080281923444873 -0.3924318463824403
Ni 5.303846519647996 5.677103336877766 12.917527611333684 -1.0580549736157325 0.48587859077937606 -1.8941586955025123
Ni 4.179656816024267 2.2785240342678574 5.2639611631039624 -0.07847623913003259 0.10908753625798634 1.2517271758943347
Ni 1.0956253496443211 4.145212376310921 8.946403442046625 -0.9845862150026203 0.5088084601026721 0.5923690557341476
Ni 2.826401022527733 1.4425412203128323 3.391878761163405 0.48544895944112515 -0.18205210154117032 -0.8122310290342399
Ni 0.45772792385140537 4.786591915374404 6.451710918457999 -0.5405548992763335 -0.34066936909816814 -0.10278704796125523
Ni 2.562421923609657 7.274281624359265 9.191059109221541 0.9582645463889562 0.09115203482548817 0.2982047721760542
Ni 6.625974609290484 6.130347695357043 9.397538319768849 -1.5098664475080705 -0.7585093711410679 -1.4096227347939596
Ni 6.633646283646484 3.787041654042291 3.745603587359139 0.965426097134402 0.5559545216608555 -0.003283298736962087
Ni 7.147786280007877 5.136411078374049 6.482275420350341 0.4588156731243131 -0.18307514348904602 1.3833113505929404
Ni 3.83026947182071 1.4953241774089046 12.636336398956288 2.3240211759275846 -0.1901078819661113 -0.5038680853782612
Ni 5.644101355696027 4.96799256026646 1.4553993140388468 0.6395326007938277 -1.1897373644550995 2.3427596328773523
Ni 0.9168303177431192 5.058876635391672 1.0596089057605418 -1.5622858416500511 -0.1035645495572281 -0.1645986819514133
Ni 6.629024903764965 2.826336709090018 6.561344198203917 -1.1652337228867804 -0.24185981772742216 -0.18698733405925863
Ni 7.116309446063379 6.585282578484826 11.479299985164733 -0.4097145447222879 0.07280927065224235 1.7269734837708453
Ni 7.400455401522079 8.2150034654501 9.923343854968344 0.881507089722243 0.445537210847852 -1.8192799439157508
Ni 4.556542748667955 7.061716525077329 11.021159536548556 0.27525999045442273 -0.38604265502664487 -0.20860439810840203
P 5.462902838751077 3.1217558914167567 13.023167026597502 0.11838155996540257 0.5265045918308545 -0.09423941550156029
Ni 5.14279648397575 0.5904736155852925 1.7511933518311233 -0.7185181754601109 -2.0744105106101496 -1.265456609665285
P 8.315736684179663 3.2879418144722408 5.086904431547856 -0.02291804224875408 0.5270141844774213 1.2827488210868296
Ni 5.33254868813679 4.4645194069317915 10.858867332765016 -0.08496236107500851 0.6688082098294934 0.059567832261303855
P 6.706412344603994 8.57793338210964 12.582992077425304 1.304272039870586 -1.0318340922459908 -0.35280651868133434
P 7.782909040345091 4.844915015747923 1.941119202273995 -0.4986451464164251 0.2192816753165901 -0.43702711649431186
P 6.222646666111984 1.4372399555183266 8.745733572451769 0.03399281200567694 0.32163986327054284 -0.09875015888772025
Ni 6.925454725827224 1.4468502206397353 12.993220852470621 -0.22496484174429643 0.1134560976393272 0.6769110414422859
Ni 1.885982373357555 1.7886945173627227 8.77143138463588 1.2606327059140805 3.7470283024482502 -0.38640440924143776
Ni 5.223776289692857 8.332577617227026 8.816007947079521 -0.3317934067647769 -0.2680138504149707 -0.3834800365057912
Ni 7.729556449943543 4.841497215915071 13.093844738356067 -0.01404850767326613 -0.7853835698240925 0.22211708788285614
Ni 5.449213264151748 7.818465183767509 4.987248003518322 0.7980364827014127 1.3666917397583882 1.629035536371775
Ni 2.2872982246989717 4.763815770789346 4.920833353916864 0.07506952744132878 -0.9548722328779554 1.5471456435745032
Ni 4.596169013934336 2.1701650793520915 10.320528946081666 -0.07395032623522103 1.208463994330325 -0.996661915220232
Ni 3.5659688057140584 4.214487136363903 12.555694698168884 1.2358305592687362 -1.291051427415254 -0.8732314799770122
Ni 4.596306828443725 4.4198123800859275 6.63827501363517 0.27734181268411595 -0.3448507541693674 -0.5014306795813622
Ni 5.123465702125421 6.667153584695984 7.113708426889506 -0.9327800289646064 0.09723037980908417 -0.6167562263292603
Ni 8.968784518371434 2.322110169770689 12.338283121973424 -0.21560011269994483 1.602224843936834 -0.01694845492888049
Ni 1.9401159126456413 3.7237756065986782 2.9466882826128344 -0.8132376159218833 -1.159567011519306 -1.5694319657765294
Ni 0.35284373209903935 6.59137397979983 9.732503834946522 -0.17586422756290357 0.4501302295351732 1.1151717732333826
Ni 0.5799896064743563 1.9414940577395337 4.156423127268036 -0.4617886397097079 -0.1598341706832344 -1.6109912772755546
Ni 1.2835951528172618 7.363420049032214 1.3468951945065237 1.5153081873489322 1.1785679781018412 -1.4209566717495397
Ni 0.8580340542206971 8.677031201994449 3.2827700953165606 -0.8447380005230097 2.171373238580144 -0.9589541162568129
Ni 7.6623121569955615 0.4325602381467455 1.8124307696965267 0.4207155238184819 -0.6956132458374794 0.5021711572918125
Ni 6.6161714038559305 1.5635974853603254 4.732668772903986 1.8517686605720756 -1.705371075009721 -1.0452987023913287
Ni 8.01793790465747 6.82716541773083 4.945508582441305 -0.9851559714631615 -0.4261539212252338 0.7850022752252739
Ni 0.3722434212040623 9.12343077317406 0.2596324292919405 -0.45454789898689457 1.5838509694153369 0.13762678134825976
Ni 8.231008323807169 4.5315248213968315 10.545014081662375 -0.24539868411861607 -0.5537737119594527 -0.4242669886151661
Ni 1.9776106468334693 9.080055953252293 7.828054317330812 1.2079029796205327 -2.7396240611098497 -3.399415155042397
Ni 0.8011773002270792 2.174382203339402 6.343959266146941 1.48847435498554 -0.1463387072999609 1.0980420555316315
Ni 6.558849755583973 7.087974782932955 0.6257256483236598 1.7331166205541055 0.9736659685456909 0.21651234010156906
Ni 4.020848563038086 2.781225426349946 1.370575402273176 -0.009067766629223093 -0.13795511122195597 -0.15325137525939414
P 7.519481199464571 8.53024037422701 3.8201805309700227 1.5527390785018806 1.8417912376443892 0.6074300638323281
Ni 1.8259871236034464 7.6228053309706505 11.445372809243294 -1.059279332941137 2.0253245517167766 -0.7159452725266121
P 5.084822513692683 1.7928840784481552 3.3798034538507205 -1.846781491770129 1.2321376837981812 0.4404212297775254
Ni 2.429678988165957 3.0089041834949013 10.87867495281783 -0.5033183835223785 0.6486376484188893 -0.7516512105686538
P 8.387538043571448 5.474846762898143 8.385636203341877 0.5645389208957567 -1.0762882087943078 -1.4543987534580693
P 4.407142632856078 5.880434864030625 9.020523760249732 -0.2436125387524708 -0.0016262227495133284 0.28715159968568615
P 1.0460396891660788 1.5591690457919518 1.971334574075884 -0.2244645050691102 -0.19713265002337663 -0.544770737129894
Ni 1.0651499678013845 7.068588875278871 4.820935291114199 0.17772622047230682 -0.8566288384233248 1.3885905967140084
Ni 0.4274565074823646 7.141125245387398 7.288169651852116 -0.382453909234122 0.208414393584783 -0.4329999976127898
Ni 0.9305603179318694 4.827688202074271 11.982030777675492 -2.614932242655703 -1.6124403510172554 0.6073411036629476
Ni 3.1487950981589217 8.174798379244285 3.155305455582469 0.7127236802655209 1.1685193356165875 0.05431378295121614
Ni 2.5149677942099675 5.916138009596394 7.327085713013444 0.4227829478704718 -0.6362289903418914 -0.7694249896123071
Ni 3.5409049402731383 0.17143757462660944 10.52946860500327 -2.6748777699714 -0.7730530732831977 -0.5978349639447252
Ni 9.054744021694471 4.919803420150028 3.6260320439594658 0.6567258247436626 -0.7920923493028359 1.3813583406316277
Ni 8.866627216378182 0.06067237837690737 5.533709177385072 -0.6744834058373997 -0.6709491674318961 -0.5843207315083744
Ni 2.143254499485356 6.125946818690546 2.9704622042458717 -0.021911969581742907 -1.1341639980651692 0.3392532054769319
Ni 5.7200922761732444 0.16049785887129295 10.828221979693833 1.2634534631923273 0.9017599264340083 1.5060133923105676
Ni 8.960745338657063 0.40309090222235 7.810815559733013 -1.4124095535104773 0.14472534006625398 1.1548307823859016
Ni 2.1166195486373987 2.7829251386324128 -0.045962976408097656 -2.968112342626372 0.7107279899917308 2.1230053887997182
Ni 6.234057707489412 0.3025993182659165 6.632411465642356 -0.4332568508186022 0.38145529276627854 1.4129188890467277
Ni 5.944224606609917 7.66795336424656 2.8515907585538955 -0.21919425780910637 -0.4994221337917657 -2.083708133861992
Ni 2.1710654674801013 0.10868144086773703 5.2915681656248115 -0.018324509340800696 0.039200324348545396 0.2524869584239652
Ni 2.6439070491945245 5.367112567091608 10.864729961994435 1.5662695088881478 1.0685265625710176 -3.491839114601773
Ni 4.254931101052661 7.6058357710478575 1.162542562823352 -0.8013773741491876 -0.9971339697606441 -1.4162669795833545
Ni 4.176771898961054 4.043036699049751 3.4351249542097424 0.20949965622916175 -0.6480200694395485 0.16435699825425243
Ni 2.733973424897361 0.45735949972963813 1.0055598927048806 -0.3509573812877375 -0.5404592542387338 0.1942188188106913
Ni 8.743025976723969 3.0560459333399748 1.165869405080008 0.5077828470516352 -1.1956622145799667 0.37790305663864593
Ni 0.01913600401039155 1.8972004744218376 10.029871714436023 -0.9687464197568866 0.8902123308057249 0.030474771550089447
Ni 8.621041760646587 6.932336263662726 2.4651901121819764 -1.6853660926427039 -0.016847667684958084 -0.18405062002843786
Ni 8.875089027254681 6.99852397870539 12.887567655755863 1.0914119518096235 -0.2198501462255504 0.5571840231925824
Ni 8.853406211110777 9.122521197412093 11.339747175430414 0.004262631931095885 -0.36039024456586316 1.1287554254550882
Ni 3.3906871250388857 6.7484182070658285 5.02976745471848 0.2779668478626245 0.41197505862169054 1.2626037135975223
P 3.6184945090592713 8.330666589363496 12.560871929904938 -0.4989639632084246 0.5185832801012488 0.6490536529103854
Ni 2.334770729366579 6.203371010065411 12.990450780831898 0.421221516920623 2.0607993475846187 0.37121741708835426
P 2.753855464785246 3.3651638779000015 6.765215039470187 -1.4506238597966694 -0.2557682002783982 -0.6155400945339722
Ni 7.221958048961157 7.5562776734714925 7.482143573817447 1.3200383015659072 -0.10572916130871468 -0.36184471762420267
P 4.404101526015556 6.159297929962738 3.088702459484845 -0.5346135940912342 0.3699115537927371 -0.7549201111279128
P 1.257392020765391 9.228886435758694 9.752768080407114 -0.8775727876648435 -1.3263817272854317 2.071301789777839
P 3.8660828689939892 8.641034052141984 6.422665132459127 0.9020406908992207 -0.4008444959261677 0.22959359876555943
Ni 8.454865025225063 2.9383799052234565 7.847216965479686 -0.1736844463027654 0.5862765696831644 1.6047147002382234
