# total energy = -340855.0689477729 ev
CRYSTAL
PRIMVEC
9.39149803346622 0.00000000000000 0.00000000000000

0.00000000000000 9.39149803346622 0.00000000000000

0.00000000000000 0.00000000000000 13.74540667914150

PRIMCOORD
 96 1
Ni 4.704849307090687 7.138890773060097 12.01032365229673 -0.40002225713518846 -1.3506267158757255 0.937161960082386
Ni 2.5195322712736226 6.011028225306146 2.1467029530873267 0.25786853445085267 -0.18821143627434683 -1.732843312288061
Ni 4.813809465625179 7.359421926542854 9.660340788203115 1.409367938470676 -0.14146543836805958 -0.7304779189251484
Ni 7.279218534551425 4.5115347144968245 4.049891879052385 -1.0695100095302095 0.11584079582141985 1.0921537150716545
Ni 8.10591452792819 0.310651028097577 3.214582942959537 0.2050022825794405 1.648782379981399 0.8481125734221975
Ni 8.57479445164764 4.003464070077112 6.191288635831146 0.35862286825279527 0.16792311833895598 0.04995833419599783
Ni 8.665422406298378 2.3390746392929063 9.432661765675315 1.5958032566812066 3.1968217390147653 0.14018939986911338
Ni 7.924339307698412 9.081522111868903 7.929120519274856 0.534443387061957 0.48302826581477465 -1.182420261968396
Ni 3.6085985412387447 2.6588551424905846 7.25993872853044 1.5914586065592655 1.3776297268271307 1.1181169719046355
Ni 7.3294724397676 4.091105528398426 10.610546248647525 1.5540750237044847 -3.133547147325836 -0.6841083305216734
Ni 7.759509128208767 4.975418361338121 1.8456782103282996 -1.0771983793134028 0.8311332652553814 -0.9178336920674193
Ni 8.807938386798371 6.146509973885578 5.245549771783822 -0.519585496113518 0.8670238085044035 -1.1796108175440587
Ni 3.7826323886618343 5.069662042676996 14.021551430853147 0.35832050652102804 -0.5025586225382184 -1.0855680914343369
Ni 5.1375156149414085 6.955305772281588 4.5968348723938455 -0.6049965146901709 -1.9429425497744344 -0.1435292628756238
Ni 2.8817999109313983 3.383465553789266 11.413992649844667 -1.249516541396261 1.0178830293825374 -0.6364089675631813
Ni 3.1597318995255863 5.466734573519812 6.49257446223155 0.5251853587987987 -0.31425488366038135 0.9702975662940901
Ni 0.7967033057112117 6.8672980455425146 10.665583243739725 -2.5827356033185005 -0.15198973493815116 -0.3718540222310886
Ni 6.208296638512231 3.48110895736478 7.119584670845017 0.20342156835588193 -0.8951833016577552 -1.391553021776442
Ni 3.6568614489019717 1.467562417979009 2.597840458990594 2.378183263792285 1.3113852538765993 3.4192787267355436
Ni 0.220749975383624 8.164658347238072 13.187892580939796 1.1683373015127687 -2.047703176522293 0.03244577923353122
Ni 4.101980882956514 9.240961571568961 13.107014879399772 0.1560219960259958 -2.859659354628591 0.7568209276950514
Ni 5.911900965063811 4.5427520534873995 8.917222552010113 -0.44719891482099106 1.7210056962231843 0.9961366388443812
Ni 0.8873331386615271 7.57876035979342 1.635002494732639 1.0879859568472101 0.05195968089674277 0.07696623024340939
Ni 5.224856545330202 1.8752849074305222 11.988949542245992 -1.2475136520336192 2.0040515012706135 -1.6215651961366588
P 6.309893862699971 7.5835124577264015 7.774580604024673 0.1733859412257401 0.41648374512532144 1.0186793000315877
P 4.445127432907668 2.986430588938016 9.608300620088022 -0.5005750164492863 0.5180294644803078 0.051877148485265485
P 8.252741205960275 5.2931327349997215 8.744319440933133 0.012032762794817986 -0.5813405658341279 0.704982088646889
P 1.9963788812405332 4.524494981586774 7.98418474971094 -0.8948179478985364 -0.6564689715378501 0.4364506751655516
P 7.346546182933926 2.3516780294629878 12.354660105030707 -0.5251028263873215 0.5488284521390353 0.09894144896291991
P 1.0235323976798536 1.805459120608944 11.05279094519755 0.25225015982281074 1.2209952940281166 0.17602132196605816
P 9.275888552226586 7.7147210747653086 3.68250399474429 -0.38737988578082966 1.536947877105895 0.5645975420478341
P 4.864824082170548 1.6134405547240767 5.79477489911286 -0.425776483281157 0.5347629751849049 0.1753327805394658
Ni 8.339819174408113 1.8299991045988275 6.935917964034854 0.299678014287471 0.017649337650647023 0.23055801956135774
Ni 2.278396171417423 7.60297164135711 5.833330754555672 -0.3339122528799927 1.2452744782904552 0.117678620361107
Ni 9.235908945703459 3.2249088948909868 3.7331560994710555 0.1121162957819811 -0.11431998830151924 0.270867774923998
Ni 2.6892460296667284 2.4982605285499004 4.80966875420492 0.3023360207356084 0.03228662794784762 -1.2585218302186647
Ni 4.6958240776171785 1.8018903514102622 0.5838234055604704 0.8592693613699653 0.30165339284628695 -0.3515235382038526
Ni 2.3527862262141572 8.285029175710454 10.819545581869596 2.1786042091109445 1.9207153629451177 1.4522441690089118
Ni 1.7564073271228506 2.7429466146089996 9.159540102301033 0.13255913701736524 0.6150035053042118 0.14128957491182764
Ni 0.7360060548399461 6.119650289916552 6.9853604438332235 0.6523233248005927 -0.662341371158227 1.6382994781722042
Ni 8.711741273898111 2.954292883154096 1.1065682654352895 1.0318214938405004 -1.416357996635264 1.5076329301918616
Ni 7.336356407721899 1.0942597682989936 0.8799373340721535 -0.37007199063000135 -0.5070881349774558 0.02536881778209179
Ni 4.3831717213189725 7.530394145653389 6.866902663481292 1.238527389374609 -1.2592623079291152 0.29063107359385426
Ni 6.436115594358613 0.15520201585151833 5.108013163465778 1.6272144240026363 -0.06163422787202933 1.2601760779926363
Ni 0.2802075485332423 5.687115463036308 3.0843726421464726 0.5796495512849501 -0.9693483150069434 -0.9054065220476601
Ni 9.289271436721643 9.792608766204157 10.017432773373013 1.2149352038769656 -4.596616174864393 0.9652607752011311
Ni 1.475160139773045 2.377091422756759 6.7709732082709335 -1.871732505288512 3.3725733522592045 -1.632160455154002
Ni 7.077263763897594 0.6541187672766121 10.571826041991617 -0.5876377116967493 2.4680685160902076 0.6708704916751608
Ni 9.140848204048043 0.2550458473829568 5.341767545979441 0.295891036441213 -0.8502820702696906 0.12074183266746302
Ni 0.9031286989648509 5.309239153883246 12.613444707724177 0.7216891169889248 0.6024506083398657 0.2970562603939078
Ni 7.989131251650271 4.477077308733762 12.795104451434977 0.5399560893500701 -2.291692896108524 0.5716539346739833
Ni 4.312002950298943 9.16556662649786 4.651280203118894 -2.96959612626075 0.6282341450618728 0.5486428184907907
Ni 0.7216924729038643 4.658614962971974 10.173827509456721 -0.6701608672026458 -0.8606197047502726 -0.8576079145071422
Ni 7.568608150572959 6.543789117682002 13.343545388690094 0.3847761296093954 2.532702707130825 1.9314661737037186
Ni 3.5912336616377902 5.519712013124455 9.112833365838389 -0.6304702334812432 -1.0655366267047586 -0.4427784171557923
Ni 5.541049496333415 0.22217936136267502 8.726216389597923 -0.06430791804945053 -0.3634814818966772 0.251408894868438
P 3.186384970541005 3.6982309971130074 2.8495326024765792 0.602065457086305 0.264041496030784 0.5745135156099654
P 4.605590565877875 -0.31271434018428856 10.938993226099265 0.14384036635813938 1.277093422573265 0.08730695004778513
P 1.0490772719441028 4.71546169970782 4.894738820403605 0.1881160483470631 -0.785494384370344 0.8122924783997946
P 2.2402760814767655 7.963952645803781 -0.021770431261748574 2.23165352352744 0.6111152259933992 -0.16669670213102258
P 5.563044384394766 5.382549186422485 6.077133100663204 0.7980215703030773 1.0280152327205327 0.9294995584411219
P 6.9164907114969765 1.8935138048374736 8.601724571850852 -1.4970171023492282 -0.5354641150169875 -1.2552760695878575
P 0.26603671736510787 0.710596418145331 1.3906779813423538 -0.9625109803701358 -0.01639566774920402 -0.949186752457404
P 2.8757236117957476 2.989698830204177 13.624144562685403 1.1338958320054473 0.4339556766578398 0.5302589166669642
Ni 8.19272014293718 8.28203328788314 1.5047649585756893 -1.6709789706830966 -0.5970132393743783 -1.490544350140691
Ni 6.493713650925761 3.332854771653222 0.7983702965869118 -1.9847746553188719 0.4310942959496447 -0.4941179479700329
Ni 4.803309770982742 4.571461862541006 11.099196214577885 0.6541799183933572 1.135896921595876 1.081293632428699
Ni 3.3516002014441937 1.110178357224693 9.508344090581888 0.4096068154998301 -0.919192520088159 1.210734535532057
Ni 8.671695926889745 0.6875609521176286 12.699229466912389 0.3701378108709303 1.9680241753334105 -0.8971095721461905
Ni 5.558752469858456 7.773859336986623 1.053159756077437 -0.3119519465588176 -0.6048939276740356 -1.3021115418841576
Ni 4.517751886100844 3.91354047776822 5.128604022592384 0.7522510489361819 -1.3747387784325809 -1.1898090982332994
Ni 0.7711659446452754 2.8402237497667544 13.163906695325496 0.8780924076137393 -0.33558964058241564 -1.599593062740942
Ni 2.025577048184486 8.517158829088928 3.61461567393768 -0.43979388060617164 0.1491952029121495 0.2772662222511741
Ni 6.812329608384922 2.3847548850360343 5.245521597290148 0.7105287294967312 0.417242734778533 -2.20294407140789
Ni 2.7329916268442553 1.3010793348604996 12.265864431618557 -1.4122622292993356 -0.5905212038921315 -0.9263119047417595
Ni 5.067727394111395 5.615373810644912 2.2590571989597237 0.179733994930955 -0.27625397893657583 0.49060762082392934
Ni 7.231706946719499 7.99683227992111 9.808749933629882 0.6144149797905935 -2.454666640862005 -0.07679962275855806
Ni 1.0256924421948452 0.8387199281269561 8.031729207785485 -0.3676024460435863 -4.314945910008253 0.9808542587640139
Ni 7.35443504116259 6.737798681119818 3.3217286641014367 0.1604718042672333 -0.10885665119410284 -0.07459952978344571
Ni 3.013280881409152 5.555859888507946 4.236623031624468 -0.23291983492531498 -0.05063427721709989 0.19904940743011526
Ni 7.004554787223397 7.381679776545159 5.7289620993402215 0.40638805145221624 0.2405485551151664 1.273412117066936
Ni 6.764602016101497 6.028186491953493 11.134507307499264 -0.4338332921473625 2.493725040316047 0.49024612371945253
Ni 3.6747428608869463 0.22066733020218085 7.308968921571383 -0.7672621776330335 1.9103910982009744 -2.371487596939664
Ni 2.868454592427906 8.048682739778801 8.600033163080635 -2.396026205510977 -0.807738540480525 -0.14697248422921785
Ni 6.296698808162738 0.11469836374605727 12.704191934398134 1.1143197096457327 -2.5692411683764913 0.8420887358256208
Ni 2.662658699136548 0.7818891569375254 0.8901308658833359 -3.6626092154712215 -1.231025424570609 -1.0408992877720524
Ni 1.35773824163852 1.3568930068283058 3.07909462033158 -0.7181731334158664 0.3737440401649499 0.43363428876267895
Ni 6.011122140285058 8.508396561556376 3.1157815676940297 -0.2539810264709884 1.993394278667083 -0.7922957235628936
P 3.904120805383278 7.692463224763003 3.011645821626282 0.512405176314995 -0.9550257277366841 -1.5071148529048624
P 5.877997657676333 5.287911062172176 13.32072874456326 -0.8987206253870522 -0.23720200724043664 0.14752655696047495
P 0.4413055467608988 7.968178819854852 8.228990107793258 0.8304997454364407 0.3078754624965988 0.7071459290674273
P 2.8558981597472806 5.960173264224928 11.11500304467868 -0.560902352584434 -0.019932734368185025 0.4776310060586032
P 8.002204216714915 8.06282633560305 11.866272161891514 -1.0682648242691988 0.2293938240499275 -1.3517382037723495
P 1.8807883251948054 0.6014493688028023 5.6060086089477394 0.295475289060033 -1.1372416085492285 -0.41356811414042327
P 0.2794543504023626 4.81285153284027 0.9545743852634283 1.0444026729396207 0.9299682705474243 -0.7319138800407267
P 6.145946484012103 1.5782787866191688 2.5394225246575393 -0.954209402482976 0.2047595704410151 0.6051299549442418
