# total energy = -340897.31489170535 ev
CRYSTAL
PRIMVEC
8.99327355058112 0.00000000000000 0.00000000000000

0.00000000000000 8.99327355058112 0.00000000000000

0.00000000000000 0.00000000000000 13.16256489530047

PRIMCOORD
 96 1
Ni 6.364143966620925 1.823224327414723 11.347736810358413 0.10085177861175533 0.04285669015421006 0.36853241405702336
Ni 4.663408024559223 0.36450457041602047 5.884403186619041 -0.2864867124081776 -0.5723877275162141 0.6840463669354865
Ni 2.721229668285145 1.6355077292154871 4.871531259704459 -0.23641576389371544 -0.42405847214878584 0.38908761250055574
Ni 3.262094131098361 4.227863787947858 4.734429704207525 0.7678776997298453 0.594389428598286 -0.18263317085562095
Ni 4.912215929785115 4.53790689257674 2.679016141705957 0.6766009664010347 0.0013223183558493355 -0.27507075726175206
Ni 7.189447684349363 5.943888294994887 2.5941834919117936 -0.1519120876226803 0.6835177481255261 -0.19943327313209525
Ni 5.003272824183011 4.640295311610819 11.47125402620221 0.13772448326838863 -0.6922103908035175 -0.5392865740868712
Ni 5.657650385375509 7.761500819732643 12.290426130044182 -0.7837971991735792 0.7763713390231533 0.2704854518839148
Ni 1.8646023788838308 6.4204058857669235 0.3284469395618061 -0.7596321718916014 -0.347975158730962 -0.005528900238029188
Ni 2.8286363339438174 1.6120352853262518 0.443398062377061 -0.8825087915138802 -0.5133582842568837 0.1314731030420381
Ni 0.6819959041748126 -0.1944435667927793 4.622601045958684 0.5521688293661781 0.9521016121113537 0.7498930902269666
Ni 8.45577254226332 2.4164296421188776 1.5070478102446692 0.5335203610270554 -0.03360174721484535 -0.3806875613623185
Ni 6.780838301932735 0.6902067628992845 4.780998673152825 0.23329341621464986 -0.9324061905649554 0.20373035784555235
Ni 0.7586887421053183 7.328411746792452 2.5174196071204737 1.1678714176199436 -0.9900081573491402 0.029028011801233877
Ni 7.447896378789532 3.8652370130429765 3.7400902160372134 0.34935095603256605 -0.6802066814744221 -0.013890127718530917
Ni 7.514473582663865 3.7143568631848547 12.56714286098711 0.4586272112625908 0.1541918847957925 -0.4866866885029683
Ni 8.101905215767678 8.887953294577912 6.7775359718959045 -0.7695473741227843 0.10689232837888042 0.09580778842994468
Ni 6.994617406795191 0.49673716762880576 0.4457525013848011 -0.27851140751218484 0.9665208728604774 -0.633395120437522
Ni 1.9734030019382245 6.4815511524347045 9.111785080581896 -0.7208928463398746 -0.1789518653492918 -0.34583625801108825
Ni 0.053334608614984395 4.9282959028402695 1.3115781109431688 -0.0008430647265856449 -0.45304791740260036 -0.22250455312926196
Ni 6.393686870136687 1.926539053621441 6.905291717550045 0.3702658518083623 0.19375859134482115 0.9166697536663052
Ni 3.3447692945748893 4.1953890772643225 0.21899520350450805 -0.26718158432166245 -0.11555771736336228 1.24258047639806
Ni 5.853083212255573 5.671122309109637 4.728308882249282 0.4398291047194813 -0.6948416577787775 0.4790525689964783
Ni 5.206035168982511 2.9236322821438145 9.27751492367753 -0.47268960289292783 -0.1741531584090678 -0.4114891201242074
P 0.17542908858779463 5.625301580521263 12.22005916070819 -0.15144543239890693 -1.5776726085187667 1.805301884469104
P 3.868447611689895 6.102502660080879 12.549676125155052 0.8074729455239642 1.0666321737617823 -0.17882022486743399
P 2.3705189807952967 8.361037398995427 1.2977212751023515 -0.019133121285025114 0.7919838487494296 1.4918671827171726
P 6.340797428560981 7.636620223623096 5.781906848302714 -0.6377960777186952 0.7668040070496923 -0.030742166278863184
P 4.716027667929304 1.0656489525712773 12.560956388132166 0.005314470234377944 -0.5909071264766405 -0.8856396238333779
P 4.093693140291345 6.160913971598343 8.139835246168918 -0.8523173555321644 0.3429213983571384 -0.4601194795374011
P 4.56546228264441 1.0644888202870968 3.6532304823914665 0.5924405324020313 -0.617909108986781 0.12320957748166522
P 0.11412284232399104 5.488055233320644 3.7653100529715364 0.44186721819543257 -0.8441882986671267 -1.5093342291536844
Ni 1.5296479066023885 1.087673479423667 2.6811745273509437 -0.47462924311780197 -0.364776546559017 -1.3582603211615834
Ni 1.6060817382554957 6.534296701634078 4.979634904060993 0.9952274967665505 -0.28521401634334104 -0.9434668192544913
Ni 5.970931068471871 5.574228780196755 9.166015419239551 0.056290704171928864 0.4016538792013405 0.569899928097354
Ni 8.548025542039479 2.4028947654701036 10.166949674882648 0.02951986383598787 0.4084392775542901 0.6406602866403676
Ni 2.3595831601940285 5.150690563735632 6.880822818954707 0.0027765343038726378 0.9106232903619093 0.8931973815759778
Ni 0.5652865963862453 9.386459439108256 9.184837441391188 0.3303726151578504 -1.4823911249059374 1.1908169706725233
Ni 1.6505804556363142 1.1218119457085471 11.289927148839487 -0.5473804068385992 0.8597596707428227 -0.09205166382162211
Ni 3.966600198895685 6.638888472680747 1.5413499541076272 0.6881917565624277 1.1823228171585831 0.19623893456451363
Ni 5.632622105167178 7.873673920357329 7.915571783035938 -0.27607065928117613 0.2251507325028574 0.24837859268254645
Ni 5.315141563336611 2.742300908144332 4.876045883011891 -0.929221879299703 0.530968541139479 -0.5306934331012215
Ni 0.9356601771019266 7.519797600588166 7.089384026520407 0.07634890837438464 -0.5053397848277813 0.18156667726431958
Ni 5.167346106296116 4.631014253337374 6.967866914707631 0.306590168026272 0.3773325288471566 -0.2103116106074959
Ni 8.346054605309806 7.360436793799949 9.044485716843845 -0.6834943510867583 -0.5648423110687885 0.3877987184858031
Ni 4.730875562512112 0.2873287936974489 10.262154267028325 -0.8810954561061213 -0.27571070483859617 0.6845387331908727
Ni 8.114648684346623 7.1433841373759295 4.651348044767857 -0.8087201876675041 0.02560047417692365 0.7029555451351635
Ni 7.151729895203213 6.120102496361046 7.120605074875146 0.839482151440709 -0.027649900506784637 -1.0328514777669113
Ni 2.27506437564574 5.127730736437081 2.5372551711979052 -0.5187686566391776 0.011015377273897158 0.19717944410091204
Ni 2.353179949447233 5.1491976803311825 11.302655328853449 -0.7133458872305521 0.25461326073834856 -0.01936529190048923
Ni 0.957288999919402 3.259647960700709 3.6167438723903107 -0.5495347341774407 0.5021192210079546 1.0527970676509029
Ni 3.474973908608739 2.7335054866410093 2.801533305534244 -0.5054714253096391 -0.22642548545022295 -0.7243216695157654
Ni 1.0502524683037024 3.4423103391812666 8.114234094437315 -0.049108327490876715 -0.17940617927789101 0.031095692963539995
Ni 3.7318397869092506 2.960684569049427 7.1143133807200085 -0.6667958073851548 -1.7072469518761955 -0.23688653288254688
Ni 3.960961416398156 6.771782075497309 5.890194854766423 0.24900002831662926 0.8125760710784845 0.4356533760752368
Ni 0.8930104767569808 7.280882296235131 11.21894144228527 -0.2382317340565316 0.8975312330646413 -0.5647412667145499
P 0.11705554881911734 5.530278652500704 8.031402448001526 1.264224537030397 1.5573830050317952 -0.5943611464635119
P 8.50501071478959 1.7443892917315678 7.989479404157058 -1.3766611922662741 0.38574723527341304 -0.9806840517347368
P 1.7062937850975448 3.2946677677906253 10.230814507463114 0.1791377561078528 -0.7986502050260117 0.5954554079689551
P 3.8163046118164137 6.173972204750516 3.738418366489701 -0.3429874757083835 -0.5438945051725278 0.3434813846256665
P 6.717013039755761 3.8333378718647704 10.376049579532243 1.7691074368264177 0.8152569603447573 0.43338746285919555
P 6.359377531654912 7.677152907381251 10.153865361237267 -0.29855058555124714 -0.16056307842945897 -0.6742098404610388
P 2.545941774091627 8.584241454507659 5.831463382711619 -1.017248738232648 -0.17307123819879872 0.21376074549836088
P 6.690285030852004 3.9132610936439405 1.448803773614691 1.0573949714342308 -0.2687712974062855 1.3359847975928347
Ni 5.051359857698619 2.6431320810306937 0.8473588217107985 0.40920469496540496 0.31136419237614765 -0.4505143523474693
Ni 1.467207608547615 1.1095900869938073 7.178415635721423 0.6421440702747457 0.4890711295747449 -1.8325977440705792
Ni 6.855680324172663 0.7052821873021677 9.093278722330835 0.27750044974916727 0.03167059163040352 0.03594710751857035
Ni 2.8999439996900804 1.7085241169306982 9.111390275874333 -0.7058896880628229 -0.22200293090249507 0.5843096757647809
Ni 6.409937715388736 1.7032630519210419 2.6405815886602 0.004246691091495912 0.6464802357562544 -0.09790555149923783
Ni 4.0844120820179 6.840796456495774 10.32917753726929 0.2646235937864991 0.33618562229520166 0.2354055774616462
Ni 8.232055870160403 7.223846955566346 0.412235470300207 -0.17519496941002086 -0.9137019292872329 -0.3481515364078262
Ni 7.630855535296276 3.9649904029354657 8.174492624335949 -0.9055201648073888 -1.308141035907689 -0.06280562247231118
Ni 3.1390301762400106 8.280772432822467 12.415642175256055 0.7796330404935605 0.2436742452283416 -0.8175385572900824
Ni 0.043593094737275746 4.892745492612627 10.12534229493876 -0.12219167774011212 -0.27631337141960155 0.29839966179567967
Ni 8.663580113507978 2.3152553150101047 5.687767959069248 0.13606200796430115 -0.3605288270262565 0.27224125823275697
Ni 3.4877803301023294 2.7066875450020444 11.43650491664527 0.8574616187372652 -0.09365706063552902 -0.3009689651847527
Ni 1.1275046878472008 3.3062061377177856 12.491537309825267 -1.0544292039376872 0.07223720019885622 0.10139428137878667
Ni 3.1473489542467314 8.35889699989748 7.980239714941809 0.687476732773274 0.023782190021262268 0.16556361696784389
Ni 5.278583906474641 7.7904951335636365 3.6913619621195726 1.8843507082731545 0.7024870901391772 -0.5684007178440081
Ni 3.041938795309672 8.35658572860264 3.612874066794319 -0.8941060094331762 -0.2831802737427639 -0.30379100801458003
Ni 3.2917809269904548 4.410957843557413 9.195486376567146 0.8381330936119823 -0.43779896166332993 -0.18082799932608212
Ni 7.174707709048805 6.045575238694343 11.41160164293888 0.2522383327482688 -0.34329189432267976 -0.3730616693859446
Ni 0.7738630925169301 8.865236285664423 -0.08214545966615444 -0.3369888349227874 0.565309223402878 0.9589116930546518
Ni 4.6557457555195185 0.23167392051410335 1.4866987302492005 -0.28614424146709433 -0.9609765460034805 0.3312748152571456
Ni 5.983062994451403 5.646939396612259 0.39905582795550426 -0.28253132730485536 0.17102926806810545 -0.09428620957909568
Ni 7.913568081695509 8.720453575253389 11.24061972810711 0.5313693761223236 0.3534698632969461 0.23546085617961385
Ni 0.019176357128358693 4.737035954873845 5.892064556331393 -0.23548708143185898 0.05077337389812545 0.052204192807381054
Ni 7.900599781278544 8.567828730332236 2.591669871962736 -0.5693417416010388 0.6648898486116936 0.33010367776717986
P 8.489479331419203 1.3647922096929748 3.6590482310320587 0.19251957673139747 1.506291842782935 -0.6709018591337285
P 1.6310740453697428 3.197324575201705 1.5454823632904255 0.6980429383248946 -0.1380273592207881 -0.5839998578338459
P 4.7393742059892485 1.0888695848019307 8.189734424298965 0.6378950651904046 -0.24774095909854751 -1.3600102139731545
P 8.516018481579025 1.5782385634351617 12.350368996042235 -0.0007420203723471092 0.3985798682617071 0.3058072671136604
P 6.359611356766452 7.644444371586174 1.4131328535218701 -1.5436535712608448 -0.5847434208680897 0.2803086086219237
P 1.848666298205009 3.25804715801401 6.019872462971955 -0.9195041377913067 -0.7730109071913526 -0.4153408897701298
P 6.888478792702947 3.8451010736299507 5.905292762353108 0.43206668716524294 0.7096334713759713 -0.026019049771580996
P 2.375941924728327 8.464172259731729 10.133042335727252 1.1764406473461932 0.06522451632644896 -0.2925205773070833
