# total energy = -381166.8168307719 ev
CRYSTAL
PRIMVEC
9.27657822551550 0.00000000000000 0.00000000000000

0.00000000000000 9.27657822551550 0.00000000000000

0.00000000000000 0.00000000000000 13.57720992393682

PRIMCOORD
 96 1
Ni 8.36901332610305 4.371494647096877 9.267721715383443 -1.8843162554907935 1.1535714560575034 0.38315299218367566
Ni 5.5977747780161184 8.5948423425043 12.356224799221797 0.9925144687107615 -1.6423019144633781 -0.5138357381139345
Ni 3.588152565599547 3.982138112575295 11.709135241019666 -1.0488877052941679 -0.7969591904768341 -3.6379505363822764
Ni 3.4056266156032007 9.329454559429015 8.60446122629934 -0.5029034074721468 -0.7630977618426986 0.21650462679208518
Ni 7.007833196970408 5.539888930893878 4.193986398175597 -1.0732018565595 0.22599096901596563 1.3106828284929364
Ni 5.594258954929687 7.537961803620193 9.923093402481523 -0.2632979329965401 -0.6960413345138335 -0.06122850779317842
Ni 4.061508514494828 0.886607093195303 12.368593260755144 -0.6691784486847185 1.7396089131466685 1.1231766458157302
Ni 4.547740353743582 9.33882390327412 1.0960351195785876 -0.11297915800290866 -0.9950434057802023 -0.9795177993407775
Ni 7.585541372512817 7.041562834812789 11.28078739357754 0.20249108612181255 2.0329599567748473 -0.8114879802206282
Ni 8.087933010749863 7.689837939691559 5.0395075271234 -1.4381108149313233 -0.7067625775860796 -1.4277438698747025
Ni 3.507121656206475 6.407369575435873 8.324350313353893 -0.7445161421857694 0.737793221639639 0.41206916099739355
Ni 1.9811338411806092 2.0732688145168416 1.6011874674476174 -0.1680475597319622 -0.2768805567769812 0.7994863277740618
Ni 4.887216728012554 4.858218144983047 13.036375153987864 3.0572825711351412 2.40475792895702 1.0485431774705556
Ni 2.6693353380488207 2.0294555363183893 11.03216211424068 -1.2353127390920533 -0.6152878693138499 -0.9978914167519589
Ni 8.526631663996316 8.902963882915394 12.794388193913932 0.2469395462431747 0.43828592860207743 0.2245470374805875
Ni 8.27983758116938 3.056112983868482 5.257964446936826 1.1496916613871233 0.4531299355934454 0.27945885902711876
Ni 8.819038681166209 5.631151905892051 6.016319137759722 -0.8023029712872505 -0.19591446134555937 1.4699143325951651
Ni 5.757350473880986 2.8345233636426883 11.374728516662923 -0.5983733529466985 -0.49099380051875446 0.5173926022272574
Ni 4.089375355000471 5.819735461364489 6.053942155415759 0.716516828759366 1.4986505241875931 0.3999914038972531
Ni 2.978913301216033 1.8660857200251566 4.012241536052279 -0.5290504981811599 0.21797838312413426 -0.5183670503253847
Ni 5.663833290413148 5.358726637873008 1.6432085107640153 -0.665912376338937 -1.4673002920110858 -0.16349285048174425
Ni 2.0413481093970294 6.758701416471228 1.3632061337819201 0.15904484201271962 -0.8820056266252164 2.2100891670931033
Ni 8.290811773019637 1.6555352276960722 3.386888855570795 -1.5533294037877121 -0.43614959898536493 -1.5926845085465666
Ni 2.119577492214634 7.814236851535989 6.4973737187906995 -3.0147909776298336 -1.4894518884074608 -0.1243945989287019
P 1.9595472440246071 6.930522195381184 4.176552925019055 1.4172859077661721 1.0748267937574327 -0.8655284549057995
Ni 6.736094395728134 4.998878898174477 11.268093324154133 -0.7613779509381146 -0.5977123223239319 -0.3061960179116469
P 1.3489999821340033 8.275607461571985 11.648363450461574 -1.1358840660800695 0.6924222497040075 0.8308697271813498
Ni 5.365582029062645 1.0488284691241554 5.58278568317956 0.11186818432691702 0.7940852113631485 -0.549061651195764
P 4.753661833618501 7.05437378911981 0.3364689076604732 0.088248488025448 -0.6060336977054337 0.34031455686191064
P 4.418397025790794 2.1607933285550365 0.6426618474919632 0.6553988784021229 -0.021408547582763133 0.5135089509021349
P 0.4169126096620647 0.35320756511998763 1.234134609566421 -0.637258202937354 0.721243287700758 -0.7309281190886895
Ni 6.482676836163173 7.182520438502283 2.566663099689166 -1.6912194660996875 3.4338967337590343 0.9492641426625587
Ni 5.960739447944306 3.1568566216485348 4.3573877548342494 0.8509544137463667 -0.14316390911640506 0.09409080573883795
Ni 4.05905949788581 2.489935594860198 9.200406226658677 0.36609886491486626 -0.10180745765680532 -0.27859342570302986
Ni 6.59661176795089 1.3554750336229977 13.361087854267243 -1.8505191044356903 0.34082492083942595 -1.1917585086501863
Ni 8.094844061407887 4.041090766174948 3.001622364317835 0.4367445522568865 -1.6019093695789444 -0.4363041222853583
Ni 7.872670016764032 8.814279796619141 9.487333569165893 -1.6302380413203086 0.2735584343822837 0.1733941687558562
Ni 6.343082889449154 2.628703926126479 2.0715155412626585 -0.1080297844174333 -0.5180870571911207 -1.1258279673956482
Ni 3.8404662123748374 3.6097855456458716 5.291948263018174 0.04823749485014918 -1.4130327889167729 0.8521188663681132
Ni 6.265781164437996 8.985785171874905 7.284404167726458 0.9835906838585704 -0.18183664309625458 0.9676117919318109
Ni 1.4097708450342912 6.590220205664476 10.334496652431104 1.8636301878963515 -0.06385746077559325 -0.22365383624235674
Ni 7.226751162713636 4.073067130763148 6.965285244019948 -1.0616655737851264 -0.3753242401678762 0.6646617917612875
Ni 8.578997947170201 2.1929459481264604 0.45701803960815146 1.7813957672754674 -0.5839669477133814 0.5835661127305368
Ni 1.8851583645256897 1.8163447084435136 8.551619054670748 -1.0059579958101772 0.34283732328376443 0.46893682071871495
Ni -0.12667352878583582 5.362882544845886 11.379236005944446 1.3597363914864777 -0.738647084999502 -3.0283283499946365
Ni 0.5535519662625517 3.760075386868214 7.642095103025 -0.3082742405969142 1.3506781379389512 -0.3641977912374115
Ni 4.913608592605947 0.6489541503930873 3.151351900225083 0.10295262700484206 0.6988919165887512 1.131144237402239
Ni 2.215868372523745 4.7831520752854235 2.9359089406248016 0.2159405267584991 -0.047960072819046434 0.27528313038287433
Ni 1.1174380404889133 3.593458768252419 12.34386932489774 1.8058492723321415 0.13813611688451047 0.746792596924772
Ni 2.929404204086001 4.2142102660139305 7.368460169226352 -0.027807252020255337 -0.2372853109828623 0.8286675773237083
Ni 8.41766897805115 3.055268815264616 11.50849120640562 -2.330233218275567 -1.0420645117247473 0.12068501128759859
Ni 9.47825087158298 0.8103758852927834 10.861075112655621 -0.29104682097503426 1.0766206524330622 0.7588042766736673
Ni 4.017018046097671 7.339610011445876 2.5828062008369423 0.09677812276301397 -0.34881719501628317 -0.03224291919410576
Ni 0.8355404586082483 8.768425671246506 9.171173873861946 2.1291534106789847 -0.2742852852459792 -1.1639062623246084
Ni 4.025710199744071 8.563793635722549 6.574424048536311 4.157132369299473 -1.1461795344688066 0.6716112264959272
Ni 2.1144382679669222 8.867072802383992 2.3472005988135534 1.8677678642138091 1.1855382387720874 -0.3910683903760104
P 6.471739750625172 6.934177167138582 6.761613334325662 -0.06639745358862757 -0.2617025634849622 -1.886328915045448
Ni 7.094244521640867 7.080478079793206 0.0004666118766424177 -0.9434915018448398 -0.1650843633385802 0.8562249181166868
P 8.385284444028114 5.36952457474004 13.149962214098164 -3.369201607573494 -2.8263427427543326 3.1520156384436686
Ni 8.071578403622217 0.636488284790064 5.664520684847725 -0.9887984533117551 0.5331526932749915 -0.06667024763404002
P 1.1097755870076682 6.031111569141312 7.5904616695182066 0.6692784645976926 -0.15400445137533475 0.04057509320888496
P 6.807134430545781 9.047604288096478 3.6496896738479596 0.8670636606034036 0.4520523862585505 1.340426378303956
P 0.24033201854723202 2.750032290631572 9.69161587769682 1.5389944752222786 -1.1345265236109106 0.14130500153079534
Ni 6.671807709741415 1.5277689180142426 8.903201363313844 -0.892881907218088 0.04940657545758588 0.5022626885643543
Ni 7.33918328885491 9.440587964641264 1.5608631102592094 0.6109334489998962 -0.6296533940069027 0.4618439184276755
Ni 9.085174429257547 8.037802382889511 7.003708830362948 -0.3967754680631167 0.6924230210349558 1.20327088016516
Ni 6.454383273066564 5.781599448941488 8.509665730374222 0.09635671895487921 1.43057851111002 0.3809117615579827
Ni 3.2751051622362266 8.1037681295059 10.705262924511505 0.5975629412302612 -0.3263971754498701 -0.04195680404776
Ni 4.099848611635248 3.315708744424375 2.6536792572494288 0.36731602515141903 -1.0147066885370848 -1.47937316401522
Ni 3.1972653956973294 1.3929524090034227 6.564961011252754 0.5817324019559078 0.10803595506502041 -0.292281978933716
Ni 0.1833014719225351 5.876099949684159 3.8403140764945807 -0.436531407804816 0.17508518330503395 -1.0260768780472391
Ni 2.2865837271091354 4.1089489347164845 9.693123321632296 -0.9766119385478924 0.5213778121272505 -0.032654809920543766
Ni 1.7845074925262816 4.994472523593859 5.389568476963922 0.4078594937914201 1.8069005964147915 0.040037218427543944
Ni 6.001667710364711 3.7170877241174987 9.199550926161134 -0.0746398961030779 0.22088630079954863 -0.34418381000932985
Ni 8.065799095488059 6.044785245208328 1.9457093725258496 2.963719098654683 -1.2815884822301413 -1.9578464634694606
Ni 0.5022413576724017 6.7139419273101995 13.411214771496368 0.9062727267026972 2.3919512641106553 -0.9728974658107825
Ni 4.526960818879188 5.0939638233352085 3.8723563047870373 0.991313506424125 2.904939566622629 -0.913050668856479
Ni 0.615914689958701 4.088011698024995 1.263790901980698 -0.27515817476923576 1.0187906287984712 -0.5519343447578687
Ni 5.281879465187008 7.580300105906396 4.700661032505006 0.7226949325456199 -0.012673738812926562 0.726673971798026
Ni 8.88846459140064 6.723348377467564 9.035619876895 -1.3639907958874573 -0.9671739330634438 -0.4016433376783793
Ni 0.060500914478612 8.293817384312524 2.9419507759181855 -1.797921789954949 -0.8136011699088892 0.5186208182074036
Ni 1.5827511962023064 2.831128136071095 5.875822580000031 -1.2877976963646465 -1.4519315228644996 -1.4276397401966705
Ni 3.0990171574166165 3.8185178286743215 0.34869636520724 -0.908441452219242 -2.3730163748793647 2.624830732716337
Ni 8.673489171334808 1.5970185732654485 7.8114028569372955 0.1517184835546355 0.008129056865037614 0.3545253011446539
Ni 1.5954601081506188 1.2336271807462946 12.928463504337401 -0.6616443450912025 -0.983475755547261 0.6814773206567295
Ni 6.897627449564604 3.7487857913637637 13.50229035961764 0.3861866368036768 1.1362378498750625 0.25146957290304434
Ni 3.1355297686783374 8.956730929377013 4.545350707234177 -0.39707140203698066 -1.4116243386050205 -0.5923122343542832
Ni 0.8147015536442419 0.887977243775424 4.434750705260634 1.6248608361687953 -0.6427863318444349 1.0416644480728512
P 6.881105864031798 0.9862765032354911 11.16375222940068 0.8530691460965243 -0.8282384602060898 -0.24956027169547346
Ni 2.7034731453260394 5.67535480036921 13.033686801664782 -0.9321758197217044 2.484864504601624 -1.55316151075128
P 1.0586152589821625 0.7021822276691615 6.788211138952086 0.02047369447331958 -1.0624811277078863 -0.8477947850714624
Ni 2.928866162558262 8.159798661015246 13.227867844341317 -0.20358123386219776 0.31589396192570113 -0.14707789945883057
P 0.7715478401461731 3.1317727545622307 3.664692683551613 0.5885052019033671 -0.012785581800442496 -0.008111059142908612
P 4.697083984003349 2.947270893438154 7.211575608657983 1.6666340634508394 -0.05048978121943562 -0.2386860479851309
P 4.094022920610766 5.58549258865877 10.203816569579228 0.3222996083417288 0.23689347486108234 0.5432237043577484
Ni 4.861919499630767 0.4895046159898959 10.240460908249464 1.3190453415250185 0.3879668686325512 0.3197390467034042
