# total energy = -340861.0370178714 ev
CRYSTAL
PRIMVEC
9.32241261130829 0.00000000000000 0.00000000000000

0.00000000000000 9.32241261130829 0.00000000000000

0.00000000000000 0.00000000000000 13.64429318056035

PRIMCOORD
 96 1
Ni 3.193336552475299 4.206020926917237 11.876388402834888 0.7002805694061617 1.3534765266196946 -1.1077176309481824
Ni 3.696066304756277 0.8101260580042292 4.1170431584404845 -0.29287230421954724 -0.2373297910675526 1.2810133264529615
Ni 4.386297744645083 6.766757195114111 11.277076589998316 -1.3348586544081913 -0.5786342226465583 1.780521077979998
Ni 3.2281277968521898 1.942399275423444 11.078920316860385 -0.7227823500531037 0.3389891531822678 0.4570130726979355
Ni 6.235659340839862 8.514625683717462 11.283544479963131 2.4598821236246735 -0.5986949979521754 -1.139567685579244
Ni 5.164253088495986 1.7121822926026167 2.609826229247204 0.016576159191126292 -0.7927137849369187 1.4264004684729303
Ni 3.138352962085453 4.060665867344759 6.878347407953292 0.8279715796979481 2.1543445652326314 0.3491838343270825
Ni 0.0622280373365987 6.881376259855235 7.7255766686960055 -0.357872363240016 -0.09748749012521275 -1.1488887058698536
Ni 7.919016733224541 8.378667616195333 6.051612539396579 0.3176327989936788 0.5061823353337347 0.3796362372796688
Ni 3.606599109610236 7.78950977532428 3.728330243037087 1.0413985960059742 -1.6045835739769978 -1.278834830744404
Ni 4.302088390289119 6.87149450234197 7.377360314271497 0.30443738334932735 0.8056032393050772 -3.0738790420412414
Ni 8.610972819471794 3.2930397568190424 9.228836233677606 -0.2413898200695391 -0.29104502120282133 -0.9705199667175415
Ni 0.12112237987438275 6.763699443732648 4.794277290475523 -1.3863943603936382 0.06408783161884446 -0.2619146794957683
Ni 8.339643996430686 4.54287698916659 4.210151688006037 0.3030723846810006 -0.9901225714398173 0.36569134506380246
Ni 9.24801057221844 6.343668814942399 0.8878805737732267 -1.026810413779154 1.8357620007311737 -0.004809248463185266
Ni 5.782636693333157 7.3545073516601605 13.241404976929736 -0.8008053036958014 -1.1892820220852356 1.280576238915543
Ni 7.150439736598492 9.085325147346754 9.06274439918767 2.7187094224443697 0.9977451209820817 -0.2679860825008288
Ni 0.3258677343428576 9.240189067922563 1.3233519147985895 -1.4253946529162356 0.47209387829045796 -0.3249465590462726
Ni 5.9901256338734745 3.920018626210204 2.560488292017767 -0.9420897364013066 0.4005125665080457 0.24061437535609528
Ni 6.917258226523685 1.854442311142638 7.1918657421283925 0.39203821048844745 0.5273800524572724 0.4737913205975389
Ni 8.846447643082698 2.3943684902895854 5.554141560146952 0.9155934898829908 0.4324153287539134 0.016409037485642708
Ni 0.47214944174252277 3.0403464368619115 11.266051904682103 1.608348697446385 -0.6602099266375211 -0.5721709835197177
Ni 2.280868115078264 8.872214791919173 7.7053414395844095 -0.8527428731053572 -1.552823410685571 0.2998302235946191
Ni 7.103669191839954 5.284558825013612 0.7009867074765924 -0.17400917663203583 -0.4432561281231592 -1.2590535343524187
P 0.7220917176976117 1.2377180957746754 12.494938878860253 -0.3648156273270685 -0.14656933525352822 0.36328582094610334
P 3.9951106608982694 1.189642413231367 0.11289348614140261 0.37461358725409677 0.2703057317729409 -0.1298337676664022
P 1.480566947869535 5.98776706344814 3.268627154554904 -0.010198280689240502 0.9741213109155545 -2.0498657313912503
P 6.880695723724604 2.758427352938662 4.802477284728983 -2.2388618683504213 2.318739615813671 3.0766008118477792
P 7.888038355661731 3.6672693717765834 1.9487329226446823 2.512079631563835 -0.18250692969040183 -1.0425648483999337
P 3.962547473168237 5.758435709838406 5.251729016278976 0.009885634544828137 -0.011671008580025063 0.5740453177242952
P 5.451038471873881 6.283930794050887 1.7265220278921491 0.1892653314601579 1.2793431378393902 -0.0037268140322839045
P 7.731459111140223 6.2499785668213494 9.726130087085014 1.6599203988760896 -2.6843381440533514 3.798249562517072
Ni 2.6282585037332677 6.418397275533277 8.601144199711195 -1.6591665514292004 -1.2071383335403663 0.5511997805846894
Ni 6.000594703389886 2.3444376476093525 0.7128597323529077 0.97989086640948 0.5202853503940201 -1.2022861476543876
Ni 5.622598833682007 5.115440935345556 7.382504421626044 0.5821797739059716 0.45974666957901467 -1.0755004227856897
Ni 1.7674362329621651 6.292498091366633 12.982026554790753 2.156940608094582 0.0853174304215821 0.29712902261337215
Ni 4.060311615660321 3.388156334090591 1.2277710813721723 -1.9886745045939105 -0.46397999093407194 0.07638953180433296
Ni 1.613802870869141 5.6407122816520765 10.589431187405905 -0.8309250058993174 -0.924801124524188 0.7885064317237904
Ni 4.645609977653551 3.0222143440663447 4.575804683235083 -0.42387463827275385 0.5234205535888921 0.9008605545481904
Ni 7.792110728481074 4.2097219247783375 11.144167883686178 -1.880654747478806 1.7896508081954081 -0.08281703259723157
Ni 7.608999897277725 1.680560668560169 3.3675892270851526 0.015577799833598978 -2.01534584323751 -3.0346206107612512
Ni 5.551524758888487 2.5374488811514624 12.043189672934975 -0.01592618431195322 0.000986275172669269 -0.22692196547066723
Ni 8.625450526470003 6.4744436209764356 12.006950657858262 -0.1842336825735214 -0.37168972873908246 0.2691672472931235
Ni 4.0726824573773985 0.8502758252288796 7.168807686436591 1.1463296868934258 -0.38144346569173665 -0.5028460718716501
Ni 6.008807749021194 5.20990494372472 4.418650245847002 -1.5183824553988816 -0.06488050272346892 2.6484547998931807
Ni 4.464606011731333 7.895496285860421 9.310742952084725 -0.03738563973730981 0.8602378959308217 0.5727227422581298
Ni 7.335582853780983 8.277071962063673 1.3767637463990612 0.32519055673627867 -0.7253927910927571 0.010512726605865766
Ni 2.100609942175915 7.858616821027896 1.4437023988974078 -0.9772943093268976 -2.2954983858975435 2.5654840153269043
Ni 4.314188882036494 9.264268860051585 11.813379147309977 -1.3022876624507054 1.1026607852505657 0.11327457775614042
Ni 5.721630824307868 0.7723516415478618 5.4653036278614255 0.567694692915919 -0.08070512846055133 -1.2052516580406147
Ni 0.9886325495511612 0.42644724548494733 5.900147570508824 -2.4726977873321028 -0.7265929820484454 -0.19189634132510178
Ni 2.4218882527227534 2.1015794731017445 6.184767357405274 -0.2563942638981714 0.15035759865136686 -0.846785884190974
Ni 6.843797614066583 7.047520299856562 8.231834021960966 -1.5871409530205183 -0.8992335604677287 -3.7542813844662377
Ni 1.696427415057883 3.7027691195223498 9.04935927896357 -0.7863153376097426 -0.35040228011521585 -0.30438030485914674
Ni 1.0184829151714199 3.482909337264954 3.005196279594208 -1.0818063103990594 -0.31748984565791133 1.360303062623225
Ni 5.9525003760210815 2.869503900835409 9.677678711307948 1.2147043188130822 1.4354564080276115 -0.7444876029406791
P 5.757121249640887 8.753083679407842 7.347384096079136 -0.09924689601848069 0.8529814714787245 -0.5364066814359149
P 3.141326811752181 0.5733964376373953 9.389715907199934 -1.2135730334221164 -1.3616881158962097 0.8280589972054319
P 7.5589105735807705 6.143665771839015 5.887280776433533 -0.37087288926474193 0.6746268733937995 -0.9019923541597885
P 2.634355361670697 8.634931420235088 5.3052284785592825 0.913554090855459 1.3612358588501396 1.8979058212497697
P 0.38139948260230705 1.3299354026814836 3.090118798525422 0.7599407042709557 -0.05323623361632122 0.4480167827365962
P 6.9913900526986685 1.259010486491937 10.79457367665746 1.1104334872174488 0.45889152066757094 0.49304348395893155
P 0.6205081827025233 3.811291326326045 7.084444512270279 1.4012000579479031 -0.3694657245045701 -0.46863034522188973
P 3.564620285004357 4.520307427902803 9.74036075014539 -0.4195127617596323 0.41798989735720266 -0.27108194781733314
Ni 3.762068987014688 2.449790234078604 8.788903185910877 -0.9604589829371136 2.512889271949324 0.37887107697887007
Ni 1.7602113630821838 4.813282893345611 4.956616853834244 0.21101275043957854 -1.2654758929389949 0.9685245335540674
Ni 7.332124238651341 6.242837598656103 2.9420919354592634 0.7119796030106448 1.7155868392004583 -1.173850518021514
Ni 1.512169927086486 4.897249864970117 1.3349536574639274 1.7696507109243973 -0.23414702246419672 -0.5065343193565148
Ni 7.636892556220827 1.0050120287500353 0.04643959910597091 0.7680180819624515 -2.778598642600834 -0.10035709836352392
Ni 5.586632965298823 5.300658631830035 9.828380174591612 0.9233168266691777 0.290464466109003 -0.17029933188061638
Ni 3.3017748575642583 8.144656411385922 13.432233833647453 1.4662939622337585 0.16633237681306837 -1.6109015457752258
Ni 0.5373326839203525 1.7145595078534495 7.929762678399579 0.9390416936036021 2.412434985886303 -0.5201827633778847
Ni 0.9422815133662997 8.29849486655941 12.81705340983062 -1.3040491252265025 2.0344769076400055 -0.7512341776358932
Ni 1.9890393064035048 6.856476095404357 6.19726498393573 1.2685555603055831 -0.6570348713436491 0.7941582306929291
Ni 0.08145271690627313 7.533385807475752 9.924899774981789 0.694450850098262 1.5020387239335358 0.49082590748232247
Ni 7.944905073426746 4.528194189087918 7.143579373056971 -0.03319011359872349 -0.44051147549848646 0.7989803346719208
Ni 2.1175953782034322 2.932458154125105 13.300306777397719 0.32382144430289395 -1.430634561158936 0.4276621303396441
Ni 8.189926047691973 2.9731598081844584 13.089038530729214 -1.0709981640399622 2.5184767933394303 -1.3296868803992647
Ni 4.754048282742512 8.968105129448837 1.6625162064444374 -0.8435804898797988 -0.8077154005520735 -1.0371462484875233
Ni 3.849736956500295 5.351857322644045 2.8020739571852236 -0.8280800802513544 -0.2633691525541077 0.925472953780232
Ni 0.30328232497739827 2.5035432659856656 0.9680971387490669 0.04200051280150186 -1.2741883331113282 1.9820680550209866
Ni 5.699173131997062 7.536741876065163 5.440102349478775 -0.04668943363673895 -0.7249071097055902 -0.0871979352737466
Ni 2.3162000593945606 0.9122698700054943 2.161706238604862 0.8018553422268706 0.16632492061390064 -1.4327886313874616
Ni 1.199319077664168 8.610292283341163 3.746354195844772 -0.10437650393556218 0.09789809530007011 -1.684318882325112
Ni 9.210944659130949 0.9987007553193934 10.203488893071322 -1.0078958362628383 -0.5263338705809452 0.16982984844336557
Ni 6.2798475772671045 8.657724719404834 3.3751748743384957 -0.9021149957805817 0.4251097962314356 1.1227177039014407
Ni 5.235196649511029 0.7327630835706629 9.616388508693833 -0.6217135703345358 0.060222949346799504 -0.09343903108745198
Ni 4.008106104269488 5.450917280508151 0.14073114284928975 0.3168480983088543 1.0548130696396671 0.25295361364773855
P 2.9512521382258052 2.7471658783386395 3.1121812205356982 2.1449582389217254 0.45847860149986847 0.5749061230626937
P 7.737695805268879 8.251649742498886 12.916438719899645 0.5441130489412371 -0.007197546189703734 -0.006797739648123776
P 5.312181133987012 4.829531858766007 12.091231794792389 0.8504013694563742 -0.05211214731420702 0.0753693180699347
P 8.347288374884343 8.718945003923336 3.7546641945686634 -0.37371267270638225 -0.8622251015641795 0.19249720813389426
P 2.3247766791230546 7.631933032638698 10.373401052305539 0.42553839912842195 0.6892232831507356 0.9397903988441685
P 0.06241914679794015 9.131685505944365 7.988433283031402 -1.6537644065770227 -3.1113472141900287 0.46052622805751653
P 0.6965930543482888 4.64829483252508 12.54272090540199 -1.135483488207541 -0.4387847226153669 0.49554850976897236
P 5.176120519924652 3.1649404832437846 7.406654131850679 0.43717135538165997 -1.9848839272032266 -0.5433913402838643
