# total energy = -381177.9657751579 ev
CRYSTAL
PRIMVEC
9.11237563952607 0.00000000000000 0.00000000000000
0.00000000000000 9.11237563952607 0.00000000000000
0.00000000000000 0.00000000000000 13.33688284150238
PRIMCOORD
 96 1
Ni 4.666629707804923 7.984819211104524 9.320266990714531 -0.5827132778119384 0.0882186632287771 2.508921031330195
Ni 5.805357704047682 2.141472013868061 12.915983911501982 0.5157758925594408 0.6064556157342007 1.0664881919847504
Ni 6.300387499557528 7.919419692607071 4.970469109361519 -0.9858558257436634 1.1468688472263473 -0.3430939193792607
Ni 2.5593564389446564 1.7491842513885603 11.960289821960545 1.4985705628792774 -0.3881846410703121 0.29901492678217534
Ni 8.570836075333485 2.273619682427358 7.1961950577397245 1.0169564038032097 0.3170769264902088 -0.3063338290410918
Ni 3.9388333941818043 1.4509999900269643 0.7559927369318366 -1.3442421525056203 -0.6176376004929492 -0.7345991401823736
Ni 0.999135516953016 3.9872565572437337 6.1607458134404345 -1.4607450073910713 0.622941529204366 1.2410357576187596
Ni 4.255233294038093 7.629272546379201 2.4976109829966635 0.5270422095018794 0.7002245193572456 -0.5915087646163814
Ni 0.891956668323338 6.341302065260965 7.521121407290602 -0.3638810313279411 -2.6036474137705032 -0.6528894817167079
Ni 2.5050193442253703 2.20976015537843 5.2503575433245935 0.21464983297153356 -0.37543376916254695 0.8107161350516101
Ni 6.7751149225980525 5.586833828739415 4.5461695719786395 -1.1350466577804386 0.8698615350635148 -1.532986835575618
Ni 4.732967800972188 3.3244588175989263 1.9443704219700855 -0.7128620056155981 -0.4158329989151999 -0.22463908297376148
Ni 4.243542116354906 5.985272444637584 4.652331479509764 1.3305026914323408 0.8576405675172906 -0.00030570416587689285
Ni 9.171879246654862 4.175372435725192 8.516826114892316 -0.7721117924158509 0.013908382550976046 -0.3657993313965765
Ni 4.14141061247871 3.5428460072756676 4.260040072080089 1.3594977931131103 0.08889357780861465 1.3142844298012657
Ni 4.116169332523583 5.853389034965905 0.30769758131580255 1.225850822348205 0.7481442258566599 0.3524249669721995
Ni 3.358229280961273 5.212971289389614 2.4562271299583207 0.9753914358772299 -0.7967432178112859 0.2622268114195484
Ni 8.637757360528592 3.0003954100017487 2.0784061747195275 0.23780595937302265 0.4608159913837935 0.7663874883375641
Ni 7.732051028911287 6.777274555576162 6.310159610974091 1.3597559318705033 -1.2520971576392435 0.6453121835900822
Ni 5.663578254653523 8.973794429447445 0.43265102946911627 -0.8017609827408514 -0.7736007182565515 -0.3688967393749776
Ni 0.17113861180839152 5.5673424576838135 10.374467681184095 -0.01600794539248211 1.163873352204144 -0.1673937281980472
Ni 1.4050007188307618 8.79711458213699 13.006888057604638 0.5429162004196585 0.05092995408064778 0.2453791437345903
Ni 7.890606361481399 8.772939450107765 0.3719480292708946 1.8620692711671352 -0.022141826204361868 -0.11877828118318899
Ni 2.3319662223380715 6.846446597503732 3.6569602848489726 -2.2201133840983247 2.674720161347613 0.2977535435712485
P 0.3451503555914587 7.713461783023757 1.8040398402701017 -0.9886835250004458 -1.3452119726180574 -0.4472585644143329
Ni 2.059460634952486 4.744084899002965 4.43113950067411 1.1421159059223944 -0.9240017685513443 -1.1123224767100457
P 5.486761721711543 5.766174489676908 2.5134820072919144 1.469552321270056 -0.2574011078961309 -0.007150495001852201
Ni 2.1733471031399145 7.845527440204139 6.036553248635949 -1.1603709954778403 -0.42608218744703397 -0.5422646828785886
P 6.601296361174208 8.732362042295426 9.789752064167262 -0.6756339745020751 -1.2270720963498156 2.514890875760385
P 3.7091468589655836 8.053654095140997 0.025296865445280883 -0.5081016638436346 0.013591879751821754 -0.2129495624509752
P 1.3099768677939156 4.562511706083882 2.11178845088834 -1.8033936117027975 0.2512304603090448 -0.44065725704773134
Ni 7.469878875269064 3.0890861601112256 11.624013097567754 0.785104605131093 1.276445247466305 -0.46559464371935944
Ni 5.489768805605114 5.002748788102689 12.11327658190229 -0.05162389482387883 -3.1389030123211104 -1.3423673040804107
Ni 1.4129558225855727 1.783510569652446 0.9031831148593367 -0.9667335030919157 1.0302004132973097 -0.3853664548952267
Ni 2.7664807325836582 0.5217919309250852 9.12854899022359 -1.0028017095693826 -0.25072806675132947 0.4183719632869698
Ni 2.872694580654763 8.247237398883493 11.197846434458228 0.6541822323862024 -0.3521673424354386 -0.01999778327816556
Ni 8.021004453957163 0.6721105873394428 8.81375924710668 0.6127188230350932 -0.5571382575563114 -0.48426110978061115
Ni 6.588857968705346 3.8742722142243764 0.8433831510667298 1.112934913483064 1.551208243679651 0.1595750034845768
Ni 3.6200369395860936 9.03387232069082 4.660573623090779 0.47006296390335817 -0.1789644637547821 -2.040477348197815
Ni 5.273923968674755 7.276332021028306 11.762916681274605 -1.0469421515320225 1.6911094228843842 -0.36640328352916257
Ni 7.920576964287323 7.0156998588346084 8.7208941178104 -0.3719738356384045 0.4266542579004201 0.0732818394132867
Ni 2.671402207294202 3.7774532252268225 0.44459735366448505 -0.1470573306335403 0.040889282015194095 -0.19856629714610963
Ni 6.309755021504774 5.717496180102796 9.904102352264335 0.9115709989871591 -0.21314419496028456 0.23903931755949157
Ni 6.7247052616912795 6.394062719029986 0.02811714564243316 0.23404649233059047 0.9407329652630959 2.2276570007735375
Ni 5.528241254691954 1.4526128804789706 4.858345885820775 0.435955737807004 0.3261863449906447 -0.23352995770548812
Ni 4.0883492503203325 2.824827272494373 7.10031646588707 -0.5489228116250546 -0.9632175195188574 -0.06298354281107219
Ni 6.682970582198687 1.0452988109070496 2.4426369332344664 -1.2747501191520691 1.1421087068335427 -0.09303511078081397
Ni 8.980883857535924 0.5273286102394301 2.5323938312698457 -0.29784404640252576 0.8383179559292788 0.25011485864736277
Ni 8.193574619946403 5.755239639154831 1.7524401031315087 1.0102921044091568 0.016041369733578822 0.6317678692467442
Ni 7.622137556413547 3.6905940625797937 5.460186389992723 0.35605125087087713 -1.6250264152123821 2.057778301370108
Ni 5.3119316866144075 2.843416518381903 10.541031880524084 0.7475215046709964 1.4803872071020312 1.9442121605154776
Ni 4.797711228438317 0.8346616965378302 11.523759654268723 -0.7549548210205901 -2.336925028473446 -1.3784167415048003
Ni 5.509761357309645 4.166788578065362 6.204664729324813 1.2206669641544203 0.7128285812745013 -0.7109421628850658
Ni 0.60852260907848 8.935531564995612 10.778241592899493 -0.20283792793827002 -1.1708760087742223 -0.5914552856706264
Ni 0.47176134483641047 2.02871548023458 9.821520538646526 0.39520606669346775 0.2678971223314483 -1.2205170688401175
Ni 3.27080515103727 5.049777757723054 6.57687063882052 -0.38671679827553396 -0.48764648131307625 0.5461591328369885
P 3.9146764869034496 1.1413614727434933 2.8155226259376294 0.5395578254703869 0.03563034760909992 1.5086757696340791
Ni 6.082246344017534 8.552091919063557 7.720774464310396 1.2733290704348263 0.4534852620503351 -2.8609899005145563
P 7.7198039963265614 5.245529806819096 11.838204038356649 -0.41456210262257637 0.1383384627033037 -0.03617079349360222
Ni 0.38124082973957274 1.6877212790790541 12.051353434633315 -1.729622234247602 0.5272424984381436 2.093179820797853
P 0.7572383986538097 6.1725044227018415 5.410040076736023 -0.5487695738766419 0.41384707883342275 -0.27370807258627056
P 7.929443305585641 1.989149546095533 0.40343493134921443 -0.29855881308136323 -0.6160219192663972 -1.037598505533594
P 1.2155999954129588 0.9068162189452966 7.029751141755478 -0.07338494065005426 -1.8451071893914996 -1.1380872443789756
Ni 3.984996688135838 5.758319622051882 10.319786138673363 -0.11567984476352335 0.5468461316016839 -0.22342372250942164
Ni 6.801950868254315 7.799901776400772 2.418510096795048 0.10579009645363716 -1.313225649519448 0.12141083371002961
Ni 0.8362572734765098 8.293519153718185 8.441833087536828 -0.4785164939873501 2.7752600651459045 -0.7419887477782253
Ni 3.192712093558772 2.6742361560545067 9.867825985657346 -0.9959715740214268 0.6836897549270161 -0.41146469464417523
Ni 7.434960252601899 0.7722492147079905 11.564237737188822 -1.1130691250680829 -0.947037310214569 -0.915267731112456
Ni 8.291724015757477 9.062658314690188 6.371202502776041 -0.03740877966576138 0.5943513762714989 -0.5993861104819289
Ni 3.1959925487153953 7.081217838212718 7.9083846059552085 -0.6023642192736465 -1.2302813473157328 1.6059573143960728
Ni 7.223753614767988 2.8628714399357644 9.205529426661467 -0.3413206295289219 0.6129772189028024 -0.21009923748637363
Ni 7.703392608168012 7.397326142055085 11.427334319889965 -0.7239293191733532 1.2673448278269337 -1.7840146929555534
Ni 2.4242199112426586 2.857066856783629 2.945570803196687 -0.6863372198521921 -1.2599068834916496 -1.1407331666422547
Ni 2.10141401145552 8.986524417930228 1.871137905548651 1.9391853967248476 -0.7048926142568764 1.6262222352926958
Ni 3.5756687835927674 0.5495910546648347 6.905557665713449 0.27764263175398635 -0.1665069547177197 0.4945604348240902
Ni 1.251010686353617 3.714058429325083 11.143938532621934 0.8623243461462052 0.2644428452342607 0.5284277769954964
Ni 4.816856329227386 4.3207877229179426 8.719613829061773 0.09866736936592685 -0.9769770351967949 -0.5913434426831106
Ni 0.2945456898503748 6.754548291241113 12.75141987856999 -1.0383847488803148 -0.667763570615063 0.52974649580692
Ni 5.517853146695981 6.219041324048713 7.436779082738738 0.41538948361987815 -0.11379933991135883 0.4817612261768928
Ni 8.867115850229151 4.655020541500651 3.8938364842834585 0.5213047927974699 1.8999213090179023 -0.9655955328327307
Ni 0.3540048508017103 2.5134300667519343 4.343969606024745 -0.16981493604503015 -0.4647932308639866 -0.1266232311489045
Ni 1.109377034966419 0.277594849066069 4.618175562666513 0.28776069402459475 0.19478394728554196 0.3893159264612779
Ni 1.9256454016885727 2.6569773169804956 7.765706676343152 0.05555819688127851 0.29716758916079145 1.088197558637384
Ni 4.953232139988553 1.3678677889328765 8.865999584238356 0.025283714267453232 -0.7232844865005028 0.6329726881881228
Ni 6.313855590450553 1.7989742707657495 7.151436892077777 0.19626875936118454 0.6090894538126219 -1.2297987512523596
Ni 1.994298038216344 6.484885764991267 0.9264998611225781 -0.8231098807302728 0.4822715901544081 1.1803075865007673
Ni 8.853984917227224 7.5450924221100815 4.014988249405263 -0.732230639950197 -0.6364346785947943 -0.2081873651756415
Ni -0.1283086247885042 4.218319061150649 13.235615970925089 1.0998965922418669 -0.2806456802463683 0.4299236726803112
P 1.7552439810528777 6.929706371853912 9.694099459225397 1.3285262844322603 -0.5822234826597135 1.5100155714914252
Ni 2.279406040828623 4.780279254231039 8.94842102004851 0.21387747358188325 0.619270765220998 0.03771756915543182
P 4.464909052798913 7.68465756427352 6.327564248055063 0.4246925061883589 0.7540222819039917 -1.8079465211808026
Ni 2.3466098096622194 5.882102129961791 11.91546422472038 -0.574598619124604 -0.2902176402055195 0.040849944136826424
P 7.823666851535419 1.1627937797667636 4.4266717029982985 -1.0299602722620456 -0.5480861746563723 0.2768327342581813
P 7.104436170821261 4.687378586670563 7.894901024023945 -0.13007236603976954 0.005594720478958107 -0.24433347607889536
P 3.464616264165644 3.863528723586436 11.77780083531024 0.47276879287029544 0.3053215857264935 -0.8231767294124662
Ni 6.407029629274081 3.420412130930149 3.507413446633965 0.879757196910672 0.16972983253039156 -0.3151876798872959
