# total energy = -340891.18315465696 ev
CRYSTAL
PRIMVEC
9.06296756178957 0.00000000000000 0.00000000000000
0.00000000000000 9.06296756178957 0.00000000000000
0.00000000000000 0.00000000000000 13.26456912547746
PRIMCOORD
 96 1
Ni 6.375326535446539 1.9216029253870348 11.227316825351998 1.2815280613058508 0.33080430337863026 0.7656626943563974
Ni 4.563485212439201 0.4860034580077387 5.9166878022530405 0.5408135522543589 -1.1454192592640144 -0.03621938734335053
Ni 2.6518062367347506 1.5716726777210717 4.550715490884169 -0.6852956659615552 0.5265148762434997 1.4892667689798478
Ni 3.3317553919272824 4.345312389874059 4.624426420161236 -0.04990614080182373 0.20992183136824494 0.3925789134832658
Ni 5.202188801416723 4.622086361889051 3.0466724910821608 -0.3884170687960924 -0.8461107125008203 -0.9504910730911243
Ni 7.199358751875339 6.155313930428826 2.653829091135803 -0.08273629995796718 -0.4485878247487178 -0.1480142952301709
Ni 5.071219854509861 4.585607916708778 11.472738366744224 0.4318540569338047 0.14862004713496985 0.13385163057654367
Ni 5.634283914673828 7.866628815190306 12.477131798002361 -0.8143622164446297 0.47618887429543794 0.7336378047103688
Ni 1.7986728308714532 6.576470041615724 0.34670836263202837 -0.05240782417775491 -1.149679062981633 -1.275135527515946
Ni 2.703628286310104 1.6124016547745241 0.0490669073803715 -0.1701592067583263 -0.5083238071567697 1.2941961436918228
Ni 0.47726041302254396 8.848501677894788 4.628870899544194 2.062475963956093 2.073825841751274 0.8536466158665492
Ni 8.30557553206388 2.1803778434571766 1.2522692243161553 1.227300667420854 0.9440394039285096 0.6611476079604419
Ni 7.022839329073806 0.8793906360188959 4.817957033423233 -0.5887738821837215 -0.2199769016114018 0.04336088348413823
Ni 1.155229309762433 7.338076536205587 2.463628212223925 -0.8957042071582316 0.009154412805758428 1.053152908328425
Ni 7.60245236834316 4.040370714102474 3.956409568303945 -0.8251117416516499 -0.677069421397021 -0.5521785995581909
Ni 7.7043291887832694 3.8848773764731734 12.645511769470625 -1.3497741380674433 -0.3675530808628896 -0.239818104707045
Ni 8.099266134279103 -0.21562159714446036 7.183652628770391 -0.8137482370097147 -0.6465905360818736 -1.2682290302040997
Ni 6.685198465672303 0.8132101266425222 0.23947985973752056 -0.26856766603591165 -0.29320911873367567 0.24973690648265376
Ni 2.1814382106835346 6.611670608343719 9.343708579649252 -0.20347504730163665 -0.39875033240130037 -1.6461032904873392
Ni 0.02807526148557717 4.938347684376202 1.451926403774889 0.12559658965660306 -1.3987711367914362 -0.17229965014009682
Ni 6.256900735901044 2.0077464338189577 7.185775175816658 1.426383756302382 0.1366657029865711 -1.2898273252001655
Ni 3.2759728254466425 4.2379796628504645 0.4818444621088003 1.4812976347314424 1.253171621650345 -3.229929320202011
Ni 5.696347117802899 5.740918793180931 5.159029136413619 1.0710331310429555 0.2842269698397234 0.09790272328576043
Ni 5.3627030231776684 2.783264583899931 9.299815720555443 -0.8857200993623262 0.537990480983267 -0.09401752929874131
P -0.061779532238599624 5.612967814533705 12.492955739688014 1.5790216663474934 0.8328525619393334 0.25719130587816996
P 3.938647964114057 6.222515836270247 12.557581043799063 0.13167236353703776 -0.6756481155694622 1.4481561149824673
P 2.5159523502124435 8.556447542258942 1.3094293618942867 -0.08646105710772206 0.6278420518297767 0.0033964272760586673
P 6.544242128308631 7.897424779593428 5.627228394283061 0.3044764641173789 -0.16936807831559866 2.6029673569843426
P 4.706290395223189 1.4374501253931624 12.501418738969836 0.3493113610438823 -1.3449569191844581 0.22093232354613565
P 4.059212624047762 6.110425051179662 8.203048896836336 0.619202630987224 0.16564332116584377 0.025860412706529657
P 4.7156343149699875 1.107449343802086 3.8226900106859745 -0.24315153995565222 -0.19645696411259067 -0.6661977687898397
P 0.34827806864574845 5.404809571328611 3.54657401012939 0.1254153268837324 1.3706170429547233 0.36099831046350733
Ni 1.3699128897451152 1.1887622904250439 2.403739215057277 1.0722253515788436 -0.010587288597543055 -0.502701832984302
Ni 1.9868109783241927 6.544305569082858 4.721443677295591 -0.6253843343179036 -0.9149221748475792 -0.5340322676664673
Ni 6.26340794674314 5.677659278309304 9.142949343312523 -0.6072079205191929 -0.4819640862163183 0.8029359768855591
Ni 8.815032138006403 2.406517014671626 10.110679444848357 -1.1878476036315542 -0.454042934326018 0.7904748683040709
Ni 2.5290392756386084 4.948199130316813 6.9281911317084255 -0.04765951085949211 1.29882927158846 0.4261330952896274
Ni 0.576284211216008 -0.08839928110406454 9.264930545105031 -0.3830864006117983 1.0364800756584345 -0.3125774959579584
Ni 1.3983796714373475 1.0922326209554583 11.342387514237684 -0.22018156142304018 0.323163756114237 0.15081654056565638
Ni 3.9280352288827283 6.757194681451702 1.5152384838594473 1.155171710665088 1.3710950110324063 -0.3201144277649519
Ni 5.81760056328535 7.520051865590604 7.882231620462941 -1.044613760509162 1.571172859727036 -0.9004900585826491
Ni 5.278471800940289 2.8809271243378483 4.876878105634539 0.3544322272102154 0.5238676684286397 0.5127728440670588
Ni 1.03316926015053 7.458804329558732 7.130263592071642 -0.5812891437709021 0.17126041024230507 -0.08333125322948874
Ni 5.041275809074925 4.325509805347625 7.307384795931552 0.39899947229762894 0.6962917599617428 -0.08479446803857654
Ni 8.433753084904772 7.030026262496901 9.447516718516173 -1.0064120526284606 0.26459171210729915 -0.7765713708491012
Ni 4.538661743781123 0.3368360718656009 10.462601732825034 0.4813981864105193 0.15959068721386063 0.12084493390423061
Ni 8.329021429624467 7.12378266383601 4.590124899833709 -1.0460862312896306 -2.1251301484522047 0.5124475995171561
Ni 7.716881399112381 6.290288709079708 7.057095534562599 -0.6305604792022044 0.02535082005996279 0.31753509707354993
Ni 2.528867079251422 5.070295431799702 2.3704183078399383 -1.644569113231 0.317991210774362 2.5272913063072666
Ni 2.3528189307727154 5.273904065195977 11.311083117343975 -0.5654282654792455 -0.2081176882799706 1.3157137060486244
Ni 0.8993037887518386 3.357992683553839 3.96178209558416 0.5633240746520491 -0.8154685621349309 -1.085012218930867
Ni 3.52534038299576 2.7233674300623107 2.6045908936650193 0.09995883448384076 -0.0701962585094275 -0.20352904046802367
Ni 1.1420608176265483 3.349047534387894 8.05923409944537 -0.506814826711411 -0.10944209138392764 0.1521637986221702
Ni 3.710487751092104 2.461275465796895 6.994513929678422 -1.114458806326758 0.3550081543183434 -0.1588278409059071
Ni 3.882901649504403 6.9852552018284415 6.084803135063103 0.7210391421097518 -0.04901808176991558 0.4978244502873427
Ni 0.9144353197016482 7.325089303424635 11.25293149109436 -0.741048238241827 -0.1000429095572148 0.9491998650835265
P 0.6041283670240456 5.6474252179064734 8.073665969285138 -1.1053738133063544 -1.6324479044874336 0.11081068959668013
P 8.460706350983315 1.6308538571067064 8.135664825343206 0.2748689256635911 -0.4810865687073714 -0.4942411038114585
P 1.5462510531917144 3.4593438518646433 10.286514613585018 2.6107565140114586 -0.49160675151240496 0.0658490372843253
P 4.208099058189754 6.419544755082453 3.648380139421076 -1.7772709464738168 -0.8542402835864902 1.2603156888942941
P 6.855255992470473 3.969289858065486 10.355198314653016 0.5098196749760058 -0.055693951128194405 0.7554590143505183
P 6.414750445144474 7.724983692277888 10.30379769307788 -0.3819743984945422 0.4122936183033738 -0.5561049311957906
P 2.3143828845591665 8.444338631232862 5.781229967421262 0.44488877863057574 1.7081411815556904 -0.43367671196484026
P 6.760357657195284 3.8866627811192638 1.7262642500595806 2.118436538482113 0.8644174812298081 -0.150769746488121
Ni 5.139581820222854 2.966427162059759 0.7524157389979836 -0.45895142737122896 -0.26799431003094487 -1.6010004846114299
Ni 1.3573334905127628 0.9878272325140323 7.110167367390217 -0.41742811131646174 0.9232895729756679 -1.137340853131254
Ni 6.819330388322745 0.4643239328609735 9.192200228938153 -0.10324419010333186 0.2846452883240646 0.32862606478038886
Ni 2.72767233974197 1.6362372599482176 9.215015343943573 -0.14420726277925486 0.5210039737275995 0.3212038041743887
Ni 6.193260576384057 1.9618515651499142 2.526688341805127 1.3154478539817474 -0.8535782245224589 1.4019965857072694
Ni 4.171348723977082 6.93616110554483 10.598829013618504 1.1768008588990895 -0.05494370322573119 -1.5303596823654162
Ni 8.29207171012137 7.08621666252614 0.6924705514313063 -0.931275676504938 0.5064073068603472 -0.6468211640354409
Ni 7.763156912426784 3.6917364708242824 8.301140115648668 -0.6626301060432395 1.2989128324412018 -0.8473188738763084
Ni 2.91172308874097 8.338247530790559 12.288907552356028 0.9859316732869213 0.3875534352442164 0.4018320566504176
Ni 8.902217887729192 4.907470153263361 10.35046291400539 0.3113747338991089 -0.2668339711742566 -0.051683544417220666
Ni 8.56735935542591 2.422485963841226 6.057994876468507 0.3666452243366395 0.5131363980540646 -0.43646250224009353
Ni 3.5177003011853323 2.8691633922026942 11.370256140058638 -0.7214602888075704 -0.3916412321603449 -0.1878208857041475
Ni 1.0406643344770108 3.4293001137844934 12.590012873880454 -0.40667138702059 0.22417114219840747 -0.9176467728675938
Ni 3.135922784857636 8.735885240674897 7.854906772706786 0.6020340896277373 -1.4750627095653241 0.600573703032127
Ni 5.794825325338014 7.917100482571407 3.637224532421723 -0.8592261668368557 0.988416130271672 -0.2783093188037078
Ni 3.1805216491389086 8.528796427663908 3.7396007223846732 0.6837895137296739 -1.1341634838445371 -1.275239914304294
Ni 3.462642772124424 4.259150755506643 9.406662672507816 0.023685773652714046 0.4522475329884921 -1.190004502073557
Ni 7.095732778660125 6.233037941824111 11.61542482465073 0.571211704930242 -1.246667244872924 0.19353773358326667
Ni 0.6790292639662474 8.850658664218491 0.22149983802493853 -0.16890759373941233 1.2056224111164722 -0.008646877041720591
Ni 4.506696656538683 0.45159408836402676 1.4151570373299491 -0.0354907367074421 -0.5524110272839713 0.3641713088748502
Ni 5.905982624750696 5.460311185809106 0.5161586705911724 -0.32441151247840905 0.8022806026897472 -0.29731697025446213
Ni 8.059633776322997 8.877911008232672 11.671574441325111 -0.40539791962480504 -0.8339918177500991 -1.1528659453500467
Ni 8.98317737861003 4.988420581176452 5.732549142466898 1.531561673093317 -0.9109999569750376 0.22898938952265727
Ni 8.119041529902297 -0.35224855481555645 2.717897022730432 -0.8235263994424011 -0.551170984229283 -1.7752505736096782
P 8.686501129423391 1.482402445416554 3.5311606208826594 -0.989292105118722 1.9728339380172282 0.9168363611511564
P 1.725951577672321 3.1952852235982037 1.3036181869751335 -1.10399338801906 -0.9726516683485634 2.339547553697958
P 4.77076434777287 0.9710154273439937 8.260258880737073 0.20564814369355552 -0.5740733427487533 0.12911103056776474
P 8.509773258363687 1.773133387761389 12.322784925793012 -0.2771227546947743 -0.5613458678797558 0.524691964102148
P 6.321075610515083 7.957131611108367 1.492595565241213 0.3173085828850406 -0.3036974198595092 -1.3157142202692567
P 1.8489723018653692 3.1847540550765947 5.888182049799497 -0.23498083121940175 -0.8035489278792097 0.5791569279192478
P 6.8582558347946145 4.082196310253271 6.125458702077807 0.6863924985701598 -0.3512389170838983 -0.05287756472532183
P 2.482673132646739 8.609348084996146 10.111302977029327 0.3487228355302639 0.33834843427447536 0.5814102427297987
