# total energy = -381173.0482031187 ev
CRYSTAL
PRIMVEC
9.24200699439085 0.00000000000000 0.00000000000000

0.00000000000000 9.24200699439085 0.00000000000000

0.00000000000000 0.00000000000000 13.52661143268419

PRIMCOORD
 96 1
Ni 2.9801128565492307 1.5326944271882241 1.1539283334900952 0.33911693700938367 -0.7981699229554834 -1.4185277505930731
Ni 1.308159869129023 7.321286829822911 0.35788747587094066 -0.29930854676319424 0.048272718963458805 0.6126170073499062
Ni 5.93983784583859 2.777629726995041 10.728320332912899 0.18798569341678592 -2.35539943312855 -2.0533025249869414
Ni 2.662049188485539 3.056220783514348 4.725846633592744 -0.9476641451652904 0.9749443210374822 1.071441679335284
Ni 2.8760108906311883 3.4301616254008818 7.095005532456313 -1.3381236983127083 -0.7747368887435239 0.7268678329763869
Ni 6.218049980074282 0.7862609658991198 8.611054180985537 0.2773770367974255 0.4577504650845923 2.11559624081984
Ni 5.408810612376331 5.618382361236196 0.48981897301877797 -0.2670620280246626 -0.032407726906744184 -1.2523529824037916
Ni 2.3001691656262637 7.067011493503387 9.382652702910137 -1.3112397294376708 -1.8106214969098042 -1.955388231736955
Ni 2.789875386160649 9.168144798155668 10.008002010570404 1.1176665146307783 0.44976873243069637 -0.5897442165167908
Ni 7.05715027212248 0.6730010953265861 12.29080636939949 -0.9276676474387057 0.8790187760827506 0.7330510789689633
Ni 6.118356451455858 7.907553538630707 13.03750230368505 -0.8433364921897928 -0.6215775589773037 0.8286518935944246
Ni 4.047841915721056 5.374966383044666 8.11411331743618 -0.8822575947350225 0.9116941548285846 -0.5030851844656498
Ni 3.4044873301842338 6.993241794288384 11.271603391748375 1.6365297878662914 -0.24620961005568562 0.6841085876319896
Ni 1.1894278062606733 1.5042937399309315 10.48055414206533 -0.7665268421289056 0.287603342511124 -1.39080868741125
Ni 1.4528712134422963 5.590489984359364 11.897371362322001 1.1978057432855307 -1.3211235642102859 1.893497407769429
Ni 5.78027459640899 0.6549976658514133 3.557593189380617 -0.49932237498910786 0.8183515401096809 0.4395573391153333
Ni 3.525964269107063 7.989659528085243 13.447237438362828 -0.10529335932287671 -0.09400518800356712 -0.48730452459262524
Ni 6.515337616587568 1.9938428463477202 5.58493461400129 -0.47627192092754744 -1.0724084141239272 0.6351799802520868
Ni 8.105203098567076 0.25446110065856303 2.9862162779175083 0.6570261295929007 1.5392844956588716 -0.012585035753862196
Ni 6.64038197018053 2.9985136923218536 12.818195948939046 -0.1853567404343711 -0.41244145673514776 1.6237406065214228
Ni 2.982830006582958 2.71900767711772 11.372186925632949 0.8384485679698721 -0.21272330537278206 0.5485548867626746
Ni 8.584105413014974 4.08891339446216 13.442056369284911 -0.3111921855746576 1.3074021008591354 -1.0765116376590236
Ni 3.417768094124595 1.3642958191455528 3.4015372815761866 2.315470458144096 -1.4817704606028028 0.8800672719519231
Ni 4.7413990828334125 8.566776650044774 1.744108108026736 0.5510966793479218 -0.10077953061292322 0.08939648558696216
P 8.433155714032429 0.4331645464141799 5.524078771052023 -0.8335837836784031 -0.8128604350881227 -1.0245195608624484
Ni 0.04151139827037282 7.505184283466129 5.070774967364051 -1.7046550227793027 -0.23568994147128444 0.6912899358717771
P 6.974240228066127 8.061248113667732 1.6259259445699739 -2.417733001060449 1.1684031217536974 0.8594310837588102
Ni 8.372860860903051 8.566083499525966 13.548389355672825 1.6230507795432498 0.5932311466241267 0.4215642449720224
P 0.9856323117242074 0.4958567761379414 0.8362380425058674 -0.4031209506651703 0.5598304596764939 -0.7981385554969158
P 5.0087888269687815 2.811168970098431 2.4165694701493434 -0.29508242449698857 -0.10821876049978782 -0.3010463553899073
P 2.6297114062814164 5.128583720632637 0.1252393599389191 0.49230789134448766 0.035503078002616276 1.022246962778188
Ni 6.691009684074265 8.554420086796158 6.976201381934008 0.9164216422112411 -0.061615458818951946 -1.503804557584707
Ni 7.7852355770783905 6.243715033284011 0.8529309554001473 -1.1812951472250173 -2.2979085380009328 -0.09193853528252552
Ni 7.991045829122858 4.727332748305069 8.531328008312242 -0.3024355224279501 -0.3350947032238681 0.024660993081789786
Ni 8.70714425110685 2.2063812794280846 1.3375171041022709 0.06540989286437766 -1.0232939159854635 -0.3981600071154691
Ni 4.168265265855298 3.4915747613672696 0.28789128808032644 -0.16134212268732856 -0.520327259375549 0.6990598096251832
Ni 8.86100518226839 7.450286762376535 2.3250218464279513 3.137156719053965 0.6750320792520181 1.173352752449489
Ni 6.1439475686102485 3.8463754069277853 4.082818290900107 0.2958434710327292 0.40492509375344454 -0.8770338844422378
Ni 8.580870710593869 6.396106485345678 12.347794432453808 -0.25388383877149173 0.7080337309890194 -1.144124708822307
Ni 5.901816229380242 3.6036895472827326 7.725778049775733 1.3771967530547702 -0.9923635449551941 2.0981513058705157
Ni 4.142609454652485 1.0532375923252797 7.888070463848052 -1.6387905588760099 0.10726565255789913 -0.05390034956288137
Ni 0.4579774865861224 2.158147245325966 6.0063969312566075 0.5380493592456606 -0.08209686660175539 -1.1966374340090422
Ni 1.1327003678014276 0.031025417221845566 4.238739265403543 -0.6622115304485822 1.3373366836350387 1.988551091642169
Ni 1.4676306984894476 6.2389923677492005 3.751727089885592 -0.17672786111477953 -0.9098550447373168 -2.4467980367472055
Ni 0.3186662469147094 8.942066824941254 8.821785801713542 0.03773402421566405 -0.8214003542383337 -0.1364229908481457
Ni 7.636503959756031 4.004127223001566 6.187680745343574 -0.9849484834380456 0.7803871450507657 -1.1337384804919766
Ni 2.055006448127337 8.746847912824173 2.403407928098218 1.1544613148616247 -1.3979774372455471 -2.2137141654402
Ni 4.46568229046543 6.9036590212376385 5.757237045765888 1.0206307673310033 -1.871818637244415 1.0454483405953154
Ni 6.170730904656989 8.354737285337952 10.681586276533482 -0.13777770510382722 0.23514898136614987 -0.13722234682098947
Ni 4.037500109980441 5.060636485775619 3.914885480006075 0.4790944779780072 0.9739359343776258 0.162958575244829
Ni 0.7888136082097166 5.159110069480941 1.5130329816720627 0.03649680937445327 0.14173129043493657 0.5129538497296133
Ni 2.4468675414267866 5.5521264136450705 5.660724615928447 0.5564219482155772 -1.6171120454613117 2.1534025130343366
Ni 5.875910883990658 6.249047671275375 2.676632151200567 -0.24238483699295674 -0.057692469615461935 0.11978152563672274
Ni 1.3280209419946012 1.8963858834033172 2.8374772669896147 -2.3859541659869556 0.8474854813611599 -0.08128979731942775
Ni 6.908261540682523 7.86036385131026 4.111373319672921 -0.2192549358437127 -0.29532616507667847 1.0867685395003412
Ni 6.408167304372936 6.12018636882551 7.14736704684776 -0.15574148867109952 -0.5275561730238204 0.465213863341173
P 1.7947330493183962 1.2152869416156702 8.297426676242216 0.6725771899536224 0.09583915588851237 -0.5419880321784344
Ni 3.9136017652452426 7.949410587959792 3.8492949569130044 -0.08033488960532616 0.14911858403794317 -1.3421369332371595
P 5.423875083651757 6.39526546271619 11.587233639390705 0.9284232946578074 0.0001496382039868391 0.40175440933494677
Ni 4.085225833702101 3.137790736567672 9.12066953282147 0.041697122628470126 -0.36380132712994123 1.2349838949977248
P 1.667128659809304 5.362628303809884 7.8859327876480485 1.128717116017985 1.0581521613152294 1.7286698976366617
P 4.657666500161408 0.925448362677839 10.526611683538391 0.10481950501025174 0.2184069860211206 -0.0819377153160718
P 7.533437098612742 2.627308484482882 9.263916019038328 0.02580307710603298 2.3150277141797226 -1.1510792857632692
Ni 4.937301903462385 7.892673907493629 8.70429309197282 -0.5183251413438558 -0.544314623429082 -0.5977030663525512
Ni 9.124568735539938 6.76998263318379 7.367011659046944 0.6894996767405739 -0.5003307616489642 0.43906651552184384
Ni 4.77364444496836 0.8811431057163241 12.878781001085631 -0.932973118812019 0.31640689700637764 -0.7185809103772464
Ni 4.741713311068605 4.248319529774162 6.038144149218706 -0.05846122946068641 0.3806034862889445 -1.625918588009348
Ni 2.12867448526625 0.5668714330908574 12.2724914842912 0.4947190718891415 -0.048360650691574775 2.3286931274819573
Ni 6.212079643605615 1.1983186169152504 1.297373522855679 0.7903113461430131 0.643116461490344 -0.5749020092976357
Ni 6.9258398378394945 3.80181044957189 1.5440898217174275 -1.0230211219400511 0.3518153584126586 1.1836068260773294
Ni 8.181301783525274 5.603373342002274 3.437152279433233 -0.15121943243102987 -1.1424951436386839 0.9537085515871575
Ni 8.140174852742668 2.4450191400432986 3.981937164392793 1.2400543675420965 0.6629229546933099 -0.5306515241196926
Ni 1.2818386334281544 7.7457259975063355 11.512079487539468 -1.2620781801113552 2.0748594252221104 -0.3696518723734472
Ni 5.873951578524161 5.567588291217947 9.56370639102486 -0.5149796219103905 -0.11732972166212051 0.5013795146284526
Ni 3.4238123666486007 6.223826234397682 1.9404462271815197 -0.5451196358288806 0.4331514355889895 -0.9776282956275484
Ni 0.06226802160625097 5.932592112415317 10.065490066198954 0.068065842429986 0.7777327381470541 -0.9618301522530275
Ni 2.79283282837423 3.7451661891749013 2.5367405134947387 0.08915711588264645 0.2856701300441532 -1.9289102400510845
Ni 8.961160811232684 2.0290086826685787 12.341355526234429 0.3232414034297078 -0.3262225975452188 0.39394802591665057
Ni 4.858023968124585 4.329399656460861 11.768097866363618 -0.9742953745995736 1.8695655795441803 -0.027437270275346298
Ni 7.41543515429087 7.289364937930073 8.924032896843254 0.6821206106676834 0.559452764622101 0.5195638988469633
Ni 1.448897150467797 3.222151775710063 13.477415363550344 1.3608941592400048 -0.14320530387730177 0.21278012675264643
Ni 2.84315555603969 7.920806576550317 7.249993064261088 -0.25037531139760105 0.3852047325063817 0.2773487546626514
Ni 8.048919276439866 1.6197356483366727 7.416424973231728 -0.31119604222939956 -0.5988397510601557 0.46835446585268375
Ni 0.5545693976830532 4.352837386003489 6.5260620414145665 -0.13364799920616982 0.8047802291831494 -1.4135071574500302
Ni 0.7143553794793625 3.713253539288982 10.849559752257951 -0.7603219988697745 -0.02429435377099042 0.26949686271840034
Ni 8.09847491753118 1.0146614554518858 10.379441965385078 0.29958494035303246 -0.9597411309344824 -0.50293374648945
Ni 0.5454798838797511 3.058531285243708 8.471676398864318 0.4830256947116133 -0.41495162475151115 0.6341407403542949
Ni 2.8288027192969056 4.811564399350616 10.213105249085688 -0.04993519426754626 -0.03646904146031139 -0.708445107494825
P 2.2847812241087264 7.5733440844822475 5.212317227505334 -0.25769189966367234 2.055377405238099 0.01913260706439286
Ni 7.403097075056088 4.632130835048521 11.196328169606518 0.5909595769811306 -0.14072984575361572 0.048648614245638794
P 4.393825686682335 1.9742867597104174 5.681055182745431 -0.8959826576305989 1.6543794144532027 0.12766581348080594
Ni 2.4392706117406506 0.9313817311188355 6.0939409175813655 -0.07371147075153756 -0.26435954149183505 0.27799821532119223
P 6.364877743971649 5.940309188191379 5.043045249808964 0.16783518661083996 -0.9197512208051063 -1.0298808251743616
P 8.524605372480496 8.070721170758107 10.723788976921277 -0.5505022402970325 -0.41539076917145884 -0.20222137740019366
P 0.5672827023986835 4.060595885267124 3.5407126637459134 0.4528116330220782 -0.9007937058659969 0.09325879675584585
Ni 4.608499023360627 9.170104103622165 5.756695464160527 1.1786024308842025 -0.17011035579826186 0.044081306589930536
