# total energy = -340864.9098237933 ev
CRYSTAL
PRIMVEC
9.36084734679774 0.00000000000000 0.00000000000000
0.00000000000000 9.36084734679774 0.00000000000000
0.00000000000000 0.00000000000000 13.70054630099080
PRIMCOORD
 96 1
Ni 8.453968520309477 9.224160324182742 13.259772355804888 -0.3067629461587104 2.3322049972899577 0.1286235494083849
Ni 0.2467051337062143 1.4745206853121942 8.4507165619164 -0.8139639525649466 -0.6254105595701487 -0.7049692331310826
Ni 1.0169062984268975 6.117135931681678 12.596638691683898 -1.6062861584904014 0.023812014817933186 -3.3719825127527407
Ni 4.454817925465896 0.4343648501527554 6.709418277779182 -0.5483003475497074 -1.4229379638456268 -1.151362878441959
Ni 3.4138823317165223 4.267479286085798 9.654651655673852 -1.747617642383758 -0.3280393390389834 0.013350710275293137
Ni 2.4638031230080335 5.525689509258618 4.922976370883034 0.49419045307918114 0.30141453736260343 0.7154122828412776
Ni 1.0905106416760708 9.16394199274157 3.8332482960511225 0.19043081252316882 0.48718291141309644 -0.13711436048821546
Ni 4.6993513425710915 5.495229311759851 8.18554247625411 2.4015527917561608 0.9260044008036697 0.8124074067111041
Ni 1.3364107425043215 1.3288939820275205 12.116777314824548 1.2549886202544256 -0.6955710797456343 0.4459434451473352
Ni 3.0963623872917534 7.9151394212240245 4.146621385069637 -0.4323294539083264 0.48852399882202313 1.4725245165245027
Ni 3.46366331828642 6.063919514109307 11.776017194514656 -0.6927750050577358 -3.0110412807794145 -0.3491781779001277
Ni 6.418573940242009 3.634105628076697 0.6879361654402069 1.447205835254056 -0.5361022628216188 -1.0330286267747242
Ni 7.063995008878312 6.905497140393637 8.04308348373575 -0.5460735151017176 2.0949284280578437 0.49349702655658234
Ni 1.5712088782946068 3.847823135481234 11.31089728016946 -1.686092172175451 0.5987153096671496 -0.5483797946373911
Ni 8.607776604237642 6.642185863367565 10.030060016617407 -0.9373547928194823 -0.754620577609623 1.0692310448372102
Ni 5.576593797518698 5.217380638693341 12.640356657381039 0.7124493435582117 -0.5807006182572838 0.13303221999904186
Ni 9.123755874775311 1.2444123340784183 5.8530785951163775 0.5151228323564742 0.14001379352319757 -0.28788667807949775
Ni 6.272956597804753 4.060192680857553 6.995197460778375 0.1761673606256192 1.2411758827410495 0.3610512751886298
Ni 4.069572249970572 3.317774511274037 1.4138829879066879 -1.4842965694587662 -0.07529269919572841 -0.9584776908410267
Ni 3.9875618657398704 3.2291928121557705 6.576687077897796 -0.34676854001737056 -0.2329982535717342 -0.9976687592181914
Ni 1.3416902604481769 3.5401508025403934 1.5328031935072854 -0.8401781490664693 0.15166449038824847 -0.27221323320829893
Ni 5.201186372659885 7.623483498215695 3.3630323363714685 3.016172945579025 -0.9152106526222754 3.4278165890032253
Ni 6.109431954256513 8.609274339824552 13.48189964852992 0.5586613790690572 -0.5154578470983897 -0.6194350587130042
Ni 8.06987422904659 6.962130267273644 12.73811011479964 -0.9730599595305758 0.12515667390570703 0.0952262048948618
P 4.883788119251552 7.875908109694419 5.667724455388936 -0.05511442447564056 0.657162912281081 -0.49465145187599974
P 7.128182339624793 2.0077051934044827 12.911915777067271 0.2995412315992906 -0.6518109039405485 0.30577692809635726
P 7.772863901315059 3.8887206778512757 2.6809232984490805 -0.08005232536790084 0.8093069134089095 -0.5037696121271841
P 6.901902574985054 7.30140482109827 1.5130199785736973 -0.16013730374595003 -0.7398027958705 -0.7311435775336054
P 8.37806140859543 3.6230130238861498 6.215403299623539 0.4992874079861143 0.8893664378656618 0.13204260239226293
P 2.0520475276244157 4.076330781806501 3.4262873267150984 1.0369909538565818 1.102733804580346 0.7716111986303485
P 5.212569163120396 4.706634081862438 10.49803030900144 1.4488305153416725 0.15004726649979963 0.7818465032051115
P 5.84458549825386 2.240621798863713 6.249312033311164 -0.33913699161404176 -1.3115485189273413 -1.9986087329884872
Ni 0.09690910898148185 3.057009384745711 13.221040913527412 -0.8044161609755114 -0.13184976965516648 0.06073074222115347
Ni -0.05185535035776683 4.828559119484272 4.28113301812996 -0.23710276265841101 -0.3247634965011891 -0.008639420842552864
Ni 1.3160977036068642 8.407501273725616 6.153449467071035 -0.42291870211738775 -0.04772893064484683 0.12136686784597164
Ni 8.156424624275111 1.9763089111638965 1.748162593548972 -0.11519802003109839 1.4357754819299273 -1.9530061046580236
Ni 0.8341572825359354 0.8880757636646697 1.3455909255673335 -1.1110510661967898 -0.24374572189622537 -1.4653022877444506
Ni 7.5839620004161254 4.210218982428772 10.738584429869166 -0.16882094756287702 1.226032856452024 0.22566829556922424
Ni 2.811914316795425 7.732939887076509 13.181871383590767 -0.2808786221927808 -0.7975875680894522 0.7600905995852587
Ni 6.88270347693036 8.257269033511196 5.132635950931788 1.3822188888597098 -0.5844176620975547 0.39159855184786746
Ni 5.249376015168691 1.7639393657875777 8.29692719968307 -2.1059612888332375 0.28921722396546323 1.9685502230402094
Ni 2.402330438012825 2.5340750045763336 8.03678176125383 -0.4294091949377378 -0.20188199178290392 -0.1466094444628443
Ni 8.559736735287526 5.542857303423566 1.044714567852094 -0.5943066390764926 -0.6119778311040105 0.5500597534429752
Ni 4.212072430217573 3.445905790734126 3.9544712701165934 -1.8516938414700816 -0.30928134170518995 0.6437993464899816
Ni 3.6300523811446235 3.162571661080562 11.917009342242588 1.9734977968534722 0.4716403356928071 2.276347009780073
Ni 5.2813339482543675 7.341881125334494 11.589634297655955 -0.2805515778706652 1.0801497486322431 -0.23997365644830285
Ni 7.745221318889165 2.4161938530391542 4.402560994753889 -0.6652261489051898 1.3909521549676496 0.3896853939855547
Ni 3.3880183103000823 6.971931074520482 6.8051160931047505 -1.069378111938036 1.3857958075776908 0.20733350181577842
Ni 0.8261593745018396 7.680509780687266 8.786681120093958 1.733643696702169 -0.5130158133158004 -0.021382322330518014
Ni 4.516009785038558 7.991935813442798 1.468726320760339 -1.8794692118111376 0.2780635213414889 -3.686799953784812
Ni 6.600024606596069 9.425156439945967 9.588258909275648 0.8972018747496806 0.2963654049744702 -1.1233154853864398
Ni 3.4688773102983474 6.087377797739275 2.763701272168073 -1.5647183623509437 -0.5517577099706885 -0.4896691681700599
Ni 4.417234123081891 8.020701697558874 8.82808414822458 1.5718475171965574 -0.10708747510882204 0.16411608588803991
Ni 0.5110423596093182 5.9349457583815814 6.798703912623295 0.4403870341054803 0.5112641207320163 -0.6490875914721144
Ni 7.482883569994585 5.908613694594233 5.975534392786823 0.1951791258414316 -0.1180210913021903 -0.6633962947853026
Ni 3.314507575525091 1.046692514911556 4.630168127557526 -0.10761583680846629 -0.04045707957378194 0.9207099851739499
P 2.906327823855219 4.962971527561963 7.312474959255014 -2.1658888184268053 -1.0397957702952285 -0.5482304135437204
P 4.703236094249638 0.565576784498169 2.6013223963438192 -0.7125555301187728 0.7596388567598207 0.30151763859937103
P 8.492675624383663 8.687137868648998 8.193516046084918 -1.8134561381451222 0.37175220654590174 -0.8397716576566697
P 4.728351247872623 0.530461437578339 10.481712479782063 -1.3388623762509457 0.0770580186262673 -0.15417928639030223
P 1.2754154607274408 0.2910521483498565 9.91708582129684 0.4265768676952653 0.04696505589562879 1.5865339155641387
P 2.390236223148533 2.525051147665205 0.03205715806830967 0.451843355571538 -0.7081885113993287 -1.0189855184180965
P 8.604612637810297 0.8071596624971535 3.3681283817059273 -0.08345055241617241 -1.8735232786403475 0.422443305142866
P 1.82951210195195 1.3578470830919604 6.212745755041516 1.0631670980313173 -0.5022392915255867 0.7283639579059391
Ni 5.9640299113098765 2.59463032652456 2.8281759809302924 -0.12461828490373376 -0.38619563566474135 -0.8957944528791928
Ni 6.119738247263933 2.4553596386368324 10.833364882147754 -2.704386320953478 -1.0410257860475878 2.771048341057402
Ni 8.30067528298931 8.06518444449008 2.9573453783690584 1.2380339946779582 -0.5533237689062278 0.004142304303147705
Ni 1.1372025485979678 4.586721626435513 8.72765910495283 0.41639349940436027 0.9949973830336154 0.06512372908252655
Ni 7.201234392876294 5.737890559381411 3.5266983287157228 0.6767711734303118 1.909508438485705 -0.20564505836976196
Ni 7.119935433049373 2.63043556789911 8.990271126676761 3.3466062387714812 0.4019133035103143 -2.310153673916873
Ni 2.5963059182124146 9.20221849783452 8.209216995459437 -0.41038123177200936 1.4682788538742713 -0.45552003309217676
Ni 0.8216071944023773 2.378993845399295 3.585186775554014 -0.5970474350464234 -0.6337252500834313 1.0272140769754758
Ni 2.913488872130129 1.9437425229960377 10.27362833035379 0.104606103447865 -2.239232621426279 -1.1965137639469843
Ni 5.840906685218514 0.8967223784248454 4.474119056757448 -0.26658457416761183 -0.21431816066372766 0.519619434675247
Ni 6.711755681379501 9.423097053513969 2.0540685345820013 -0.38525769723150427 0.7255462859514858 -0.08961837178978115
Ni 3.8089007319164288 0.18290440595810406 12.460934486662499 1.3436245735262795 1.8979508155550924 -0.15940299668308677
Ni 5.303790621210589 1.3891310351635284 0.4329607230400279 -0.08853362336603463 0.45761985304399905 -0.11403819539504231
Ni 2.9876174228347203 8.135315913347108 10.769656826789083 -0.900303910713772 0.4329035812442416 -1.4992035684775857
Ni 1.1307997289639307 6.838782380844246 3.146686303011905 -0.1651877216856639 -0.4487598315502078 -0.46824416552706455
Ni 0.4917927129785666 7.69424214384974 0.7541192288562447 -0.17217418030582607 0.17343967728181098 0.25897230903799273
Ni 0.527611995624244 8.326380169999641 11.581784291011067 0.29431237910018343 0.16512961475421886 -0.4672635467813501
Ni 8.596066184117495 1.6271305807708325 11.152354479617179 -0.892215991499315 -0.20528844636129162 -0.03246917627229892
Ni 1.886847292388321 5.660261051742419 0.6892363871465926 1.559569985380785 -0.6039333635329792 3.0084138704588965
Ni 8.005958362875235 4.926426779241376 8.256702702242396 1.467522692434537 -1.4948517192667934 0.36718849843461926
Ni 1.2667847594078758 3.612893947827094 5.8423098762465004 0.38716468444623 -0.919718824905274 1.117739533960559
Ni 2.666474830459115 1.352146327014287 2.473811741067555 2.013878257553048 0.3424645133253779 -0.952087985264599
Ni 5.361930844524924 5.038185936567063 2.265659257453127 1.1996993607638178 0.2939565384226615 -1.4207517548275854
Ni 7.145293968705232 0.8123671019158888 7.044848331569161 0.4898100646232984 -1.5121927816484022 1.0176220624116668
P 5.238816979280981 5.229203388982507 4.395464536326164 0.029302091398226954 0.8797281434449494 0.8778427534967784
P 7.138638406190903 8.053352333353496 11.10315573775669 2.0828378154418967 0.018820989361245006 0.2995492020190906
P 9.01443053777835 7.253786190281973 4.80265765467816 0.6625390889913298 -1.189670515772906 1.3714421099591798
P 8.479373860202426 4.896724810383481 12.595679204823535 0.04723784994104123 -0.2772631369273805 0.21566541872024145
P 2.324017588512306 8.668462978049723 1.2724780268076148 -0.06814606084861811 0.27942003536938326 1.5310263694151374
P 4.050756946660024 5.752100325762211 0.4700278066465492 0.04568516074194068 0.055086913671814806 -0.06312418215399451
P 1.7926678065139816 6.113166932376369 10.394508697403754 -1.0331201580472658 -0.2054421983303365 0.06757450461586426
P 9.249706076786962 3.1803759928699464 9.736032990958053 -0.3855639156180134 0.3919587634007637 0.09955645683909951
