# total energy = -381170.03273198224 ev
CRYSTAL
PRIMVEC
9.27558431730501 0.00000000000000 0.00000000000000

0.00000000000000 9.27558431730501 0.00000000000000

0.00000000000000 0.00000000000000 13.57575523880350

PRIMCOORD
 96 1
Ni -0.0697830031359654 1.4806058634608936 6.668031092217842 0.5790947072227446 -0.46257179773263557 -0.5902221845944738
Ni 7.494254688596617 3.0274393986071906 5.641581951118813 0.08421982648202915 -0.06481956757854644 -0.9029367203509289
Ni 1.5953819432137197 2.24413485820258 4.749559215047895 1.4582119565565725 0.9645714624435904 1.4426303000682317
Ni 0.3806198902719665 1.8819325680564587 9.108191510583373 -0.6093316517304151 0.7052093741663468 0.46408437772242006
Ni 2.7987405928543474 5.317117375573822 7.108224350020155 0.7773198189793517 0.0032197924888783254 1.1448212206686994
Ni 6.915235616147093 3.339228888247686 3.076700171546524 0.6898007529207604 -0.393237115892555 2.4217565203975453
Ni 5.882371480967165 1.8568142858542078 9.516780997662085 0.47044708671565433 1.2582030134266653 1.1341722255952853
Ni 5.325521054922138 9.538918107080065 8.043363712010182 0.13686213526809332 -1.2259325834287338 0.6288653508879686
Ni 3.8907180265848464 6.7568642903268445 10.701129337342035 0.23624221443032858 0.061166544206991434 1.07252977019314
Ni 0.48186567525063323 7.509809843416844 4.579903213405173 -0.631069557628139 0.011912178056553677 0.3742788296224973
Ni 3.0387185090791022 7.2302066311920825 1.7514353005249788 -0.08142066647033719 0.911290748742579 -0.8520245068820939
Ni 6.866473869641467 6.032756528731232 5.502144875468232 0.8287164282837728 -0.8643238930747371 -1.3595062777535425
Ni 2.0511470518879444 9.285509144832837 5.3899409152333835 -0.3039295904749733 -0.49256423032966784 0.5646785317974146
Ni 2.449236577573397 1.6346176646743995 7.249792954935906 1.0659045515671386 -1.5535435766810473 0.408403024999716
Ni 6.600116191753788 8.413910317765293 10.10113538618352 0.4706679444772088 1.4689429698208314 -0.10534555271705083
Ni 1.1628985510563523 0.32627145936072255 3.1134500364229334 -0.16825684752929088 -0.017000134102422335 1.1389326230984063
Ni 5.332514845461465 1.7804205738092527 4.629563764026529 -0.36937059368760256 -0.3270798033391915 -0.36885045951807444
Ni 6.431810715180728 7.949899214675336 4.336652871050081 0.1648568207088064 0.8131039185574964 -0.09007731370407068
Ni 7.440261512562901 5.093492314416485 9.299745311569918 -0.9040811183680171 -0.5053747518307747 0.30684445012892314
Ni 5.385255817618776 2.526873217910487 6.983951927092046 0.25892345807792827 -0.15764410501045106 0.5547365900933543
Ni 8.21366900455178 1.753892402798013 2.0591843456576084 1.055036241394067 -0.634578856332978 -1.0009512866242052
Ni 0.4696738472865865 4.807720838652398 9.383683783859817 1.0739749872800988 -0.09129370260967502 -1.8215085761359533
Ni 5.931893825382902 5.580302803641277 12.107754068226514 -0.2702347693256894 0.5348185110131886 -0.49540889886731454
Ni 3.5688274256746864 3.5879536804387344 3.4466531399083764 -0.7314084011592178 0.08720616280386272 1.1591294097612554
P 2.376154249112712 3.118674045483609 12.315544779477108 0.04819661430988474 0.2819140054358306 0.06332421397994255
Ni 3.5325784423488384 3.5594683611465947 5.917060311018854 0.9269922186382357 -0.9590916702759418 -0.6580584275121569
P 3.2123574466072182 1.247593911022657 3.6548102367376205 0.6957310023622664 -0.21236720758494393 0.024934301347834475
Ni 1.2974316253035632 7.062364933832508 6.862639343104388 -0.6705840707829934 0.6887352877707235 -0.13492223793290312
P 5.656390421405333 4.013545313483741 4.930456297267023 -0.42882941117486784 0.31081500474089696 0.3263519240342315
P 8.057904117911306 1.4628245684159473 10.810957820445422 0.002823328381408041 -0.368103811160037 -0.8934982006458483
P 0.909946875113618 9.040318350248532 1.1459223767260125 -0.22784242040240762 0.09824210890305016 -1.1161729608043875
Ni 7.67680746260788 2.8008275993150216 7.900845287265216 -0.21277524165664002 1.028473403303874 1.327431765816501
Ni 3.192758137045417 3.8059113596073058 0.9824763787518311 0.00483033150910781 0.4590365308858675 -0.8035584409609065
Ni 0.6910236076225744 7.397046565450535 13.36777447949524 -1.7561285080682467 -1.0182771794971626 0.3386960474218812
Ni 0.6133071972607651 4.778549126124305 13.24958405717275 0.32683631986981776 0.4407174208617055 -0.6675121167258891
Ni 1.4609694515620144 3.3693374347870164 2.4689407012374445 -1.6157388192628688 -0.011768710500153925 0.7855360362415569
Ni 3.01142046457348 7.059628636472957 5.208542023905267 -1.4185470338667827 -0.14757232259674583 0.47447369137654416
Ni 5.290088323012021 3.567371158944349 13.408162228522212 0.6044054180733914 1.7027485497852095 0.08516239290095655
Ni 9.316489596293517 8.704263932158593 10.476654632665598 -0.8423119075800203 -0.3773597825406662 0.6085999157707133
Ni 6.100867144023376 1.462666883483363 0.564320981615814 1.734373889999974 0.4081579988684455 -0.6250809441448719
Ni 5.278197023978311 7.844046246989927 12.804625004172685 0.011167843691361411 -0.5893824623019978 0.20857508753236334
Ni 0.3394548472831964 6.438572616113315 2.4798293096116035 0.921618098810516 -0.4116698686764459 -0.8207236398862834
Ni 4.169783254921967 1.785559247494647 13.014641855647996 -2.766163759271591 -1.4673154615197375 -0.8718579966682534
Ni 7.632182626686525 8.185870078495595 12.219048093644508 0.9572461324267707 -0.37319973762570563 0.7324057320754805
Ni 4.9796994465962445 2.447854515517217 2.1867551663520093 -1.1170247672817215 -0.19196061890413393 -0.6294317649143998
Ni -0.09182271891911473 3.446018689944331 11.154749930933114 0.7539788302605661 -0.8281361303002706 0.590950578120066
Ni 8.774340971315908 4.955675683337814 4.748934968226547 -0.10751042157885356 -0.6864809445189081 -1.5373929350631135
Ni 6.041586884955952 0.4837625322337796 2.5676097289059987 0.9776213536490131 -1.6315994404442091 1.9997209922160593
Ni 8.715784207821518 5.903927938809864 11.096578104185916 0.21560834023006095 1.2344280224942548 1.6738244105516915
Ni 2.570394259303752 6.303668518495317 13.148037743263746 2.317577991405402 -1.4542264895462633 -0.4765087195287019
Ni 4.626058520731023 6.458134823338035 8.306434122832693 -2.3738368138981314 -0.6269282817662558 0.9615054219237568
Ni 2.395762834258782 4.8826953863040945 10.959218759411737 -1.3174576853229247 0.7269251685768835 1.3817020971242915
Ni 8.286000010686623 0.5795097508573893 4.252768197148946 -0.6360556979888208 -0.1471257219776305 1.3815146637038338
Ni 8.740355230551858 7.129056384731395 8.593398438733859 0.9259398661143216 -0.6774535442093171 0.7404458287711377
Ni 2.3261217475621425 6.517591318506584 9.000821057311446 -1.5495622234357957 0.5941004366029574 0.7478351792566733
Ni 4.021921166079248 8.402714687551807 3.6931350958230196 0.5792600291560153 1.1859079634066803 -0.6992176753592861
P -0.22419921982362873 2.554848380067795 3.9501235060399114 -1.8815469202757724 1.499199711822844 -0.7292471318418409
Ni 2.634386515180166 1.1467219320900577 1.4773547711743764 0.3291767950775363 0.9781484297970767 -0.09906640457655842
P 2.3376420232250656 6.108315438191918 3.3222592068263355 -0.5810921972687476 -1.0200514977887658 1.5104737420747663
Ni 7.754907882158453 6.315058935978465 0.8880305246012553 0.09484156786193344 0.9736847375987683 -2.7568761633220777
P 5.894123646236829 6.530558585315575 10.035944724819466 0.6247826961781627 -1.8574415425871365 0.37152286414391494
P 8.840512989495693 8.484145041855191 6.770215566324599 -0.4441894385707059 0.29424527330767386 -0.7158231451264511
P 1.5806244886406837 3.460071200112872 7.38932464154604 -1.9924414278355107 2.1303068075571376 -0.7435514642796549
Ni 3.1078772653937192 8.7182051353159 12.66661358582435 -2.0256140579327373 -0.313562228468731 0.7300063786053685
Ni 4.316300384045584 -0.042057354195511855 6.09148210785933 0.5995784289983932 1.762948359203557 -2.8972522252807003
Ni 6.643340414450424 7.021153512922389 7.828052357033745 1.7191922971635294 2.5997354803106068 -0.06822319394345669
Ni 6.808306680686402 3.329424595674651 11.527554213899462 -0.9941890281997072 -1.5763515757144981 -3.3462270010551913
Ni 5.016542067315351 7.106164242753862 6.168538096621139 -0.0034223954179876544 -0.10982544286527537 -0.30080775701654
Ni 4.513267416011905 5.71586546774242 3.885245431865745 0.9133116358273496 0.4389492732176892 0.36394890845139904
Ni 8.994663924473244 5.1325054218546935 7.041879805972955 0.06619279377698924 -0.9960296809528716 0.5597710671934681
Ni 6.0724745805739335 0.8221525424428185 11.895036166611876 1.0122088618158955 0.5536441283601239 -0.6249377336987882
Ni 8.28351415410235 8.57313499733835 2.289280054401463 -0.2788474506953649 -1.2805338157133817 -0.6161088225532485
Ni 2.225286870966622 1.5256666518429227 10.635748526500453 -0.5160111484986984 -0.8353341907106064 1.8901588303144994
Ni 4.257975510157935 -0.11016704192922981 10.858744703044307 0.24413318714263116 0.42343292274964495 -1.6868627317928886
Ni 8.527341437799018 4.086442130259033 1.4037196178912192 -0.4586794046567649 -0.20875017965764694 0.2985305309465891
Ni 7.654462580102259 0.43418267919557 8.388472955464165 1.5527691604088676 -0.43361449126833707 1.6193849006558885
Ni 5.723323037495231 4.684207158517548 1.8039601515688068 -0.12371737035601921 0.05518024471656949 0.5840692776192006
Ni 0.9197381818686757 -0.33237943160229644 8.461456035173164 1.7039307430187687 0.5444370079395592 -1.638770761381668
Ni 8.14927789855177 1.8133581735508306 12.995812419580577 0.1962368776819846 0.2215596727174894 0.09735687808461942
Ni 6.841513272371801 0.437248259796694 6.318794213763859 0.3019040754045123 -0.25103917023384503 -1.946470617532351
Ni 2.4735849862812658 3.3931942375285926 9.329435529258687 0.12610875340633118 -0.8349305275142848 -1.205548620455743
Ni 4.262576199955689 3.51042834711288 11.181887507830872 0.6237807372762095 -0.6255938792255484 -0.12596862828404112
Ni 4.647021341180464 4.108926146528699 8.909835923651883 0.7058089554235587 0.023804301508449328 -0.28756451885338863
Ni 3.3159935496521773 8.457264398641703 7.824793844279811 -1.8439193397309857 -0.5768935858063677 1.2605067218591774
Ni 6.289838622349247 4.917803472764774 7.325857383739288 -0.8600682031221769 -2.700106976851834 -0.676601480621667
Ni 5.687203912349158 7.16149310292241 2.1643416445227928 -0.3606072456726757 1.0975046949709226 -1.0848019026922737
Ni 1.0501816510113917 2.4551915026745212 0.2713099123292537 -0.36591066016346013 -0.14004824630555882 -0.22864897546410298
Ni 1.734209612977785 4.955286108798487 5.13530108295357 -0.10290043361066795 -0.24125046627819743 -1.052713249687845
P 4.514334108202917 5.886452738045817 0.7490692864237065 -1.5079319494895191 1.0147565679384136 -2.1866862147881307
Ni 7.406173740371885 5.796674357899736 2.951776602602685 0.2510461122123805 -0.10453616944187803 2.938104226300056
P 1.566970828595738 6.9648228896527185 11.21715791701627 -0.49680552210452494 0.5924585301241603 -0.15584073325312517
Ni 0.6750965018731339 0.20680286152587335 12.524679522888373 0.5042308680343187 1.6465380640319125 0.414043511114945
P 7.35961030733817 4.275997970393893 13.1309994225188 2.333733775229658 1.5979604122335254 2.6862626147695736
P 6.86031488168641 8.735977154776576 0.5851919737809856 -0.33119022596313935 -0.7157568106648898 0.30739363776417383
P 3.7483099812926906 1.2588266435732203 9.187432826999116 0.12254057643909863 0.2335502694204623 -0.6128196102790157
Ni 4.373391605225367 9.162403590405852 1.0170492640001507 0.8985604456601041 -0.8702574849503528 0.40779881575681376
