# total energy = -381164.32446080254 ev
CRYSTAL
PRIMVEC
9.24972189900111 0.00000000000000 0.00000000000000

0.00000000000000 9.24972189900111 0.00000000000000

0.00000000000000 0.00000000000000 13.53790297540805

PRIMCOORD
 96 1
Ni 7.811676794686136 2.905152620418933 11.578576045964345 -0.3894956465722518 0.41831385635552476 0.7413575419521298
Ni 1.9521445344714572 0.8700723054442205 5.65578401344227 0.6493917529760944 -2.512625476764976 3.8866836841907646
Ni 1.9139431834706606 6.185501705885156 7.548531459426654 1.8911319928610462 -0.08045007502695177 -0.25323437811295096
Ni 0.6091191542494327 7.5536558052994 11.350028370095512 -0.3307042874656563 -0.2799106018525566 -1.5971649129154237
Ni 6.75453534080477 3.6657942422590066 0.000577182639818331 0.26234096839990945 -0.22257371580430055 1.1854371944178488
Ni 3.905112294182399 6.856328529125294 2.8322648126982846 -0.45650785092674284 1.176746094401754 -0.9346175963939775
Ni 0.8587108721671555 2.9834700148314615 11.68882810486362 -0.9831687658298035 1.691978455752899 0.43108041199257374
Ni 4.436823301671453 7.307233967039782 0.3354568853124914 1.1358401002160115 0.6237838226000032 -0.31844963846801927
Ni 3.0547576206821008 4.41128481980385 3.8064251624396146 0.424118893073076 -0.39233105913851785 -1.3602524118909476
Ni 6.528268646329834 0.08744409490465635 6.070030028978681 -1.4908767937794452 0.505865061203632 1.026776475217425
Ni 6.5185934373354435 8.50522093464733 1.3819352599120853 -0.8738585720380498 -1.7744962119421568 -0.653331711460449
Ni 4.654497004601657 1.5764208352820246 4.222688542298852 -0.6767876284905441 -0.5331915169327269 -0.9285037701867558
Ni 3.9144082645833196 5.983617278053829 5.465684656146078 -1.0092775471017135 0.23507313382289194 -0.6698950151357689
Ni 8.331131920800841 4.69871992448902 10.060137091735225 1.1730861290516637 -0.38692685740381105 -0.5028599558287211
Ni 1.5888894602575874 2.465568841977805 4.413532502199296 -1.3556334250616977 2.2422199861893772 -3.6689546980732746
Ni 6.889969767282655 1.4247993956682092 10.264667864971234 -0.4497862159321931 -1.2613258753263632 -0.7527768395326648
Ni 8.744215246308002 9.21173318456085 1.4854192973761802 -1.8559796133296296 1.3292217678373883 0.4801522298185601
Ni 0.8661985219577475 8.52221267357916 13.299311040644538 0.2893817745677855 -0.1326622382541328 0.5512663721565667
Ni 8.325591337447458 6.985861633099908 0.6144146199753302 -1.8113532328695061 -0.3495671858084302 0.6597193601543477
Ni 5.676850254823461 1.4716029879355288 8.210169609038658 1.0732468508648225 -0.25773560841741416 0.22223381596637856
Ni 2.9890290976284297 5.382616604621199 1.0580534764500533 0.8081293481610404 -0.4299015611931241 0.24291037047912356
Ni 7.993137836800815 0.08932178842842431 8.224478928650822 2.0174083821934934 3.2046502339202485 1.3667745292801816
Ni 4.224616184320296 1.848889890107803 10.002371654172252 2.529179781579231 1.02093981393099 0.7584744041380743
Ni 4.667067376516932 7.11981610409108 10.571383089759566 1.3353929296451068 -1.1889117832300105 0.8660115651898054
P 0.6564268563544143 8.990803579559875 9.37648645420271 0.10561551854898585 -0.03743191959421295 0.7726334692472758
Ni 3.1206248895626505 8.536299999868316 12.22190992112224 -0.9271703960873129 0.2630855598754179 0.19660583098562914
P 3.2359966694737734 2.3541559429936414 2.633135876988781 0.4780380116890348 -0.3511553562311565 0.33827438650343034
Ni 7.639039987160986 8.510289782189323 12.611341708007357 1.2383520401390093 1.2655597109020527 -0.17467869189523463
P 8.987815919421074 2.502290237491888 0.15264815873272303 -0.20514883545963378 0.17256884464108344 -0.42642697238096233
P 5.195651978040303 5.152215284505256 12.945037446290659 -2.6504317211138932 -2.233190271886941 -0.162922579800571
P 0.24801371538001427 4.114831236371518 8.069226048261482 -1.6153773221583922 4.275421369551069 1.6618867785738412
Ni 1.65835487091521 1.3831108995518435 12.947446998817465 1.0827064536158257 -0.19310193159742875 3.0356068859339205
Ni 0.06001311995841848 6.528823629637352 8.995408091067914 -0.17759560843171351 0.3224417903465479 -0.2643351160118029
Ni 6.199283791355176 8.445994966013407 8.8180345010131 -2.3895035739011106 -0.8606518435397889 1.000315709922735
Ni 5.371831429011773 3.0592437357512017 11.755705443363851 -0.6034795638250122 -2.0116313705003996 0.8678959266967117
Ni 6.272754331548719 4.95562169753893 11.068575985465381 1.3977365248793348 1.1200208737955677 -0.47198460640610324
Ni 1.6631554765252374 0.13667943903108254 1.8515251358463327 1.5546062136176066 0.26869750674555665 0.2804726450036138
Ni 1.925801326807954 6.737349357715308 3.9337216836849325 0.7771305857866809 -1.1379368348440402 1.2340513558811264
Ni 2.4900251063957484 3.7319575022369 6.063585747806222 1.969640885001227 1.7625845481062354 0.6160052070958488
Ni 7.719244324819075 4.794371297539683 3.4111050026617344 1.1622016209286758 0.37465446779436123 -0.9839678646923311
Ni 0.38381720575739814 4.99639447119789 1.884205327909508 -0.03603632479826697 -0.6512953977567106 0.8089346176711552
Ni 7.6663174167254775 7.581155228186899 7.073080034792841 -0.8549735622080888 -3.3501646455467013 -1.24293246042084
Ni 7.6088858941191955 9.231157600323968 4.110865880639304 0.6523891450415217 -0.8909895752913817 -1.8639991411999963
Ni 6.021920375994336 3.6694756315322072 2.30448956183171 0.032394614280621625 -1.997029561426825 -0.3183149126623679
Ni 4.228834057457431 4.437174791099547 10.145264131330995 -0.1381281464647105 1.6139740140529624 -0.5135462318979735
Ni 4.141479684854156 8.863777150190883 7.332913044678622 1.1388866003518192 0.04349046708346704 1.3553763147455689
Ni 2.387408692835739 3.1162590208768455 9.986965317555564 -1.334722128830327 1.0982323171655666 -1.7502753917215792
Ni 4.138908262195991 0.01615186419312131 1.518695171522758 -0.2770047410596713 0.10601403953898517 1.0589815991950602
Ni 8.139264941670207 2.5568450966208705 3.474881834417302 0.06496997711348167 -1.3783293239973167 -0.08224419081289706
Ni 9.067844512365115 0.912245486982485 11.49669843363409 -0.45836135919571386 -1.8157855576092472 -0.09230543170364104
Ni 6.55179068884679 1.0944270824247584 13.534870005631676 0.4141700093904802 1.1491807831889758 -0.7331480095581437
Ni 0.12739734321285023 7.174121220731679 2.723894147211497 -1.4859449036954668 0.7828980843980775 0.099349483034616
Ni 2.2931632774974546 1.0176821407168626 10.823905119540981 -1.8715278454768738 -1.3306821544329985 -0.5663425497633988
Ni 8.432712365520151 5.051171323649881 12.63339489470375 -0.5241435477978458 -0.167235348243312 -0.8662226527593468
Ni 2.9371936567062833 9.130326383069807 3.884403092062379 0.14401288738026163 -0.8598676570755965 -0.7081903111715417
Ni 2.3943922327886695 6.655470820412873 9.994736008832989 -0.571903588790944 -0.22225078524724304 -0.2818690111305081
P 6.856189783298415 7.116745196456149 2.9609968907657147 0.37593719116152674 -0.4733568041632816 1.2203070097118403
Ni 1.9819841369723217 3.3189111756169067 1.1387045756706937 -0.6483527701886188 -1.129370433331268 -0.10904562727645735
P 3.929115322232536 1.4062074548663686 12.312979906969344 0.25701004310529935 0.20418827131857736 0.6505734319890215
Ni 5.345543719679021 8.99114581926618 11.718747254971893 1.3133292649768478 1.351205471197331 0.2594921860972047
P 0.9749484260380055 4.684077614892347 4.453523674366837 -0.706773376219357 0.1618072352492052 -0.2686725670448921
P 3.9444143620764387 3.1759012269914066 8.332078167340159 -0.3670846258669033 -0.2466335849669817 -0.8718831934792339
P 6.550995212772681 2.2378036925725713 6.33079726076545 0.6767007252036926 -0.6765675420599381 0.13987803927628167
Ni 8.579949437004577 3.372152574251431 5.790891924740898 -0.7230870257777159 1.627308269268023 -1.3455999520850956
Ni 8.019869532779582 2.4191722374693314 7.931884329150096 -3.024811337980313 0.7771118167336035 -1.4001459056517758
Ni 0.12020383457524261 5.8103792386122 6.140981869928272 -0.032159872561996226 -0.3736813052478145 -0.07664689923077767
Ni 5.066044876291353 8.324342625005542 4.4025262582390425 0.889040679095127 -0.8452542780377958 0.003605972183703467
Ni 6.282651533866117 1.1126027857459606 2.5064072886614897 -0.4137653177528938 1.6567607702011853 0.31888955421891535
Ni 0.3257058285994067 7.968801818766168 5.097074917986843 -0.48165144007190597 0.6120529073163202 -1.049850069207437
Ni 0.8981692603594795 6.132732043062022 13.473773743251419 3.3509547455481643 -0.2536866351590212 -0.8614473428578906
Ni 4.620948263662217 2.22132993806109 0.8286011777899659 -0.7235217993222894 0.889428915672481 -0.3965996046068847
Ni 4.136346089259618 1.6800084696301896 6.572015205544911 -0.7681060136905674 2.091614276082946 -1.078394456504033
Ni 0.4626794087834736 8.159965819040615 7.276419443862045 3.4517743853704035 0.8661846004325598 1.1549685935153462
Ni 7.554062793058246 7.2789668172435515 10.556815702909407 -0.30736998361509 -0.11846306393561534 -0.49645585207459014
Ni 5.739313626084568 3.4259859550806406 4.913893427618858 0.2773816647831158 1.744802541532466 -0.6373566761884313
Ni 5.346320696309546 5.344674245830577 3.5431124072156983 0.6864953426966113 1.0797573982898307 0.6414406164498179
Ni 7.196274304423424 5.9219401331450365 5.179750781307744 -1.0400073720854024 1.2714755621658556 1.079873355042405
Ni 8.776829765346456 1.0218907641322048 5.915752069266214 -0.0762784601477654 -0.365236516914571 -5.167917354184647e-05
Ni 3.2517211965201063 6.209615730596797 12.193344930284308 -0.9619530509841367 -1.2489213310144232 0.15822234611142427
Ni 6.219919920673042 6.830605052821852 12.404076717009646 1.0088571717348431 0.9103962619527676 0.008659218336894764
Ni 6.206618820736201 6.077298460362803 8.855683643622918 -0.2865232220730678 0.6848336387234721 1.271601032000126
Ni 5.101628556025025 4.491331912191475 7.078048985339482 -0.671302694116573 0.4130042712171533 -0.6248634288174271
Ni 6.122538849647281 5.921042910131216 1.09741659250792 1.124469910705857 -0.5156414238641055 2.236472799292955
Ni 3.08429198236383 3.8383848011751964 12.452000450585974 0.35634692773442495 -0.735129815874863 0.3691865027012545
Ni 7.451474128663612 4.994812768771466 7.496762616501409 2.2492666086235134 -0.3284787405692472 -1.694182148272437
Ni 0.9961487883851787 2.597506873618329 7.175399532283329 1.7096784441358235 -3.4831711545141304 -1.0800476758367399
Ni 6.3019557032459375 3.7010264325645843 8.984199278200416 -0.8622914360257408 -1.2849378583183484 1.6267469974479143
Ni 0.19033892509060338 2.0336623326240044 9.400854846263632 1.545875518612828 -0.7279273845891527 2.570053894085774
P 0.6522191579112516 0.5233418592116877 3.819881657702559 -1.2853227524615927 -0.20646986826390248 -0.45160295742595774
Ni 5.438558922018975 7.084611662950878 6.708870389290041 0.16297554452569352 -0.4573218621876059 0.44450285604606676
P 1.6022923071341377 4.832970386577534 11.047863083456646 0.29950086527965836 2.1946239815779687 0.2111842430204363
Ni 2.3523522472442093 1.1120015538294832 8.389885228651195 -0.12784219115767015 -0.35956594889235494 -0.47283795554533403
P 2.5105039904431488 7.455007522388142 1.010951118168853 -1.3891603531745493 1.0921557719541837 0.28752003876869836
P 2.816031550953394 8.04534326659464 6.111916469141394 -2.06695302589084 -1.816473327704891 -2.2834023739649574
P 4.136549583139041 6.5865511433409765 8.652588427209022 -0.783720837409689 0.10404226052459502 -2.10213908687367
Ni 3.8949376002112426 9.016120068104472 9.622822270049666 0.01582719684024371 -1.8627426430850758 0.046526939916945675
