# total energy = -340866.89843403915 ev
CRYSTAL
PRIMVEC
9.25105439495960 0.00000000000000 0.00000000000000

0.00000000000000 9.25105439495960 0.00000000000000

0.00000000000000 0.00000000000000 13.53985321793267

PRIMCOORD
 96 1
Ni 5.8338535822777775 1.4234227147954814 9.330231258267593 1.0583565640165515 -0.6444125545939482 -0.20531492872385285
Ni 3.5664849404896697 9.00840835798104 5.067493472048928 1.0827159666975226 -2.1345843518865695 0.4454878456671553
Ni 7.442362139656501 5.481369912856739 1.3158736583884365 -2.313203259376474 0.405767644259398 -0.22094157951751628
Ni 8.358253515630476 8.842166912925766 0.0008159429857470881 1.9410000813360833 1.0480618669587627 0.08740028109253979
Ni 8.0036421037296 0.32356394869831717 5.826577628102153 2.243015999728111 -0.09563758140066755 0.7464881783104756
Ni 8.095264545122333 0.6108471127990955 3.4352235818029544 0.8113419415610673 1.6848439015906467 0.04142844234811575
Ni 9.084803564061533 7.650880902680757 4.370813227613113 0.12146611242799726 -1.0500020214042691 1.2901448564405846
Ni 2.659705852961962 1.1511364347558664 12.116787567245021 0.3768802718010864 -2.500266440978991 0.7259203814614531
Ni 0.017227313243290562 4.131798364220204 5.0073088883485335 -0.14205344966104566 0.6963267269647363 0.27772413572419913
Ni 9.057290928691783 3.6126384501936633 7.421978366699641 -1.607947091132592 -0.049638231852417745 0.706777489984415
Ni 4.027733254847539 5.830569458015417 1.9951517446554436 -1.3149986822594708 -0.7403036467663185 -0.48623340301563356
Ni 3.8899480526965515 1.1537729852200151 0.7947580714912964 0.1667506952974096 -0.0713257441281804 0.17014172325682958
Ni 3.6665443433676805 6.513121492385098 9.425579099210898 2.044490840232582 -1.2035218198337014 0.39646822123534303
Ni 2.1183434087110116 6.189177325356687 4.476709120623865 -0.9745545417982314 -0.22342629361258295 -0.9774287780222328
Ni 7.684304961722755 1.5987949504055443 12.489634657303547 -1.5002566923324483 -0.9915150809119698 -0.6164821467322673
Ni 5.552371754303553 4.7485106454202475 6.025654765148478 -0.3326205306517626 0.5525583514951129 0.04498582068207091
Ni 1.8792591624111503 6.507080553953206 11.289732215120615 -0.277412003800419 1.3887931996431178 -0.6311821719466033
Ni 6.525286628737223 8.571582826870022 4.32169105459703 -1.2835188664836346 -1.80852116273735 0.7324628105656611
Ni 9.03812274426471 7.386661541956012 11.661834595311198 -0.720879476603436 -0.1326604384819199 0.8714952140121958
Ni 6.177289720632368 3.1977749218962916 0.33389922651778037 0.14240543368382572 -2.970156112529278 1.485657454362035
Ni 9.15503756800475 5.036505215593634 11.207951970355278 0.6244301979347504 0.7215780453323574 -1.7648072667891672
Ni 1.2689578618134052 0.1283121225885727 4.370325697053603 0.6903357994886239 0.40314383348330574 1.6579938712773383
Ni 4.006483583211926 1.7849261621201862 7.442559187112242 -0.9522275961662569 0.7414932961990456 0.5207275801377612
Ni 1.1322365309023368 8.921096907873546 10.50619474734148 -0.7317801826763397 0.08344952397490789 -0.589296587456411
P 5.495015217890491 8.558751614611165 10.122475818316401 -0.15293204424676243 -0.36830461431693345 -1.1474566014090175
P 7.4671919692908 6.1007372466294525 12.590763482054035 1.0479891047392984 1.409567970296624 1.840455035331469
P 2.773040518703318 0.5441553375320963 2.7980516690011163 -1.0743920202128592 1.3111394564143806 -0.17210244652762619
P 2.5796842336114825 0.4293691813773198 8.90877635380985 0.40096276667158687 0.7029648011065441 -0.875320501295557
P 3.8088440599976314 4.241626880396955 7.524489298956596 0.06340006152320049 -0.14289240062257327 -0.8167047485348774
P 1.4884853794072643 7.635533403663134 6.150776199122718 -0.5191085564770995 -0.6721568145867521 -0.8767322940414191
P 0.11056304988500848 1.8055097578490669 5.029771373197655 0.8385796942310978 1.537242011307546 0.2138103677893737
P 4.038964034719387 3.6702817692887892 1.1419038826042156 -0.3058214081810475 -0.04259340919049439 0.55890691942096
Ni 9.025892850532763 1.6238375542878272 10.342674037344123 -1.847420925126341 0.3192266258433599 1.6238532208398875
Ni 6.025156133323855 1.7282819568851588 3.331616399616169 0.40639679320296457 0.4693412552459852 -0.7669647009972728
Ni 6.217365287687429 5.043526765777103 11.438210710890933 -0.6300480583421602 -1.2340618974040876 -2.147779253310288
Ni 3.1188541780027728 1.8177674047437935 4.518777364766567 0.39069686596920455 1.3163184295121588 0.09524934482331339
Ni 7.8289636971890495 7.658235490817593 2.496911350724028 0.07060712079460098 0.10918780928127646 -1.167798141179847
Ni 5.30238051503095 4.143260420448556 3.114856797456953 0.6301617011018888 -0.5771800066985351 -0.01437606621601395
Ni 0.6709373357460368 1.6072319118908203 8.34397543848533 1.620791808305744 -0.2782985201704304 -0.9363078396122068
Ni 7.491920037328238 3.7133916821411863 9.89171567063984 0.06403358134214134 -0.9342121334254426 -0.5654447205394778
Ni 0.6285739829724353 9.177249349283422 2.2880993292797247 0.8822874195316934 -1.0693963667704809 -2.841441546068984
Ni 1.8190718033944775 3.038786303380992 6.334592797061465 -0.05089575840860267 -1.7650520358101216 0.25900213383466364
Ni 4.99902919478568 7.2226588520316986 11.839329022768544 1.1789263898825246 -1.299045244254008 -0.27618378782027275
Ni 4.812194902947265 6.329728592731467 4.23177265739902 -1.3732948468972026 1.147647891484217 0.9135517768626138
Ni 9.079724735272698 5.58901518022809 3.036650234952319 1.2882239852687878 -0.29744012609588777 0.0986668551452946
Ni 3.9888510737920404 2.2417524725416937 10.414773978931617 0.06460282358205004 -2.490389548184911 -0.39963247789593753
Ni 1.8952634862812465 0.4320621632724555 6.658303837522519 0.4051132985048507 0.5819740856530686 0.6983285878861134
Ni 1.6392035554139714 5.82907078722527 9.339330595237897 -2.410250062419842 -2.2249735404041036 -3.5702513332630894
Ni 7.381739981089599 8.86079853620575 11.072823670987809 -0.19241441861210087 0.6297276988882637 0.3539671146483388
Ni 7.439947614494597 7.394524938077157 6.680482315005853 0.0030421292604334705 -0.6127992985640415 -2.32311229096007
Ni 0.0813121414197736 8.4763339722073 7.908452455814144 0.964010704844114 0.3881491598466864 -1.2106496891277343
Ni 3.9598397676321437 3.0588795932340838 12.517025178757063 0.5991284859451681 1.362800118013466 1.2782452767895212
Ni 5.1380262850447505 4.463217383090832 9.460701651815063 0.6134572438630145 0.014804412002684182 -1.114608444530745
Ni 7.358621596493433 2.702593740512115 5.467460027671146 0.6742250099696904 0.5660954667495992 0.323199751558495
Ni 8.068205211411334 5.738095919630747 8.393476904726079 0.6901244548087663 -0.686504598667992 0.5043946473056926
Ni 1.3325311066893006 5.2300002664993706 6.747422943632451 1.1258400515805063 2.007126797761827 0.32685251781973385
P 7.690068368526842 5.127110041017748 6.331207836307668 0.4942786419176132 -0.2701401527293541 -0.28347980726105376
P 0.4513774394622667 3.649540905637486 9.568465332680946 1.153214329828401 0.3803072952047644 -0.6365583486568521
P 6.049847197144251 2.6359213924590628 11.241936643285442 0.27666792654554284 0.42678512705132954 0.6824353136946246
P 3.939357933500125 5.035506101733535 11.384769220640777 -0.10200003328358562 0.632535343540388 -0.4229634393123941
P 7.372636943697591 3.3441913576720195 2.3504375584118873 0.25220722240001725 0.6451049526752826 0.040207168346504944
P 0.5489769870124975 1.0070697667622224 12.377713552653146 -0.3133197734406217 -0.3665035565524527 0.7603518236664453
P 5.876778474044971 6.786175609928307 2.446014825500845 0.0973206255300453 0.5963262406096826 -0.2669360439697596
P 9.227279050722428 7.1375121486210835 9.498071285499025 -0.38662192456888256 0.6617407614597507 1.4553881139545322
Ni 0.2680335703962144 6.680491566060113 0.4832399205451479 0.1500128137174384 0.09525063037489402 0.8469401503806511
Ni 0.432468284554477 2.946035233368517 3.0361229248594888 -0.1177675805304875 -0.39848345189315887 -0.7930979077492147
Ni 2.9717994194830935 3.761247385829052 9.458941176189354 -2.863437590724101 2.2071185145005536 -1.4136025453773138
Ni 7.148613413733289 8.490108792000695 8.632536173179437 -0.5800802110644655 1.1018416317833797 0.9434475359807817
Ni 1.6564660226634507 2.7156192249104363 0.3583312608188921 0.5998975029007088 -0.1273955905385548 -0.09583864166788011
Ni 3.3748401004359665 8.486944931443716 10.615705027251682 0.412102071117858 0.7642244192479741 0.26414639703976445
Ni 5.906973915150169 6.499559446839687 8.209091366950332 -1.706407486694035 -0.3254921471370975 -0.15466831021157879
Ni 4.714374255200216 9.126997622542172 2.891083971063101 2.2755972760982424 -0.48211089620682784 -0.09340817784951655
Ni 1.623217733652396 2.8871245198397473 11.336472241664703 -1.1215954173715394 2.154608617527296 0.012874541969822987
Ni 7.979977906932082 3.7892873312916304 12.590045600243444 -0.024043671212765044 0.8439661553539918 0.44505898565985286
Ni -0.006066841383820186 4.312563964463946 0.9580151264422392 0.4751270086898269 -1.4297099924621377 1.494745275595916
Ni 8.55893663569637 1.9412319749000364 1.1555898922767127 -0.48949407604477635 -0.7930223173162729 -0.17027259240773898
Ni 5.331428825407886 5.154335893705432 13.458492019338706 -2.1350720901562648 2.1926200637740627 0.948317205368257
Ni 2.84344104162322 6.340487568836045 13.068991181401021 2.130713556077253 -0.405004026620496 3.7036874735687695
Ni 6.53484296778798 7.746000242583836 0.40647837271595244 -1.9704307278923738 -1.5467057278236072 -0.13251414271204273
Ni 4.978242075863076 0.734759433981531 11.997569230994197 1.7890756524182283 -0.725016895810577 0.05730963235474647
Ni 5.907788007925065 0.7448726864987498 6.40066752700931 -1.162709670913346 0.5106249444861206 0.2404444254371343
Ni 3.522579436970898 6.745572732780417 6.244498629832512 -0.5408325784177525 -1.6136374566491503 1.2158111787240158
Ni 3.452965253663111 4.05377497258992 5.069456545762937 0.7014740754936307 1.543610119617419 -0.8444320392468166
Ni 3.1369862443527077 8.013697999710406 1.743391703808296 -0.15169200119207424 -0.9498210436072934 -1.397388911731929
Ni 6.2508911083262895 3.193510185882353 7.6117396921059735 0.22622545362427487 -0.4413239440974528 0.6939122039859726
Ni 1.6532374047266511 8.554375865946104 13.559350713304795 -0.6834254455220359 0.67841899344638 -1.3821199013880003
Ni 4.16133698047293 8.309343191756954 8.017095911940167 0.4789312129272655 1.532356658190787 0.45371897532769606
Ni 6.998496556253493 5.683727473743722 4.244622371766398 1.3379504059596377 0.00739860645691629 0.18468388273706257
P 3.8339791744225162 8.356643832189206 13.10303043555132 -1.0798072776911596 1.5398694216280642 1.000619100095767
P 5.3285147433159326 2.6565142392422034 5.107070407279366 -2.5219932911331213 -0.10751504956454387 0.42844066037688144
P 1.1758830049018238 4.846978866965508 12.935908290130477 1.057073840649386 -0.697391935004457 -0.7717017014616258
P 7.78625157966984 1.705357844428455 8.258091426050179 -0.7660172494823388 -0.6907479473253781 -0.4606635249663292
P 2.597344496194149 3.4117610579883086 3.0008514302817346 -0.05621048575329674 0.4375516215392142 0.20032467459811307
P 5.249233208306267 7.9241570455262105 6.078473659446924 1.2376226181721526 -0.256685569886345 0.11788687971717117
P 6.476404058026479 0.6804270672061202 0.844328920638997 0.018644097463748534 0.6730127348291441 0.36350873559018687
P 1.605705487937892 6.729105856197312 2.384436107923442 -1.0089381614844235 -0.2866247806479386 0.1901526191611177
