# total energy = -381167.35769797943 ev
CRYSTAL
PRIMVEC
9.24813005429629 0.00000000000000 0.00000000000000

0.00000000000000 9.24813005429629 0.00000000000000

0.00000000000000 0.00000000000000 13.53557314977919

PRIMCOORD
 96 1
Ni 0.537795407699313 2.486886901148359 6.804576163823471 0.21520570547500356 -1.644979461295541 -0.6281518697607118
Ni 8.753614018118363 7.070398864439178 10.15270812111058 -1.0285605637010415 -0.18495539123089438 1.6579329361324158
Ni 3.3135310036043983 0.07656434367984899 8.598621832558239 1.7431974018288754 -0.43520651834580526 0.1156021974480525
Ni 6.270148925079962 2.507722938099005 9.922401014237247 0.04794927418576904 -0.8254544697030494 0.8282325466688186
Ni 3.531500180208822 9.295572933955794 3.464862779299866 0.2518860916151726 0.21147143524355194 0.35327728767016575
Ni 1.0475726806690762 6.424010064337792 0.6663999038536307 -0.5295420931055976 0.24845881110117854 0.15327322963626505
Ni 1.51643437677375 4.6423485665220685 7.222825618729832 -1.5572511074396211 0.5139115856571924 -2.5951810281707046
Ni 6.572192851759095 3.994822246427372 5.441950211966398 0.2393247100103943 -1.8157202515889501 0.3435430911015374
Ni 1.3192272520797568 0.9249979652923088 8.871323292287968 -0.9216443240627611 1.9228678905117467 -0.14761243180606193
Ni 2.0142889605128107 6.355120743767282 11.294921540410117 -1.4143695054503254 0.766133463345229 1.6637770536180185
Ni 6.214919092559209 5.761492525469461 2.463406823823018 -0.08542515964403997 0.6560403686408637 -1.0610235693257533
Ni 5.84412456725997 7.424694725770395 4.027279483569842 1.3197328545103464 0.5998345108732572 -0.6911708937954096
Ni 2.3188761229493458 7.801482039327077 7.2714994518745035 0.19653024055268734 -1.3782786732650394 -0.02729046028483687
Ni 7.53095573977968 1.306390847602395 7.274626244636604 2.8854104954507664 -0.730275058885723 0.044943140369593564
Ni 3.143420899889274 2.344428706213719 8.005615088598228 -0.62282968621685 0.6887977655775428 -0.5903157727495446
Ni 4.821845522214515 8.980507640198761 10.424678978568181 -0.4974285004005046 -0.33712536050065167 0.15981617296110542
Ni 2.591871673213929 4.328642747878994 4.915091642836918 -0.6725849032631062 0.48542196285793177 1.816917357220845
Ni 7.710693146852825 4.185583424492604 3.132632031399872 0.339017435317042 0.37026096671235587 1.328083540467887
Ni 7.973682220428284 7.929291196299078 0.477133223600749 -0.37680133893403495 -1.4686976865792447 1.485695506688822
Ni 9.081645190173132 3.361408572753751 -0.34735513974601556 -2.658390570949654 0.7379441453952065 -0.017386570907563605
Ni 4.272349380405146 7.874967680520965 5.392450520810324 -1.4958269386958691 0.5900638046397386 1.662838086743517
Ni 3.6983826865445515 1.9445395638497975 10.273269518580488 0.8935784190644804 1.7939203821050396 -1.0046007104513344
Ni 8.916381106592112 0.5471989063106829 10.764936178518537 0.9484426752025279 -0.10804135438165909 -0.11557262976169774
Ni 6.571166309326106 7.889061830681987 6.455142044447404 -0.5561848925041066 0.03817933928319876 -1.4334267791920925
P 2.0555818610829983 1.7272732451274198 4.899376295482176 0.42385124123398615 -0.6585124843304401 0.9899042847814241
Ni 4.419098707672275 4.593999342741343 1.4710593516096808 0.5532155254631376 -1.6671382567807675 0.03632685945549228
P 3.2818284138721245 6.327570564417094 4.40520616674584 -0.19563369688034693 0.8054399742543354 1.4416347689241817
Ni 4.462814618309515 7.943801512311313 12.718755316037344 0.2795560467266153 0.2504298187846203 -0.48886209888773224
P 5.965515521993293 6.341368774417255 0.23631191769981197 -0.2150236713711845 0.13218324173518525 0.2816101010421666
P 5.911867119707143 4.397356353978992 7.769987532520408 1.2803237565851047 0.4091437598204824 -0.8947197317577752
P 4.836328093836667 3.657533696215656 11.408241652068948 2.971597730071811 -2.1483659790516936 -2.4434903125302108
Ni 5.782957435261936 2.842699455803991 3.4186387757993266 0.5778484935204693 -1.4625905452402423 0.1173322927652818
Ni 9.63294471733775 8.044855829115443 12.242371190968775 0.3551130553273239 -0.014402548578575196 0.19998374631892657
Ni 0.16215393745296697 6.6473524044878545 7.895678867716247 2.3876598358241523 2.6615160039525128 -0.3444139237422649
Ni 1.5143535475176935 1.2114033040959231 2.8180254448921747 -0.9754135473644169 0.08962145711357469 1.0011896278872565
Ni 7.238335657597976 8.863981201859598 12.109126907979952 -1.2154316838974097 -0.03799653384843134 0.17017309071539724
Ni 3.772876373911374 0.7336310347103142 6.2101211627012445 -1.2268538096914225 -0.9650468594181122 0.6182474661628062
Ni 1.208739842648171 2.9137528388008 1.4152117440031302 0.5824852209615323 1.032696440246286 -0.5382486197406601
Ni 7.910471251694301 3.432480452010614 8.192270096931507 -0.5011817967953498 -1.088073888575326 0.17983889593993543
Ni 6.59833731534519 4.339592533830864 12.68456497932783 -0.44377317696889373 1.7811589686743132 -1.186407271640602
Ni 7.8235758219613825 5.472987861149737 7.1198735856441795 -2.2577224527003503 -0.5450553582498484 0.9951745320414279
Ni 1.3452052493253686 8.508298121024342 1.8814312493591139 -0.17026822153236482 -1.1692073628225477 -2.4376577650088342
Ni 8.722734511958484 2.881143932325888 10.77473549709506 0.3705836401590973 0.9052157461930928 -0.295724943176994
Ni 1.91050644535074 4.164516184291285 10.709575947364405 -0.0864343176348447 -2.3536608531708882 0.11283543333619278
Ni 5.715150145904576 9.08633399209678 8.03333543354091 -0.678734982024902 0.786710001945 1.536313843066322
Ni 8.878399036571562 4.287090899668052 5.606096196627163 1.807663442722745 0.07234904318637217 -0.522872651505222
Ni 3.7299835468465297 3.10496717523735 12.96362730289007 -1.4333229066243767 0.9105641549891995 2.6611894738510298
Ni 8.465775219160575 0.9849073516066817 0.1538435678107787 0.4705327044509251 0.13342637011366698 -0.1433845097676434
Ni 2.047193807148584 4.5580981019768485 13.177638279842974 -0.8314739364242518 0.4382116237207162 -0.18497518872523627
Ni 6.156480158919116 0.5329660341992566 2.7429972156097966 0.1512788249140556 -0.5185935645138939 1.042061940621586
Ni 1.1866460600138646 6.420967429558936 5.438755907855101 -0.07232024683096576 0.05624828096976764 -0.025652410460781625
Ni 1.1832889888140936 9.339409070283383 6.181871824721021 -1.2382576806529901 1.017042535759113 -0.019803664989488476
Ni 4.486905997029636 4.274402465271121 9.257438269789796 -0.500416379384235 0.13132320772773512 2.252028487639367
Ni 6.573182401671974 3.2552770325648437 1.1415235087995304 -0.07012503895185987 -0.6174943900468656 0.20879877350739523
Ni 6.632129982463548 2.0362440211967137 12.484048873710204 0.3300062329573671 -0.30417075995150195 -0.705735936093778
Ni 4.5723679666083825 7.646353906255558 2.061901108330391 0.5619457062472839 0.6115682543704177 0.01948741930065031
P 3.8158339378864063 6.985371556971696 10.20571377835986 0.09920961502264204 0.8273941099279235 -0.3345462869195658
Ni 2.661473099796512 5.847065472608531 2.521812464195014 -1.9618090476616343 -1.0645164129703601 1.01796453335275
P 8.366348573241183 -0.04801351666074865 2.272473630539286 0.5602729465305512 0.3234334648358559 -1.0893969782621238
Ni 3.2191538366797032 2.7490158986313147 3.3283566808505505 1.0862412062419615 0.03184516953505483 -0.9243362690726273
P 8.578676390529186 7.685196052368613 6.190413397613883 2.621504753666898 0.7136819304137322 -0.18743444889900623
P 1.326524026670995 2.3337008753824944 12.325398127911434 1.5758108727196798 -0.42562478819464117 -0.9361214346330136
P 6.869279780743798 0.1720179929396774 10.119762582702688 0.729719186382253 0.4262894183618336 -1.8298551483284358
Ni 3.4807464426210974 6.382060546535693 14.126130194655664 -0.6467833688189699 0.5731757706351482 -2.929458120589284
Ni 6.6724610775109365 6.9268308939013075 8.576071192300605 0.39389094742647 -0.29030428638205485 1.0922005091491898
Ni 4.289236465834297 6.707909159904112 8.115564256862248 1.0105448438499114 1.067263122477562 -0.10112431554685165
Ni 8.015973919041379 -0.3041404777562345 4.4049758883081696 -1.2462144736062215 1.428967200758842 1.9732504567293563
Ni 5.744263259229314 0.3459318525348729 0.49269782643605153 0.29900387103858184 0.04626417317386226 0.11528029533225953
Ni 8.226452110323999 7.229475949032189 2.992607019475314 0.6998504238472786 -2.5423983371520342 -1.660586828815495
Ni 7.645123904961979 6.126137044300799 4.999634348290988 -0.12409583674136046 0.6855718024410774 -1.8997012225872958
Ni 5.4446053500971265 5.847019231958396 6.035092903437805 -0.5757615290844537 0.5938497540447321 0.48690703204389046
Ni 0.8520792344690709 3.3220207869691087 3.8088562237810972 0.3801044351653389 0.23856829146034397 -0.8939347739626347
Ni 6.27942479949696 6.906623729792492 11.018538400116675 -1.028983767281389 0.8316922230826449 0.4781465122424411
Ni 4.402868239475035 1.2202630126617104 12.36591048630735 1.6358756992220602 -2.3563625683727674 -0.7438150023536867
Ni 2.389069429853651 0.6337937718177269 11.420721078727272 -2.299171463873756 -1.6621731994660085 0.7829878158984064
Ni 5.581348200675131 2.160696106968945 7.65190278427171 -1.7818179424145506 1.6437216776290402 0.3749375462524188
Ni 9.196044558606104 4.984390655567621 9.283833357699624 0.6135577739966207 -1.174378622610842 1.4727425460725798
Ni 1.005197748885739 8.432028792692352 4.01429880826406 0.4457020185604905 -0.5138660771312376 1.300109166742148
Ni 4.091067535617505 5.503478945848484 11.721508184535747 0.5717526650353766 0.7749986270453426 1.1273168932363489
Ni 4.69926155870772 4.693990124592378 4.059832901264593 0.2460705133746601 1.465932465129282 -0.3910881878703522
Ni 3.738251375090594 4.602794314396942 7.150220399514508 0.41535065996214277 -0.4810050647371587 -1.6444181894754324
Ni 6.139084426338485 0.9903545001925363 5.648083631762372 -0.35245839131329626 -0.7857406960531951 -2.01822547877815
Ni 8.710360513982467 8.883189567925506 8.557134721257487 -1.2819975447431018 -0.41775181320446764 -0.6097060043506983
Ni 4.50474563985156 2.6748921364655693 5.530743357980841 -0.6644985267105459 1.7133787758055459 -0.5057035959251033
Ni 8.389663109039043 2.2934807578954293 4.707807755665595 -2.240060002423581 -2.0316967737917078 0.9828070116150106
Ni 3.0932220501031646 0.8700834940054742 0.8272304338997456 0.1672875416374861 0.22210346103610137 0.8304390674018343
Ni 8.260309514352544 2.0422183131941023 2.304160498450514 0.5254586670648435 0.15061496607781158 0.24458364441648844
Ni 8.160143018030999 5.248350782795906 0.754214597711225 -0.3521292901086516 0.9482835239168443 0.3911447521399006
P 0.30599935189164496 4.963859806907863 2.5508192240244414 1.3519181809936396 1.399182770407558 -1.7040058192310783
Ni 2.2981788079491037 5.719949925388547 8.919334034509708 0.46950092075230115 1.15469605658025 1.3681019898423534
P 8.966117549876877 5.2421082950277365 11.845250938734912 -0.18902673308679058 0.15322000780082642 -0.6654277233930347
Ni 7.016620988332652 4.8891996532005555 10.269046822410198 0.09316469438014277 -0.7850688667971512 -0.401186966867251
P 1.1654955866423038 3.253122218268572 8.684206802266345 0.06850575818088202 -1.2284759186758778 2.3356219933913063
P 2.1915571168687693 8.383124681110012 13.371454115256096 0.6785796873939604 -1.0333276460723817 -0.47995785441956695
P 4.634117730798112 2.300943998827152 1.6593660759657685 0.08454661369382858 -0.6048036819530745 -0.7520484460070725
Ni 1.6021367977331964 8.01791602634703 9.792324215782642 0.26667379144730846 0.6142545429533293 -0.6068456520837677
