# total energy = -340867.997586597 ev
CRYSTAL
PRIMVEC
9.24050228637615 0.00000000000000 0.00000000000000

0.00000000000000 9.24050228637615 0.00000000000000

0.00000000000000 0.00000000000000 13.52440914039341

PRIMCOORD
 96 1
Ni 6.947878361649182 1.488155200744408 1.9138124785182917 -1.6601250586877279 -0.7270822629800381 -2.047396443915151
Ni 2.204183255879137 7.629014279469891 6.3483979919754 -0.6391502777537444 0.26932202770343294 -0.44988314652137357
Ni 4.538371140961383 2.3600243299789616 3.515088986409017 1.0651992979699978 -2.587871896103801 0.6649664674858999
Ni 2.4892527569748726 6.238244734221366 8.206841379713605 0.6581656425139827 -1.3807415329832349 -0.003572290732290622
Ni 0.46655019738973674 7.243999503695016 8.128089197441696 -1.5987931925474659 -0.1034701900712089 -0.9776370373782969
Ni 8.864894522372657 0.35413301653137713 9.096355248408202 3.048533107077285 -1.72599954989335 2.0532084226112377
Ni 0.5968763960786846 5.234504394285444 0.19521670321065598 0.30773610870525714 0.14983875003341937 -0.8646964459228076
Ni 1.1642755892887988 4.836534434052343 11.496748561513158 1.129206654059894 0.8344085935725437 -0.3922279579017503
Ni 7.7228423415161185 6.491794881403405 0.8540100101172851 1.4569323185132006 -1.13129361849591 1.4016813684596956
Ni 7.452169543263403 4.086824747426724 1.0821922058776667 0.8033807777324616 -0.3176459116198013 -1.4528470927002335
Ni 2.1666298538547264 1.6049366709177602 1.1158396475094303 1.200997510749951 -0.6278515649114735 -0.8224452505630804
Ni 5.567070078059691 2.140608598908678 10.486285756032757 1.1784731043951897 -0.7208763912796424 0.813164853702419
Ni 3.9616251795062656 4.234543419858375 7.316434878480733 0.15791612772491512 0.8728841239399225 -0.9160154079117578
Ni 2.615210046097595 3.8595730702647324 1.711067537948067 2.090947074812593 0.8840038880021679 0.379422835717282
Ni 6.258121055027101 6.319034447287169 2.896806966366369 -0.9820097125246959 0.5400656183447409 -0.5235640211452919
Ni 6.200876142246289 7.0917345040497795 10.861737535804911 -0.7366565369320346 1.167682698647905 2.274027360507961
Ni 6.975719995581159 8.454117225720799 5.318014511277424 -1.2540887341479758 1.6684135239487652 0.9270505826799971
Ni 2.40027595872363 4.087628671141321 9.219995943562537 1.1949479621217616 -0.9624667573957619 0.07667826668934537
Ni 7.642043387947849 2.9448095285800524 3.332292442563767 0.8016825640944323 -0.7616823695524108 0.46476366317763185
Ni 0.4950423626953637 3.4110760425440634 1.6304626349315967 -2.109671133584657 -0.8724339237763814 1.219910802714686
Ni 2.9682157213280425 0.8177419619859835 3.152891783375006 -0.5480527503152754 0.10070959660693622 -0.38918300042783943
Ni 4.728956504335761 4.829807348256631 10.640707488953707 0.621212205218085 -1.0266880292686769 0.6335283035812767
Ni 2.157204541338757 8.556511233553598 12.553694790601726 -0.44066728435006036 -0.061476362137926385 -0.42505220352062273
Ni 3.2084041019433247 2.0691887553440442 5.6370687323449555 -0.8915477617876969 0.8498035879713752 0.02600773691767134
P 6.16957856039179 1.6386922264283832 5.065392110543035 0.32159538318585257 0.03636696866480834 -0.06810800852183109
P 7.7744228262848845 4.909904023637436 3.170378510242869 1.0772158628148998 2.1208572321084636 0.48000824804152814
P 6.7704607142897615 8.983062067916006 10.016555901744251 -0.03588925769744142 0.7679959704752645 0.28455555682373573
P 3.755977797111271 4.263992901219545 3.5433279619470586 -0.8073284495262999 1.7440723482346607 0.3638401507876766
P 4.7374208045951995 1.4113666252466588 1.442432270489244 -0.4241700580259856 1.2936114748329464 2.566284913961645
P 4.147950671243525 1.4684452089830724 12.015450306724098 -0.22366129244152447 -0.9908918455056741 -0.6026282715683104
P 6.884701046284789 4.339570970894165 11.591771420528321 -0.7455114162195031 0.4661880543289843 -0.8185317744412871
P 1.5139546836312572 3.334010251972315 13.175019708106637 -0.3207150374634283 -0.4850303838464679 1.2314596838945502
Ni 0.5215311870662239 2.5912771447090064 10.008941727711743 0.19563498243192762 -0.05799303157501626 -0.40030687825514283
Ni 4.3911237341555305 9.24124170683383 13.626518975078719 -0.7341846783527742 -1.601654316145345 -1.9682206076149327
Ni 7.801007751881398 3.5203542247145063 5.4800226967234815 -0.13186391072255355 0.21387438825808971 1.0558389398010202
Ni 1.459481921590435 0.19065466714287754 4.77725383857813 0.3905523699715403 -0.8225995167527576 0.2629066110953924
Ni 1.40386333724375 4.253135310821247 3.9300041800654357 0.7876314853180049 -0.44929102146332944 0.5603109988573383
Ni 3.742154005421183 8.102941169978745 2.2475674149599953 0.584104244622194 -0.7637207401386783 -0.08987599632654199
Ni 5.826645032849976 7.375103752691654 0.8965172455140598 -2.9349744224218233 1.643693395494266 -0.12864951755031392
Ni 8.629178544951227 4.905209848384385 7.716784268098992 -0.2642924356993254 -0.72912166200757 -0.03292297598026588
Ni 9.301397377891632 0.2951009905735166 6.684249598426783 -2.5384200692305767 -1.8660565379496572 -1.1813532541564622
Ni 4.153818390309838 5.662681557081979 1.3126549576468143 0.6261962886962377 0.3131973889301445 1.053783085713256
Ni 4.211488366204117 9.22470120741855 5.05060915469691 0.1555435137276805 -0.20978453445943224 -0.035900570551351076
Ni 7.011508461634442 7.507418507511423 8.308423147379587 1.6896618918045803 1.2798918112540085 -0.4187231759788015
Ni 6.462668817628567 3.441699067718497 7.476320520510204 -0.58980669432361 0.2995736274991228 -0.3665333813491236
Ni 5.637353339820928 2.6732866041004053 13.039640802668934 -0.17808103270856426 0.6094987734358988 0.6361009494044594
Ni -0.008132566220886782 1.0570580391684155 1.646272210601765 0.5055331317855101 0.5365362650352438 -0.32512833603977553
Ni 5.915972970194951 9.063195705306677 3.229047384453791 0.22853173315994837 0.06962238828382848 -0.6650029771507902
Ni 7.487994971326552 5.697305719824466 9.78255680968112 1.4454988798652784 -1.191398039986974 -0.375953646221759
Ni 5.943343338501129 5.3549820654454505 13.220434929629663 -0.915651596814436 0.04678122201959685 -1.1581770731503152
Ni 7.866643040901916 1.2447880872806025 11.20493256956653 -0.5039313345160288 -0.5718287696889507 0.7714145092385102
Ni 0.592023284183207 1.1839301380353344 12.850393464051725 -0.41348866705273946 0.1119075222052847 -0.9495629048499
Ni 0.0024126951940387897 5.651796245176281 5.529995334063051 1.110261737526275 -0.09463793649155959 -0.5071282441867718
Ni 8.705449652310843 3.3475475880859373 12.012786269862966 0.04323181410544167 0.16605084101690756 1.0496713775377278
Ni 8.463163677635636 1.0476512076573796 4.272969125315636 -0.950208508853699 -1.6756982305356365 0.3080428413123985
Ni 0.7719894621229262 2.366187745124208 5.541112582580662 0.07036749397996914 1.4149652300527955 0.7351830377103016
P 7.663481353670446 2.072275083167901 -0.05495234411884058 0.955950810654115 -0.564355344130041 -0.4373302495570275
P 2.2945461295003753 6.635096593656004 1.4557265813879938 -0.1949544114251352 0.5533032000809375 -0.9598074653960439
P 1.5208018959590348 6.862782574433927 4.328486988185435 -0.40655902981244174 0.21562273840776416 0.07622061032663648
P 6.1277098437154605 5.6812919290497845 7.615189563729557 0.3381368324843015 -1.3673509706089417 -1.2996893055959098
P 3.399590097978034 -0.004188719768126324 7.110282040600812 0.3126260898077068 1.1164573248140257 -0.23886551098578865
P 1.5450304934265555 0.6346913043229012 10.458953273786692 0.007102158262420027 -0.6393832197001569 0.31008892520814985
P 8.67524244974741 2.3101718191714573 8.138962496694187 -0.173951583921223 0.1671348181097057 -2.0199306343947145
P 8.37524029666559 7.416334874697787 6.437496764859203 0.3858040566532775 -0.14407819340055833 0.42197947813257003
Ni 3.4171100906547767 5.866887421092178 5.166338131639312 0.038608970621449634 -0.3006149242794436 -0.3251321926945175
Ni 4.871149356292363 8.934900569059895 8.964398101033892 1.3366581695107755 1.4262282045611243 -1.7630823136782605
Ni 0.535311548394719 5.827448956564575 2.346106285163714 -0.9213555891777486 0.16333344208574452 2.0204723658307975
Ni 6.723713012311048 5.878511973195207 5.216689629580015 -0.18817466949914044 -0.016782875885293678 1.3633174239695165
Ni 5.1430234198657425 7.807023318987178 6.873374962411432 -0.6557066394505288 -0.8521885432637839 -1.2504933034872334
Ni 5.007566894207318 1.4827217852940258 7.005278514871436 0.519451284528499 0.23562977765731033 0.10105669553370983
Ni 1.1932630455266375 8.26087059763603 2.612361199187131 0.4163351353625991 0.3073771827039416 1.1908552801096264
Ni 5.101773816854677 3.975874034309819 5.296564532901621 0.7056410623871266 -0.6139156715566717 -0.5307574535699375
Ni 3.442604636960227 1.4642222993558194 9.6822871933654 -0.3598243447600642 0.18436532305537925 -0.8903974502333375
Ni 7.036670349851093 0.7869184179080242 8.101837853984229 -2.194489512882633 1.1032973903932999 -1.5400902793896185
Ni 8.296501975147379 7.358840468350374 3.8347512325388537 1.140177808359417 0.012707677374655533 -1.171363489933602
Ni 2.462224287259961 8.497390498772058 8.857784879774826 -0.4047356034504578 0.1722348583404324 0.6404836518531872
Ni 8.295143621284785 6.269422189543797 12.145393024560681 -0.014517991110516933 0.2520251882961982 -0.9439936382922388
Ni 3.3187172203900315 4.53115430853494 12.98524566084883 0.3766930954909448 0.43684791060397027 -1.1852934697511328
Ni 2.4507198616889987 2.64538952715363 11.465061030454567 0.25136904276943806 -0.05972261267161327 -0.23377318406454578
Ni 0.7411686901957067 7.568221013741891 10.359521771044697 -0.5527303582966029 -0.1266286304655432 1.3920752128284992
Ni 5.729887731521826 3.946618603500448 2.5113209249656943 -0.9854256801847803 1.4319255120562178 -0.5539632022624394
Ni 4.896930358174279 6.621928877641047 9.022769431065388 -2.0850615625660933 -1.0646285130681923 0.1794884545790522
Ni 0.42603798647550906 7.562612028744643 0.5898942724148941 0.6222864121188701 1.604054440946405 -1.7908227170163225
Ni 1.6172635012082532 1.3267975466720014 7.666717377634263 1.6844975739948216 1.6852367661536911 1.409861847387959
Ni 3.9082243157515735 8.506168976115362 10.852256780274143 0.3910190251953137 1.0520118527454463 2.4633885941160347
Ni 7.398241970868113 3.324067471318214 9.570169404786961 0.2726580340552014 -0.078944951236335 1.1788065764752085
Ni 7.0649093253891335 8.854646805137158 13.131741814804148 0.2233987828087572 0.9223418643504179 0.24886118874591978
Ni 2.9103978973942977 6.474921723899326 10.778900127392502 -1.0936066454680973 -1.3483222361122649 -0.7602086132203617
P 8.842597189920664 8.513847833665137 12.018858204033792 1.3064914161194081 -0.8500108188861748 0.12321831923241362
P 5.035667262208359 7.327274911924344 4.353601749839506 -0.2426458039638273 -0.32826662455844113 0.7873188391735925
P 0.5715306218629473 5.022813723277268 9.554251715237934 -1.4127121723525606 1.7741316295138867 -1.0794925746642183
P 1.85301644063955 4.137749156520358 6.7787041665402485 -0.36288987105926535 -0.13475228801394212 -0.41545401830922646
P 4.653452358680873 3.2738638214169784 9.008636082542667 -0.20132714772069843 -0.2876570785671949 -0.09252320414140194
P 4.389164747632604 6.735577817478209 12.20587396130531 0.5570608673511567 0.2024805445988513 1.2359639995228069
P 0.9935295847102896 1.931338939546761 3.3460339937819024 1.0193526719495285 0.8599378481918996 0.42704686535314834
P 8.009787664612581 8.71971698811933 1.8539802250468203 -1.7846003902556944 -3.055612125411254 0.975376009258262
