# total energy = -381164.6547814239 ev
CRYSTAL
PRIMVEC
9.30677283168912 0.00000000000000 0.00000000000000
0.00000000000000 9.30677283168912 0.00000000000000
0.00000000000000 0.00000000000000 13.62140278219291
PRIMCOORD
 96 1
Ni 0.6638809630921964 1.9800438581914155 8.284959050593574 0.37693889295316374 -1.5266837761757255 0.7028064211518089
Ni 2.5991490061075875 8.901518796117227 12.382495704140494 -0.5383815457740987 1.022463449664368 0.701029017536412
Ni 6.404688451447816 7.473664388576158 10.321481990902846 -2.430408539645588 -1.0130565545281713 2.629768022116955
Ni 2.9975161140027775 7.509672292988046 3.1715118177305905 1.3662718786121502 -0.36426926790529524 0.011059086027639017
Ni 6.347972977297895 3.704970457210255 5.323925486421399 1.2067822357525282 0.6405702980297227 0.45497058834660997
Ni 1.5924074594683393 3.936169309988787 3.837516586402211 0.47537383459331034 -0.11227056197165826 -0.16734487723798278
Ni 9.037909553200771 9.369872836340514 3.9800237546461306 0.1107160730003448 0.8176362592102112 1.5786339439907717
Ni 6.990605647145639 8.936837999333335 12.348278422837637 -0.01438352241518168 -1.7610336586793478 -0.3754666792830114
Ni 1.5687589494888587 6.301336738215967 1.6660473001659537 -0.6105902067278646 -1.090561173773554 0.08495001977983434
Ni 2.0891564638582505 6.507444531213044 12.779749721994934 -0.4536721812501606 -2.7034308990187443 -1.8686626081139366
Ni 0.9104843864012429 2.820333771228536 12.670860478878081 -1.269905132354942 -1.1460252682791296 -2.943585561129601
Ni 3.7092236524328532 2.0706732128471335 13.50834533055833 -0.5752316247229124 -0.07287791910664868 -0.7387147050126439
Ni 2.6850319065761608 2.7829949982896633 11.105161596323994 1.539695357944045 -1.6351123386934745 0.7655292541023269
Ni 5.555491956730112 2.6551943926075605 7.554443454777613 -0.3812388058800983 -0.11486866171613765 -1.1319171110125215
Ni 4.396342696818936 4.568657597358125 6.479973729596974 0.5701446971183084 0.8383457238434207 1.2575831204544794
Ni 1.4944536745277524 3.825539700336649 9.628616014241153 -0.21251684578893076 1.1892334282354873 -0.7549090553843193
Ni 7.814757615946467 3.354030664094849 1.0767470925131764 3.090940625509219 -4.25843100564066 0.902233523636317
Ni 3.473436560606747 8.040856357167048 5.85052875697116 1.7188629388485686 0.15520592788260365 -0.22680498027682874
Ni 6.445414889728102 1.3130460568496605 4.912232010387831 -0.9004149823703396 2.4108324172858735 1.2170897883261231
Ni 6.67761887398156 2.8032930700193943 9.5572395807167 -0.18488622855585576 0.9769636654603561 -0.4044525249924002
Ni 8.998011417710007 2.604249117665539 4.686702843669708 -1.4217112905273774 0.20060441062206097 0.36910782694451916
Ni 2.459994137468 6.7957311290581375 7.74853527326288 -0.1615434400648573 0.5205856552432583 0.7054076062200819
Ni 4.727096099479602 5.98769849094777 4.2135632608130305 0.6746986071719994 1.4742142455221 0.7888059652420802
Ni 6.2167660927285455 0.44436676370966444 9.995207938046637 -0.3278236234837516 0.5835956804168917 0.6869565986037459
P 7.457619512069025 3.741797357638749 12.610994662096102 -0.44976024779026413 -0.636919845761329 0.19607052730744942
Ni 9.047663051216707 4.787329533791761 2.8597861122966255 -1.0996438528011125 -0.027982858366171162 -0.43243872579268106
P 4.618811796602288 0.9144816453686521 11.528433628542322 -0.687624571205048 -0.3981713199693788 0.33986255692615663
Ni 3.239724879140903 7.493096930424704 0.6238804530993564 1.6274324535507132 1.6717022220023663 2.272628166167589
P 0.9365033314424208 8.156148660050087 0.13912322561167265 0.3199300796682877 0.9837189819063187 1.5911379899950533
P 8.073699958787506 1.0815866144294808 8.869086553859654 -0.32026252330704197 0.1041211933916465 -0.9947335878492674
P 4.51014591603542 1.121940781793128 6.193528942111952 0.9682136871818681 -0.939033466073486 0.7867326276528193
Ni 1.083103618414784 1.3476021046866582 5.963041126784199 0.30787623382754714 -1.0234738932067535 0.537246660838707
Ni 7.023039750757794 7.608314779124415 8.18268971505185 1.3257785464837941 -0.6227342982895663 -1.2179883888809926
Ni 0.17194262962255008 0.4261831907864418 12.345608309688046 0.03713598562034894 -0.6441505591818132 1.7155534148593616
Ni 0.9540465983890248 8.449786652321864 2.3844129039401145 -0.29335130073849475 0.45106096887955865 -1.5842705734512585
Ni 3.4560515087997152 8.638165042914018 10.24018919083643 1.0902300156863807 0.6902486390914564 -1.1893979788378095
Ni 8.652674301890016 6.696297567223913 1.3251169413216741 0.3828763414835213 1.3107090537451813 0.20575510158506502
Ni 4.134347732461458 1.6399371487501992 9.18779978439893 0.10395021503142098 -0.18559559591805455 1.780443173554211
Ni 7.231837201127588 6.538705981437787 13.122791787613847 -2.6762188573803263 -0.9549719916806134 -1.0382621072595217
Ni 2.5931461375767864 0.3538090712053993 7.9980787061360825 -0.5071899506626426 -1.255763036526605 -0.5811626454953669
Ni 8.236494030633658 8.177991656083869 6.200830105464529 1.2032292282939472 -2.3067094241220145 -1.1688468941593355
Ni 4.150988242435212 4.004052911637874 9.433298493762852 0.3945488927254431 0.9224087130326115 -0.699517208877576
Ni -0.06677330364021165 4.7905869043123515 5.383437645832571 1.9607857486034426 -0.8502422181706906 -0.3645109516024561
Ni 4.762443223014457 5.717699701882558 0.5940224642303407 0.6181273956451742 0.2046739527057443 -0.36152281550840965
Ni 7.864223113994848 9.33971889209277 1.315525381154475 1.1080888982446722 0.33138151603833893 -0.8926420232931401
Ni 1.5265899614065979 0.7177625248892061 10.535746239683478 -0.20408234186833238 0.3514698021477818 -1.5480277890691403
Ni 0.7648389743300583 6.674417344098466 3.996151461432216 0.019642971041908104 0.18307848592315568 0.2852821505771151
Ni 4.763634489947702 6.980433344348483 8.742448364114756 -1.097898845085548 -1.1345041550134074 -1.0974915823448004
Ni 6.430244849875071 5.131010044032711 8.741726158536476 0.26238596270523196 -0.1580796498859729 -0.018705803939619396
Ni 3.2131819627845557 2.3427381054996914 5.0232869395622295 -0.4905698256074584 -1.9840570604265575 -0.2014968405293433
Ni 5.84663573386041 1.8411588859663917 2.1594830933977796 1.1984947989327552 -0.2748990075705781 -0.4741091089482738
Ni 9.1689303023118 7.082966061563727 12.333717045933309 -0.44289257413615335 -0.07679345211097097 -1.1026062778635464
Ni 4.5669730714603345 7.563269998211119 12.231720398838025 1.1864543228284534 -0.4438562236010033 0.0773863484999635
Ni 5.252993916642332 3.8986816286832595 3.2612775038597066 0.6433113511099695 -0.09881649334928144 -1.084082765138062
Ni 0.038557029513573086 8.326350923137351 8.454519146349636 1.6467272972245832 0.6542400822073313 -1.5632741737052496
Ni 6.84812826057505 9.238824166910737 3.336195164478684 -0.7873705183471343 -0.2599094761402814 -2.0535987160711215
P 6.94203359929719 5.471005072198935 3.575795241168463 -1.1988185008207612 -2.516005191870486 0.12400636235134772
Ni 7.739074938593797 7.2720331533516624 3.880233743409223 0.9192472845854942 0.37688927066215094 0.5166503247445942
P 1.5096888617911957 8.374978811623295 6.349439724709451 -2.048671196862517 0.43475451841005125 0.7900130981763039
Ni 5.134993342840746 3.0734035403595987 11.390707349545334 0.9051273002443444 -0.4980905594645357 0.22083796406011644
P 4.729841597489813 8.529573616530476 1.9307933465973928 -1.557220254201686 0.5224695025295325 1.5889376399096247
P 0.8860615529151539 4.0145881785787525 7.626051626947672 -0.21576029242689293 0.2845748400974454 -2.2742428189528767
P 5.659346235699425 6.817397296406516 6.5450429631162725 -0.26189076823636825 -1.263629069538243 1.3439837566379111
Ni 3.648934377483198 4.383052625094931 12.627163318683017 -0.42367897732218 0.8470165121445412 -0.23047163049513855
Ni 2.15260073482642 3.7437610867240187 0.6583936897809404 0.5861827244177776 -1.356669579635696 0.7979999730365224
Ni 8.084905313378336 3.178411859170491 7.502219429236938 -0.677343243883698 0.8578904787445678 -0.6365490926854714
Ni 0.2913317739431995 4.705029740895837 0.14471752681146235 -1.9347764690238745 2.1939873764352344 -0.4155699750618004
Ni 8.090284628123765 1.6520359535409606 10.95875954361474 0.7996678476572485 1.5231829621113187 1.1932914003549449
Ni 3.33504484734627 6.274616993174217 10.53813063490455 0.42234380345052425 -1.516681670657691 -0.652545725224044
Ni 5.752897917050758 8.315145568546523 5.112888826488025 0.5157992895982084 -0.1497004246833422 0.4679821701149295
Ni 6.94208013316177 5.114462601788115 1.4467155135325747 -1.8507872704954127 2.814701044750346 0.9483647707767409
Ni 1.405499538996909 7.25273090632394 10.557935447669735 -1.8663797256170307 1.2177497905076253 -1.2116251656671262
Ni 3.567667636380946 2.4518414043936105 2.4066979716874055 -0.6455209571667786 0.887612945509665 0.11718316878192721
Ni 2.316669834562059 9.534509649224027 4.156148848017118 -1.1376794674175954 -0.6445673350042577 0.9935159133920825
Ni 0.7876964086116812 1.5739521287759701 0.7801886349003679 -0.8857350117606616 -1.5448468202379975 -0.07835359750923926
Ni 1.2007691483913956 1.745969212581848 2.8871517473787445 1.7877798164249405 0.41622457792666384 1.802778860936934
Ni 7.828438572132943 5.6769174229647765 6.57526950019276 -2.6957358443673316 1.2977679202034813 1.7423525373300766
Ni 4.521723541542887 0.4848726314718417 3.702937858005407 -0.13603424005015927 -0.1274135882606838 -0.08911340712890459
Ni 5.088068593798424 0.2156490965905295 0.10542433156023603 0.4661073216897198 -0.22721147168662806 -0.49169159791672734
Ni 8.457548500933783 8.722977664497254 10.463593621297838 0.3641314567758503 -0.2733506892468518 0.38311108320214665
Ni 7.108215336484754 1.5875400172332867 13.217119653826371 0.22688622713672535 1.3516309887705238 0.2993507128550393
Ni 8.40067481164429 4.513961692930967 10.948420649582388 1.0419593536054508 0.4221368296460407 -0.9617869577199177
Ni 2.8545640820134746 0.425062655327359 1.6197070164627547 0.2303775281194355 -0.4014376494254764 -0.3699570623186919
Ni 2.4074946314490124 5.857654952992918 5.525699115271508 -0.5144373762536754 0.0421195548778694 -0.24588307995420233
Ni 5.272659127813777 9.088221967584506 8.038753026488038 -1.3337132279498385 1.3043327179051925 -1.9540214332964152
Ni 6.33892679402357 7.407502539916526 1.5174925908812367 0.8553566565791204 -0.1038525131112921 0.10007556256736312
Ni 7.852124309204087 0.9094755322171517 6.5520174587395 0.7352282891259402 1.9031809536057802 1.7336156716777111
Ni 3.2222746799234585 4.8609833346487505 2.097927166654261 1.835512603724529 0.7193769239159805 2.0775292587447898
P 5.114285773102711 5.547171701743236 11.41228417187372 0.8904252181474794 -0.1082375295528652 -0.042089987191514605
Ni 2.8621491019399903 2.659875699384293 7.428418581367877 -0.21943696994753178 1.0080233629796382 0.09774100089691554
P 8.196735496736633 6.597692308179208 9.99748344402459 1.832572804369915 -1.340532050643885 -0.3556833260084971
Ni 0.3337836879221061 5.927362682133535 8.455812787784955 -0.746930665164533 -0.3900062676600832 0.308875621626339
P 1.5013872203501502 4.606880513724015 11.616699993554674 0.18000190388036097 1.553813542512982 0.7303208245219939
P 3.5297797638400312 4.258258107064686 4.581531656332786 0.6531242234353333 1.8864122187878738 -1.2883849363266844
P 8.482332437209012 1.9516582007977064 2.7439223735565457 -2.240539513163161 -0.4812554901850679 -1.2625268376129999
Ni 5.694898108238431 3.4199505366586664 0.24953877948674352 -1.652813098407347 0.46385992041643986 -0.18150445656781644
