# total energy = -340894.9044927645 ev
CRYSTAL
PRIMVEC
9.06084780570833 0.00000000000000 0.00000000000000
0.00000000000000 9.06084780570833 0.00000000000000
0.00000000000000 0.00000000000000 13.26146664819224
PRIMCOORD
 96 1
Ni 6.477482346061254 1.7955700992664105 11.20852522822231 -0.1167404248175538 0.2808698804420324 1.266789983764728
Ni 4.5416956261187105 0.6128159478408464 6.006927146174377 0.07236986912197858 -1.3460928325611141 0.2036586240673525
Ni 2.781616867930711 1.5841986403240644 4.7009780828676515 -0.48506895039388714 0.4288983167395904 0.453618959414722
Ni 3.614172873799944 4.326147116311635 4.96412503866735 -0.4712958078691948 0.35667757160096636 -0.6768498491870473
Ni 5.033572813196222 4.563921885926048 2.7790598966638416 -0.17126992332400182 -1.0541119298075845 -0.5887893088026891
Ni 7.032785468178049 5.907817780081991 2.5843549612802468 0.8614560846086391 1.46354905249877 1.055724782820659
Ni 5.263093150407666 4.650770112690554 11.729196883722873 -0.6515031428921425 -1.2459347375822736 -0.5936360953720292
Ni 5.629876271891985 7.711977563122293 12.429415582217425 -0.7404957081724667 0.850874966658683 0.017706416140827567
Ni 1.7231467422994107 6.518845116554728 0.4149687104184483 0.8990818653812129 0.13337751915360255 -0.22906935083097324
Ni 2.8364621800439664 1.7203831837012704 0.3759164561299747 -0.4831287959483808 -1.0425386231476885 -0.42711962757261285
Ni 0.6072643663553364 0.0904299799246526 4.643091044126869 0.14551929672245906 -0.49353147933894354 0.7021808717526681
Ni 8.672635836075154 2.454574625172436 1.5276145515059465 -0.2676119869908617 -0.317755183504156 -0.00046202723808307517
Ni 6.845307465049787 0.624438297394402 4.7104729453430325 -0.4128967991050115 0.24304921004983304 0.0744285514232202
Ni 0.861355004716213 7.487630970040481 2.5842353580884585 0.34688398254931224 -0.138361088411123 -0.048267833867452356
Ni 7.5993874675796995 3.7583128416006484 3.853304958424198 0.719539931856406 0.31535583003404394 0.10784800742393037
Ni 7.6160231842557184 3.692612633747813 12.815086041071655 -0.7243604931735009 -0.3707823864334647 -0.978741069075753
Ni 7.780396025333954 8.87568943667949 6.846894925595342 0.058609325002776484 -0.1418763006532331 0.6444032986225676
Ni 6.960081224927303 0.81703567956512 0.44247019585148195 -0.5815884201788757 -0.409112906582547 -0.2951040217635434
Ni 1.9828759462852796 6.704982114199302 9.167333665092341 -0.5112828897850936 -0.506744892705424 0.2565690989131388
Ni 8.957264249987873 4.991149923502804 1.4209266922611528 0.6960071388417884 -0.9162504067406996 0.31509974815917985
Ni 6.169168875835292 2.206805740365404 6.863657494141439 0.8992034785607418 -0.8891417234493655 1.5911364473331564
Ni 3.3822151685134187 4.242479247146956 0.612841318214862 0.05057359918249355 0.549049567010906 -0.4447041734235954
Ni 5.9773235440371835 5.770092892568116 4.81050379966306 0.634684528672907 -0.015480869244418499 0.7195571582475866
Ni 5.436218770521323 2.9982708011770427 9.155676884316907 -0.03581958080177057 -0.6722290625855842 -0.14904787870100783
P 0.13662037015940445 5.5129822736145835 12.32402704855615 0.8220202472105198 0.6622511254372659 0.5235449949818984
P 4.016592309928477 6.066119853092181 12.699512208327857 -0.5595841479936426 0.6257887688451739 0.26334524129470777
P 2.52474183102161 8.564974841769901 1.3408405762566211 -0.5131533673349291 -0.3189579455630055 0.02780699490993921
P 6.117721381670569 7.818641864162643 5.7139020445472415 0.47536072196718776 -0.31363319091598246 0.9072541167793601
P 4.604885979113563 0.8221170030465529 12.408807589838375 1.227282412588409 1.911741441581282 0.2948055166865181
P 3.8980945415793684 6.210576950568082 8.139503702593732 -0.389618031082729 -0.9248600027865814 1.2187522636302106
P 4.624022489799701 0.9932320210194652 3.693915583670477 0.567618588262345 0.25404144739527856 0.4396928362519331
P 0.06616412326340873 5.771787271118451 3.665270619237164 -0.4374480060818144 -1.0294018286554143 -0.30311249389031664
Ni 1.494641220048595 1.0205957815649849 2.655595877601157 -0.12533202314130673 0.6149389706148635 -1.157029332699117
Ni 1.8362351844744544 6.284676564389692 4.836828280958722 0.42379339141285727 0.7725133987296439 0.23700377518670154
Ni 5.855437018587405 5.501465935981021 9.197941209172727 0.6355198800900087 0.22330827997747993 0.24269516914452396
Ni 8.80221502136041 2.1848241234503605 10.064671108841125 -0.11194583164238786 0.8987365662266521 0.6258453331147222
Ni 2.2617054175658358 5.063754497427059 7.057978249575653 0.3083840267019012 0.6675308857789666 0.19779213798424644
Ni 0.7104329922902362 0.09977533841029798 8.943904935899027 -0.48590533025225346 -0.6749315491184118 0.6060380685808078
Ni 1.5773939435791355 1.3008931101993075 11.434301623096866 -0.42766675832533446 -0.7311803443088117 1.0223055839302653
Ni 4.218096505548282 6.938308007513104 1.488121940011343 -0.20055118878662234 0.171516235006853 0.06971726199047992
Ni 5.3789179686372615 7.785252639788391 7.8643683389868215 0.912492225249848 1.2123769562314863 1.0049778912850948
Ni 5.523221031699496 2.7861835352535396 4.817293999051409 -1.0091741887546297 0.5053994344211231 -1.293412728558579
Ni 0.7465440953624595 7.4614632414128454 7.084978670121877 -0.18393800570997354 0.6198657184925196 -0.781441554457209
Ni 5.008637359877921 4.724507292597653 6.926954765141072 0.3390673147183709 -0.5177494713460438 0.2383988557620152
Ni 8.224794369610631 7.0422721758903535 9.388759946907985 1.040680486893027 0.37964832146452676 0.07976487603446908
Ni 4.781472843110794 0.16050657729519888 10.23010769345845 -0.34408867919236225 -0.12286633520963357 -0.2219437955297855
Ni 8.172848528813457 7.370601059045139 4.946553336407111 -0.3826074040928507 -0.9027688273144967 -0.6292438172733099
Ni 7.264444165485103 6.281079407788178 7.254035969545156 -0.09434637339306977 -0.39761159081116687 -1.031588294783772
Ni 2.2268936400771313 5.318627086958491 2.614657154787658 0.9978893598694298 0.2911861747663759 -0.4825682954592206
Ni 2.383057352991712 5.337745475948903 11.415961560937863 -0.5296698769327135 -0.24312428626214258 0.4636758294300918
Ni 1.2395692918641823 3.4899033453622605 3.6697530206748685 -1.364388031325876 -0.32493524619236297 1.3990105064957519
Ni 3.6024662583612646 2.666698134487391 2.6550123589987957 0.2075301912076168 0.1018971891571342 -0.23246526388639963
Ni 1.0467906927362094 3.2323215623198647 8.113922210822818 0.2975784514459649 0.38332757008832696 0.3525491512548896
Ni 3.5678538195255407 2.7778384943719425 7.248757119580316 0.1818582403628094 0.008460214952211236 -0.6912503408830935
Ni 3.944159892113614 6.874293117362741 6.118469807704034 0.10983958393266244 0.5587102300291217 -1.6656647575590344
Ni 0.8566279603862138 7.639499841068116 11.512079941150752 0.1817919059012482 -0.4962450216153647 -0.548487523859849
P 0.2669144563410335 5.655862783562365 8.063064577853961 -0.09176190049534519 -1.3782218518851748 0.7981786647062318
P 8.56132332008121 1.5626428832585706 7.86696699015386 -0.10503984855117394 0.5359917053856833 0.8927201848292433
P 1.8413636243647737 3.3016642310135276 10.512271556752498 -0.09168785272430016 0.025255175022362953 -0.3742502903774071
P 4.153791668266311 6.236001689670972 3.7110360557071522 -2.0329198475655312 0.010817402330478145 0.2263311259642038
P 6.913109789606782 3.815486791614632 10.45572461741062 1.1915533346179157 0.6185338870549735 -0.25232060804942996
P 6.392564079891514 7.632323649560814 10.250198311424535 -1.6668999155177162 -0.9587790241315294 -1.0690603235873009
P 2.2892232125250223 8.407080506913534 5.8188402540697375 0.33817462770077245 0.013222669337861098 0.26459916830646685
P 6.761231857731285 3.8966085625298765 1.5643354496393331 0.684063593326667 0.4201390824897216 0.4157435245251872
Ni 5.29411749348974 2.6708842461999835 0.4737264966388412 -0.5233151383592793 0.26982519259209664 -1.0041052588721546
Ni 1.5836821719958873 1.165868355348534 6.870925200212154 -0.4596052589051439 0.529694559523062 -0.37209056372192695
Ni 7.309639674624524 0.48303379956346304 9.346960443547527 -1.2991408892916076 -0.73690721949026 -1.03888251445234
Ni 2.809152784585623 1.7123824550384577 9.338273808701503 0.3344853517746433 -0.4245608657065011 -0.18895859885301652
Ni 6.318029545372493 1.972283815133719 2.5773391467801154 0.40215730120032034 -0.11889038128102104 0.4236707497920639
Ni 4.125974865327653 6.694371861352017 10.348599119214054 0.47498328402311096 0.8663452943801402 0.4672710029805179
Ni 8.28119814755628 7.015841682674697 0.30342061238007295 -0.3491162143139407 0.7159460438575606 0.22769458197063364
Ni 7.746825584002448 3.7544710421068404 8.13824424474081 -0.24999401679878236 0.39392848553262483 0.40726505474053093
Ni 3.1910312786092905 8.25936150420704 12.25527967756707 -0.6072184620421541 -0.36756645059932824 0.591548102494749
Ni 0.16206776138195156 4.739439569875473 10.25944218841412 -0.51417872327565 -0.07924679874746997 -0.6468846702835246
Ni 8.587427622773808 2.1644281549112994 5.828427537193319 0.0003686961933283973 1.306793263630543 -0.7379675424339742
Ni 3.8062900310339356 2.825824744653092 11.528312450096877 -0.28853845273088374 -0.7883804476688874 0.04323952741492553
Ni 0.9438594610153138 3.528076697408047 12.64512718728603 0.9628678494889225 -0.8722161513386204 0.21384816300584458
Ni 2.9926440146542723 8.68693385400258 7.96259608458216 1.1042422708050725 -0.7092010118242431 0.09545117642147433
Ni 5.525477182817323 7.974425021466988 3.521821088043601 0.2571290851816668 0.03563780380826765 -0.5367437530603595
Ni 3.008844810632878 8.350278051661924 3.750754282313538 0.5957482566190256 -0.5958151053012191 -0.6005806450106624
Ni 3.502778810175235 4.225263636207721 9.418121624407243 -0.4559175256409116 1.1661778319676044 -0.45661635148014906
Ni 7.212235560099909 5.88732214221644 11.484032086591595 0.869512122143896 0.48657253152260715 -0.9185924246103147
Ni 0.4998878826729734 8.936641760252243 0.4675198158528541 0.6334714822014123 1.1800386491100967 -0.3673944437978382
Ni 4.587090473911112 0.46738118488055397 1.5192468585046923 0.42058002668188216 -1.066551698232834 -0.21150485958464862
Ni 6.228490246792749 5.721073705630612 0.3940164058206139 -0.9371881853346311 -0.6030756435183743 0.31341259026474416
Ni 7.71210441499237 -0.48912812583595194 11.554636025307754 1.2904392477525517 0.8196247503951498 1.075420461477374
Ni -0.013844975534289468 5.061335251047703 5.947118301601903 -0.45886966629070003 -1.2183966800630048 -0.653379791089565
Ni 8.02985022784346 8.856027396817312 2.5661073197694453 -0.6195121918078428 -0.20612534044029016 -0.11951053136352321
P 8.513273643865022 1.5971918961592548 3.617834362421283 -0.2916127207808333 1.2789533586001394 -0.22180984105508253
P 1.6969155877367352 3.1015101017252724 1.6237211526166149 0.35774535074384844 1.0543708398959262 -1.001906965669255
P 4.767809084533758 1.140026817243957 8.207429254681662 -0.18150445656781644 -0.5480532645359077 -0.10792231230529155
P 8.536714057285968 1.479672699379324 12.453485724564832 0.9112454973269403 0.7372718019185303 -0.8513174535127402
P 6.509439956473189 7.916598690406886 1.2833929886371827 -0.9094138434348401 -1.0643636894425799 0.7138778484746221
P 1.8342146154010601 3.263128445053231 5.844739781600636 -0.26498817621476944 -0.24696397172320697 0.5070279711634816
P 6.956973354110379 4.069571087382005 6.076457374418799 0.16120868243325787 0.8828399496010538 -0.638753556535958
P 2.433326936934276 8.658528095952844 10.181928447117825 0.10829177982956835 -0.2913952054533885 0.5395552543672257
