# total energy = -340870.3552623932 ev
CRYSTAL
PRIMVEC
9.20939366603602 0.00000000000000 0.00000000000000
0.00000000000000 9.20939366603602 0.00000000000000
0.00000000000000 0.00000000000000 13.47887853002441
PRIMCOORD
 96 1
Ni 8.557810701180767 0.3068938365281904 3.1045897702743397 0.3653396181513386 0.4935327648905242 0.690175876871992
Ni 1.6902460775177477 4.27667667730867 8.155908154277379 1.9365826689946777 -0.18154096623270669 0.12317358203740723
Ni 8.044405419738757 5.138583836133341 12.22320005582969 -1.476712329353605 -0.31248982134015857 0.1293244321301515
Ni 5.739432311004566 1.8642483625784736 3.611395600172235 -0.6480933458796452 0.8134844418253667 -0.1337626704071632
Ni 3.615957933824139 7.588632524234611 3.8328400770129085 -0.12371582769412243 -0.021250938958976305 -1.4095671989656755
Ni 6.409949849413655 8.95111627904085 4.163787008074898 1.0252608099038474 -1.6066797943843942 -0.9831515394386231
Ni 7.758794492111558 3.4199544071517867 5.158946726601097 -0.8420139167236274 -0.41708384060316556 0.67539589034934
Ni 6.160329232468013 6.018780850898025 10.634511488565762 -0.5802614738373362 -0.744155416412241 0.9698769338169039
Ni 1.983694199205848 6.63213568244928 10.475649446790724 0.09758904870008354 -1.2845460221965683 0.5729230311943939
Ni 0.4478868916564954 4.985330315137493 6.078178677613181 -0.3790631383850181 1.171917048444227 0.5648415397378401
Ni 6.180368873215983 6.741939283845438 13.059618375638664 -0.4664297380261451 -0.08766536182846837 -1.056282455096342
Ni 8.40714501982195 5.275591986596368 3.6803536985144443 -0.4465247715721019 0.0920668333302737 0.3193523527879468
Ni 1.8686780809607224 9.254796037158636 3.747963541615154 -0.9600324369226563 0.7850737518931576 -0.550807173131961
Ni 4.942267190074301 7.40811919780954 1.5866928916434848 -0.13167956262588934 0.6620541789351114 0.7234639495011606
Ni -0.1088679269935887 7.650031552206446 6.897856161506871 -0.18109719382706874 -1.316486836769223 -0.31580448753568835
Ni 6.8202928056670045 1.606155103404829 11.966494652290566 -0.09128187553513313 0.02346748699432087 0.4119917707922388
Ni 4.18830333511312 2.53554869945428 11.836329081366024 -0.8072376895847067 -2.16486577647893 0.9258419070838765
Ni 7.965480915506173 7.993182771834249 0.33178682776980906 0.34113422454972864 -0.21407313453245713 -0.9026497852381292
Ni 6.279636928189496 5.354820400821911 1.6135834003842922 0.3973169423888835 -1.1325848265035074 0.16730991023498928
Ni 8.105049277425053 1.40658754136048 0.7152052005255636 0.001702327403087391 0.4574565879932573 0.32318046828478536
Ni 0.7642673246619301 9.090666222172278 1.069207848780817 1.3248588628830023 -0.14781529184548736 0.25473950190356776
Ni 1.6237266266342067 7.450823156517415 5.279393624326497 -0.71082234947775 0.30279470553958177 -0.757615912792521
Ni 8.648670579682362 0.4783377520118087 7.940541877295924 -1.2426853774070405 -0.4631089011830283 1.4796958374619613
Ni 2.58205613777103 6.709411705204892 7.097856565056347 0.7903666248609807 -0.8576755345202842 1.949629989096939
P 0.6756766407744441 0.7445785618149244 10.23315137495284 -1.1954177026693282 1.475846381808884 -0.5683212707563244
P 6.116501727725556 1.0524955619860832 7.904095701624927 0.29434477500001566 -0.6614178309026932 1.3529101125932634
P 8.32668254683711 7.430820353344349 4.743743052339118 0.044267454458807635 -0.45943505187586675 -0.1390375456528573
P 6.366748583444572 8.575658506221927 11.849066593828578 -0.31800946560680715 -0.5187311185330228 -0.5086199982409499
P 0.7907194662613756 1.9094572763798445 2.2470773341357586 -1.0768638787921194 -1.2482183914101277 0.06571945368499649
P 4.111856157792855 4.623391932308469 7.423762273992675 -0.8915408198091613 -1.8563830194156352 -0.8756760848627628
P 8.060540277546865 3.6620969963918455 0.5168652506649022 1.0128848048369974 1.3037933004619546 -0.9608593036993258
P 0.5301728245991008 7.357246506866624 12.451801152534905 1.356821788942844 -0.958418555468317 2.1484001747237387
Ni 0.7339398701825464 2.8288678896302155 4.226895299522296 -0.342484567930036 -1.500475236101158 -0.19900647000732177
Ni 7.4982146966318695 7.074720726137665 2.3959923097472453 0.00660027892533702 1.6432581077290602 1.3463697403715844
Ni 1.081643293129155 4.015710087292486 1.6926368361290405 -0.07317359597019657 -2.4298752928499376 0.8231260786801889
Ni 5.339155222093834 6.4325220734363 6.93104129085946 -0.1851299691355457 -1.4879578203604376 2.398389563536831
Ni 2.8040301547509534 1.5658547964594636 9.320469144758748 -1.3790870280989473 -1.0424054400039338 2.316264929020934
Ni 0.3580732002821849 4.777630858433008 10.220844862116666 2.608766223054307 0.5568562075395184 0.14018142944931342
Ni 4.1122982086917075 7.580970308654504 11.493062744316644 2.2594263227653344 0.37190133052925634 -0.6472430820642079
Ni 5.901176893015868 1.7319277935220267 5.9648349852687135 0.27939432433777045 -0.37199543290495934 -0.7571567137679153
Ni 2.3103974416388557 3.67680439817241 5.976831141536317 1.594498164716538 -1.3443203140417235 -0.656039083089283
Ni 9.034792830436096 0.2698693109311947 12.323132108090855 -0.41091627833987293 0.118474376789525 -0.7815413132598669
Ni 7.385224645006483 5.636904130652018 6.3387529474566335 0.5379452295676284 0.45828525454213975 0.08571389452905238
Ni 4.3978722987440015 3.326000172358227 9.717368228050752 0.5098615839575349 1.3737368195306279 -1.3304908643577988
Ni 2.472188070618788 1.8562914463991327 1.0204210855168605 0.41492282839610484 0.3579453825697964 -0.27103952461517195
Ni 5.753117470081534 6.341579310391171 4.001851791613467 0.6231253630803978 -0.664014902205908 -0.4432373590700818
Ni 3.8860510330228784 0.31322437377550394 2.055353412727919 0.8737621556695016 -0.28347620771662796 0.1698496459377075
Ni 6.136182202118207 3.418849279904656 7.4928953508156795 -0.9738557159589937 1.6082234847224302 -0.3315218982709452
Ni 0.3994777135353085 1.9239712808921607 6.639318088616256 0.26273794672801204 1.4112340451451375 -1.2494134401594934
Ni 2.710361411162902 6.858861746591865 13.065750910920865 -1.1191559546921113 0.5135508598836639 0.5285234220330962
Ni 3.2646103537801174 4.065606582500435 0.3460945418626609 -2.101677316745903 -1.222403744339869 0.5739627853128179
Ni 8.76853083902741 2.8524807751439076 11.551722898594342 -0.6295605771827802 0.35943302285891643 -0.32108373365675674
Ni 3.9702064728918796 5.898054908542724 9.117437008794646 0.45453864301551394 0.19133455528436077 0.9016797080153761
Ni 6.899088378387422 8.555508352749245 6.469834853056922 -0.2734951852445161 0.2173394639885547 0.6075269944215085
Ni 7.270116432824096 2.3938529675846745 9.213177865971067 -0.47901528800063964 -1.8904899884016733 1.2609859754884412
Ni 0.3776302687989075 2.5741268497728673 9.008730246191265 -0.009016858786629632 -0.5272090740970469 0.6532427512910685
P 0.7667722797554263 6.103580948327853 8.280344561364922 -0.2723741842661954 0.43237033444859085 0.4742980850306283
P 7.170562886645074 6.744628426813457 8.881866242917525 0.23477025787049244 -0.41554657802303274 -1.2752280872297521
P 4.355647228509883 2.939629267973888 1.8664337517096745 0.35845651787826005 -2.08210042305524 0.16114594751612246
P 6.196991828891574 3.531922216073577 11.34339259841962 -0.1511986064954235 1.5831991947639508 -1.5908271436228536
P 8.374856885418282 3.69566523652344 7.378674924188489 -0.5030633300887788 0.03575298922989327 0.47953825038364506
P 4.881264166032688 7.597805080385796 5.420194203125927 0.020713321287951423 2.8058505363382515 0.4409174526876536
P 2.3788508652048757 3.5866812711689025 11.160160658966607 -0.9274683869437059 0.8604857502755697 -1.1534894378666585
P 6.80558540388644 9.103808027019406 1.8129087553736452 -1.2322040182597425 0.3238474124448229 0.8504322226943096
Ni 4.753456199902024 3.669943399846473 5.105744979984852 0.1502295577139348 -0.17025459468561002 0.6012131363883387
Ni 7.634817633770948 4.553243980296849 9.361714335500412 -1.6069099081173293 1.5291846882207085 -0.4737108450685906
Ni 9.0929685706038 5.754590973077709 1.1679436007969626 -1.4571056108662712 1.0687242804041208 -1.3270923801992112
Ni 0.9110945307157126 8.127464941754354 9.01193787802606 0.5534140146271888 0.533585667047352 0.4662541316802292
Ni 2.10573708486398 9.201777557477541 7.304460103907427 -0.07083543475532317 0.6422232602521133 -0.5871707993626597
Ni 3.36602419749181 5.610675777320116 4.975081180859729 -0.7921126610178101 0.05199079124499433 0.8428428403828258
Ni 5.407175804154727 1.0484158005654258 9.958909443880497 -1.3902080777127734 1.2137874634257677 0.2893092694586372
Ni 2.2855320785784157 5.9277736220968125 1.6614068610644999 0.5546913386777157 -0.5422749672912338 0.35890440404895607
Ni 5.52876742952028 0.48900407182536504 0.1007673442721208 -1.0338117847976518 -0.3616218029801192 0.2293370026700631
Ni 6.662987151431677 2.9138429655408387 1.9143373341152992 0.5169148912598904 0.2560466507507655 1.0766839015708296
Ni 5.583977744908184 3.4076230289525538 13.503005557520591 0.7580008069357655 0.5422639115476402 -1.1783862011083384
Ni 5.577475912937565 8.102590369300186 9.41509106059745 0.45205392892044727 -1.1348085736277036 0.0023245343681185773
Ni 1.0952639864500406 5.04310084198125 12.471062599513022 1.1523450398495703 -0.4975827665901818 0.6774548297608978
Ni 7.704256462465659 0.16015319877543324 10.33631868722998 0.08656235857227673 -0.13395164648951768 -1.6232253574479012
Ni 3.95207317664521 4.755942736208068 2.8513351265643823 0.4081880807754325 0.23181400345564593 0.37867901557272204
Ni 2.0139562669897764 8.842132313686314 11.462855932895073 0.27362194063036743 -1.3222242534736326 -1.0568267576355863
Ni 8.56481904980632 7.209886997855474 10.800207821424927 -0.9491240175402685 -1.2055573622064915 -1.231641717998369
Ni 1.5407499891621448 1.9074220003663789 12.180013524890565 1.0115910257262384 0.2872583004668795 0.20675706048701809
Ni 3.8733881166495054 4.95232384802319 11.808211881380902 1.0284299516604483 1.8046562804653048 -1.5436332595458704
Ni 3.7163219066510575 2.106998771804454 7.449061399497614 1.0850230175641442 0.7984254906097153 -1.9527243117515467
Ni 4.341501599746611 0.5155906705732114 4.851736086928729 -2.528948896515348 -0.9579832677031115 0.9969367661481733
Ni 0.7000566687855196 7.174900511090062 3.102716579590453 -1.1928183173732683 -0.6040902008258178 0.15746309934789654
Ni 4.480517398041924 8.781691062661992 7.3655064120995535 -0.2543414951342007 0.2257893945281208 -0.10521802600025106
Ni 3.0778070114401275 2.019610834737595 3.492606393317531 -0.1473802611905978 2.0813450329464542 0.4490796767834717
P 3.406167944743832 8.040620358917334 9.503445063066176 -0.9638325273950368 0.5586696065991734 -1.0806778532215713
P 1.2852906165941613 4.821550457112727 4.092322112760447 2.038288825186928 1.6339998223555858 -0.9197774460573513
P 2.421389054825681 7.905675112648951 2.117046220359617 0.5773293877922057 1.5046712764603765 -2.1692847314822314
P 7.900213942169381 1.239308113719799 5.237851891106854 0.421937312040725 -0.7037446166953621 -0.49198856033185584
P 3.162791296744477 0.5718075726953766 12.865320428684383 2.4990384821091607 0.5699696049930248 1.3086112906758882
P 2.0801810172740827 1.2298684851505577 5.497751112390185 1.5173984942190577 0.767311285703414 0.6087786074404224
P 4.471519820371535 5.687297933121177 0.4167563780441967 0.3753640922668761 0.7974075908681622 -0.32837615355311184
P 6.290098799462333 4.2574843007835 3.7134310779604385 0.5313765752111751 -0.35269930367950875 -0.47151743696169757
