# total energy = -340857.5893932237 ev
CRYSTAL
PRIMVEC
9.35267601445645 0.00000000000000 0.00000000000000

0.00000000000000 9.35267601445645 0.00000000000000

0.00000000000000 0.00000000000000 13.68858673013801

PRIMCOORD
 96 1
Ni 0.4789346314327297 3.7318953704703413 12.139011028040793 0.1018694212429923 -0.8246355733461798 0.7392659495304236
Ni 3.8875332495186994 8.161808998678566 5.474202551322152 0.24843464273146246 -1.9806071542047436 1.9929085972799163
Ni 8.202437022630617 7.377325252580483 10.526879066198331 -0.0004442866262702026 1.2018827415683817 0.8069214438958684
Ni 0.5693432079370782 4.238024777512043 2.5906061049033084 3.47393652328974 1.7612635153019667 -1.563853186137171
Ni 8.791300200362889 2.1493664982717626 5.3205614685707 -1.3396681599816929 0.45037962654181796 0.7502967534232885
Ni 3.8534240406436706 1.87920510327201 10.069091770161087 -0.04256641260730089 0.4146220093262343 -1.2063968273886514
Ni 7.37303237435903 6.930005471369926 1.8936923981849305 -0.9452925596093205 -0.4560545654394081 -2.095804917125526
Ni 5.103876803624592 9.338749729370559 10.057647835974223 -1.1003768743123952 -0.5764009624406654 -0.6029661145237035
Ni 6.536182996099913 0.266257588094231 11.896339953207308 1.4331028201937706 0.9202669840992603 1.1916829182172446
Ni 7.729584436312072 0.797489577154189 1.2090344379183866 0.06843145329952086 -0.20007476337083607 0.19603273209097852
Ni 1.5694912420445364 6.3432559983828565 1.3489270871501529 -0.5126301478416074 1.909670417984866 0.6839324670654414
Ni 5.886817358205161 8.72127671617113 4.489911043874065 1.0826097801369614 -1.3561856980207416 -0.1730766375154374
Ni 4.51265675157466 0.9697415496068803 2.273222114199988 0.46273789099685464 -0.21213683674169273 0.9139837221937097
Ni 2.0814754241769347 1.1113317095079138 8.369119476606457 0.823096510993834 0.1818333006621449 1.4915740769567862
Ni 7.577369636629839 9.089818908581476 6.217657043673632 -1.149061741112608 -0.8503741157628645 -0.9644873873702162
Ni 5.021479729265117 5.643254973361861 6.795753420951576 -0.575328555312093 1.0206667627752617 2.069862486228151
Ni 8.521400680287321 2.148421878009526 11.042706262843136 -1.4245636723745077 -0.5257291471174108 -0.7662062255646933
Ni 3.390840692423503 8.027541983978836 2.6546410707395203 -0.04982283705939806 -0.7098985521118999 0.20968014767108403
Ni 1.4615800679288005 1.9807283997728173 4.437333105970924 0.7045362593587221 0.8449763417860608 -1.3253031495092724
Ni 2.098721758469656 4.387265426269609 0.23543584478530333 0.07524539089756073 1.275343529761694 -0.768392948803367
Ni 4.467885492214976 4.2880615933830075 9.613959698801553 -0.41322384342712704 -0.4991133443020952 -2.247494861435071
Ni 5.078746163578746 2.464009219679423 11.815440242253615 1.342685349541462 -0.01106577089585836 -2.563732065632804
Ni 4.83998170145354 8.488610198709079 0.6997204447450838 -0.5269589057594537 0.7596758806453433 -2.0425445151394888
Ni 0.35698415557794627 0.019531193006230813 11.786790190280247 -0.04743428222256347 0.5105274996763078 -0.34913112671227614
P 3.0264978514759724 2.5921128209849558 1.9087230835655336 -0.3969217638329938 -1.9300055299977923 -1.5667454200833018
P 2.636622205420455 9.277835751470075 10.142489699804479 1.1396422475709211 -0.013488521404738059 1.1751671799504084
P 0.13076350232117775 5.065914292293705 0.1334626845754507 -2.0289917161557187 0.9496899173460677 0.5221540281716427
P 8.25329687397759 7.876842317786527 4.571891924157604 -0.08668242908990878 0.6192838778471205 -0.6716395086307013
P 9.138162890121105 8.079168754746634 1.5706144984157706 0.7458785697509348 1.076565116604778 0.902105482698885
P 8.651636691689784 1.5925829987520899 13.131105472961993 -0.39621291069142733 0.08071335599066745 -0.42511673820997103
P 7.045978652080198 1.8847886507626581 6.644083882272199 -0.9840611957370858 -0.052716099446793084 -0.29161709165620747
P 3.0837923438171924 4.290540052486897 7.718118055703138 0.485804285898015 0.7158689107627219 1.1896399196452867
Ni 0.12533146817952243 0.17886150848559054 3.558362081424318 -1.4313454711830318 -0.4584431202762427 -0.2066058796211345
Ni 5.723828275927908 3.277981952775853 1.7985027337790425 -0.6771198150189823 -0.4322384368564169 -1.4213600778355457
Ni 8.564273346446669 7.504241064051322 8.073542184947014 -0.8427099143493874 0.12840037765398532 0.10364219687269892
Ni 8.690534470607044 6.345163944259057 6.008865101888927 0.2500981464768144 0.5001970642845772 -0.7746777533708142
Ni 0.7103506961318011 5.7434034265106995 7.753228936163173 0.4892521352372994 -1.8296931688292748 1.842972402436684
Ni 8.934583194595259 4.635232921444727 9.976597546939125 1.5897056284239008 -0.39677881049722635 -0.4527288435002848
Ni 7.0518053691433025 5.962143809611655 12.305437218697966 0.37422946444180066 1.2620426988877298 0.5891230379930242
Ni 2.047618737550226 7.604221169034613 11.821107028559451 0.592203990911193 1.7490399766525813 1.0102195993000085
Ni 5.2769200124553555 6.760310520498379 9.846706649276033 0.8289138890065594 -1.1129914777526122 -2.010533509450531
Ni 1.6027961207952848 0.4299911433702356 6.374363933573214 0.1717538049389558 0.8704153506844557 -2.94135487202687
Ni 8.983254519790119 0.85872154603404 7.58887062213947 0.26573970966881333 0.4922970927112102 1.3994295963110417
Ni 6.91039291008368 9.115688410020558 8.538803204266966 -0.30484181787659753 0.3126302035727648 0.8620926897513733
Ni 8.700186432098416 7.756669785613439 13.216440222810267 -0.2659986197571548 -0.6453353235185337 -0.35189634816223914
Ni 3.7041459811826494 7.682727530234777 7.910921598098792 0.5389996389740718 1.2494311807713063 1.337683011230864
Ni 7.00673482415598 2.0261075830636432 3.452589864278618 0.6423381885634227 0.22163834847422476 -0.2261938290553911
Ni 2.526428978393968 6.3512899469498025 6.545881720970603 1.114510742610616 -1.7095254634977268 -1.391366873907565
Ni 4.271086486690335 3.4808321395843285 13.563677954870618 -0.711747946615813 2.9036085065160315 0.8998128300099664
Ni 1.0580121044087798 4.361274340044299 5.0209325977270876 -0.5301103069042419 0.3814594065313366 -0.3409331642825161
Ni 7.837551726482991 4.29962150075058 1.869395081558542 -1.0902580407108384 0.43808204012138746 -3.0334322468801047
Ni 5.093616918202079 6.3137108953293275 1.6897460777652253 -1.224471682612491 -1.72768310824336 1.961135161523061
Ni 3.608767392724314 6.475362544958067 13.471554097612861 -0.7882120404118232 0.43832038138443863 0.0781039433922784
Ni 3.8029570016829743 2.8014257068152704 3.8373075095952878 -0.5336286044701454 1.0797949363959856 -0.8845623316087992
Ni 0.9563485177700166 2.365488132130874 0.7422648319816126 -1.3579669582908807 0.009597413880447988 0.3742497761567748
Ni 8.935172413174673 6.350588496260022 3.213559786158883 2.4785200504408347 0.6932228912284318 0.7266685724813872
P 2.0174376525379643 5.500289970108859 3.6016313010402867 0.8378662131038409 3.139136982708787 0.47729676264763604
P 7.39559102854235 5.856879442765356 9.294071061501926 -0.5254622666092693 1.639032756793803 -1.934346323464991
P 2.4846318699589514 8.507437135222771 0.6021757765567081 0.7438347998480286 -0.7863898996014199 -0.40215395876621063
P 9.031533032598702 2.5395507826307835 2.9401034434523377 -1.239763061553923 -3.693949677455716 1.1723783043513616
P 8.860930872168371 4.309114466752267 6.484365430744494 0.11132979532494376 -1.578633172659823 0.2600532008069973
P 1.1772306636437673 7.917442283710987 6.935582471987469 -1.036863170029466 -1.8445410324753846 0.48140461416842256
P 5.477600378463445 5.3623941171739995 13.63747337323822 0.9495122541176229 -1.6553998852979168 -1.651783628701568
P 5.7788407153583785 8.097210066487772 2.4963601254920706 -0.5558833021032878 1.9186399684733282 1.265876213701207
Ni 1.3996372956833059 3.0674438664073898 6.921126976172485 0.308551662628017 -0.5645191234014149 0.0701684905952856
Ni 6.619898797756175 6.233193708818462 4.950600475231826 -0.547522074622786 1.0777218559170407 0.02586735468506513
Ni 5.202902935669783 2.8493394652651673 7.852252262405604 0.21872631703375234 -0.004125849242915474 0.4136763575835134
Ni 1.2449440368971842 8.002186879712259 9.113464343700164 0.006056747717041182 0.381312339430511 0.980934477182646
Ni 2.9819604090128817 6.529140431174523 10.062685187194429 -0.7912006907265019 -0.20066071778129313 -1.3545471339760542
Ni 5.191857425474716 0.61885720922726 7.023668779074852 -0.6023950725115819 -0.7941754570841097 -0.47513883576436877
Ni 1.2636119779211927 7.495225084518684 4.66311324819451 0.8184358722933711 0.4160168327912319 -0.23001011747768774
Ni 3.4531575717035463 4.118375995187324 5.659217185258491 -1.156667321374008 -0.0792470558577861 0.44188624435882606
Ni 3.86382421620414 5.040933295061678 11.53164825745006 0.0011459406789851234 -0.28231818285278476 2.573585818498432
Ni 3.238719419499907 4.608671321991729 2.1684496981041206 1.7595293062196795 1.5185991993953782 0.55589975716352
Ni 4.318934776409185 5.985076570829524 4.638391320083909 -0.8583622761746638 0.05926315653669149 -2.881250964756438
Ni 2.8765463993527627 0.6049189163875406 12.643311986951137 0.08363412918188823 -0.3207016677269896 -0.8222758148647515
Ni 5.774033439964421 3.7529950072189195 5.6134564127924245 1.5563859312258486 -1.0102139428730537 0.5346796714424791
Ni 1.805365727327849 0.6813209255183644 2.038709378522435 0.9606559294392681 -0.6054701118924799 0.6036006627839089
Ni 0.5419398676563444 5.958730082921393 11.644237640032836 -0.2848808013736384 0.6183400258766125 0.7293098667589762
Ni 0.3282630232680127 2.7048967392256955 8.940905603479141 -1.8041508015837964 0.432328682577378 -1.0106469166454142
Ni 7.045193027307644 4.5134610816989404 7.55237648091919 0.39703540659272263 0.012220967546224114 1.0042608106134125
Ni 7.896164946120996 4.539433462572523 4.052533157106653 -0.41432838934521543 -1.9627976368271487 2.270237811558542
Ni 5.079606609758208 1.5491678773926476 0.11918301906670523 1.3512918602635502 -2.781479563693055 0.43158717642566313
Ni 6.911795811463239 3.499247558360016 12.993767974776198 0.2231918090042737 -0.3503248899100612 0.5829192231751574
Ni 5.226013397729065 1.4347752989033455 4.690202338566223 1.0311157260227273 0.34701588014148627 2.0226997124994197
Ni 6.7319438546036805 4.498281688772104 10.670800848192194 -1.7153839791610328 -2.8169553880021616 0.19065501271883292
Ni 1.6646079555786875 2.25896115404297 10.534092785092028 0.9804500813470597 -0.2763817627636918 2.3857945004806393
Ni 3.201449006182937 0.4004338818380844 4.348918519960724 -1.4745775423987895 0.49570200462770114 -1.9018167262684023
P 3.1982878017409955 1.9390996395033475 5.872732228354381 0.630381787532495 -0.3807508105000862 0.9638708368321399
P 2.003006473680226 4.547963102960247 10.285685714151315 -0.5384946743131951 0.006117682861963657 0.5375595640934355
P 2.3562289830257797 2.680551723952402 12.841700947372612 0.5533371386426664 -1.6305465736996627 -2.4396827658586626
P 5.582967624744247 7.809044770450336 11.515236181844383 0.4792173767091166 -0.060572105156102125 2.3359068716215767
P 8.747726083513763 0.17187599488296937 9.833566139687491 -0.29195082084654234 -0.3516577497888718 -0.9717422691604167
P 5.78771640475306 7.693174469174564 7.119160534911138 -0.21240731679426 0.5382658461318407 -0.29403495706908067
P 7.043556309031492 2.4514018126151127 9.208298606423229 -0.18794198466304407 0.6919440245160083 0.5023115395244189
P 5.59400378226345 4.146125384475016 3.619618367261415 0.4909272089468771 1.8279224500820972 0.19482431360517416
