# total energy = -340860.9743712792 ev
CRYSTAL
PRIMVEC
9.38433266356818 0.00000000000000 0.00000000000000
0.00000000000000 9.38433266356818 0.00000000000000
0.00000000000000 0.00000000000000 13.73491943601352
PRIMCOORD
 96 1
Ni 8.138722182094789 1.202592868070923 0.6506927467625597 4.013044919927534 0.8919033453549027 -0.11171777479198179
Ni 0.8622540845574523 7.55897686840771 6.651999868873429 -1.1075772487155764 -0.8895217324966035 0.8582915708377282
Ni 4.04920823629096 6.536525653377306 11.172945378556378 -1.6399228727082402 1.5303329428925387 -0.1112709170625503
Ni 7.519027763542453 2.907313232976553 8.752000532289978 3.342173656921425 1.544946064820023 -1.0030673045259433
Ni 1.327179270746789 4.102276638455168 1.0906058706551214 0.13654023315230032 -1.6459685646816877 -0.4041735602994007
Ni 6.691977126737182 2.4816586643887297 4.514063978417341 2.3163574887347393 0.8578778803390774 -0.12665974081379477
Ni 5.348966486503033 4.3300719336159075 5.136310935499945 0.340295273588201 0.5481352827267527 -0.5869800235080923
Ni 1.320000256130411 6.170611747597149 2.089782063395929 2.2785571300575143 1.5406746911381788 3.041231945430182
Ni 7.826646193771052 6.500151979320989 12.904465521163255 0.02462036965184147 -1.2961026166859164 -1.333226261011091
Ni 3.6588669121494526 2.480382395123596 0.0660872871018569 -0.47834088764143423 -0.00972056972187358 -1.6219973985780711
Ni 3.9415417857109505 5.57880756622112 3.4910046586194317 -0.014458084406858971 1.2118421667739387 1.4369152519613253
Ni 0.7273233318010193 5.091253938274303 6.432104305090556 0.6277752031475834 -0.6953191116358283 -0.008118258231760211
Ni 4.770037609772327 5.107638983398743 7.341548445726334 0.8442790586087202 -1.0713776588665678 1.3132058520251062
Ni 5.038119845780272 4.599336595560667 11.318164175396388 1.6116654205244438 -1.7226586584455752 -0.8774308627703404
Ni 0.325477754040926 3.9681932909534523 3.612215516775675 0.16519157834040582 -0.34346441534480204 -0.14403628441902938
Ni 5.211664312839988 8.72200538925948 2.5974519472011366 1.489084220655397 0.28273470156491304 0.5793086230057636
Ni 8.534750411932409 5.727708775264354 2.0622296622015672 -0.4084187087289998 -0.7139902056827704 -2.1621859156539216
Ni 0.03624792399636943 0.7407241590849253 12.247208433584802 1.665767601685486 0.17037363676197756 1.3648271757458237
Ni 8.762545707093146 0.48678505108788767 10.138540400364741 0.4969487325506087 -0.05343729388353378 0.46439316721209056
Ni 0.9080815355085916 2.9075478412973497 7.94738126625272 -0.4764997206676374 0.16701654736428656 -0.7256941243832599
Ni 6.414538710895866 2.479453346173241 0.8274823161155357 -3.828193144154039 0.38680910087902415 0.5422695679745951
Ni 7.1779635711010785 7.728317154358749 5.737927375284973 0.7879934966431138 -0.1287014538341719 -1.1791739871169562
Ni 7.424518147592719 4.771492181361267 10.51563292341422 0.05831261969796409 -0.8801773151672261 0.6074588601877344
Ni 1.1998807958825133 8.343019107844533 10.801840998286915 0.7211900658653193 -0.7553589984375442 0.8133515157919282
P 8.458624704000304 3.039576019908886 6.388207211402931 -0.04336345458729952 -0.10789685838399482 0.5607858816112278
P 6.414172721915424 0.2914792546243551 1.0479981842985957 -2.287216862615041 -1.9374283048244247 -0.35822588992469273
P 7.448251125324512 9.233930129570657 3.940438188169922 -1.1918271571045926 -0.8950845712963617 1.157615287109574
P 1.854222171250103 6.322027957839322 11.415558535258636 -0.2455627205003061 -0.4315640364972116 0.18310445406508466
P 4.509969594002797 3.488015748612482 1.6288649257590826 -0.11313470974416644 0.039283113870338796 1.6642370239735724
P 4.025681713881469 2.2249314711073445 5.166032994445035 0.758307796653223 -1.0950449205765205 -1.0763190620322431
P 5.565941645908631 3.850616984902991 9.246237682079652 -0.16096879850830986 0.7467841122843397 -0.9329723474810706
P 7.473429290312411 4.180344903283469 3.2428969750441166 -1.377964227348414 -0.23330730017172074 2.23675073554469
Ni 9.073270351489095 4.9720916799752555 8.735546043102582 -1.2677693169588617 -0.5395231155777095 -0.20254585061914793
Ni 8.858425435636333 1.2226471873326228 3.375411262096344 1.0490360579465738 0.8939555998982411 -1.0335215072507427
Ni 2.9258566746523216 6.159369316864571 6.196206576962782 0.7410423247045561 1.4118577947720654 -0.42170488431494474
Ni 6.921592982467304 0.5034628873966817 11.7018632687595 -0.597124568141262 1.470171957131926 0.9359013482024076
Ni 1.213169011172437 6.589997581853284 9.01459856419098 1.4112312169316599 0.18944633712271247 0.36375350461114125
Ni 0.8566628990562261 6.247234825169342 0.01985161767253143 -0.7459518461910314 -0.5251645328631923 -3.572086843809932
Ni 2.260103950561182 3.9770802541452306 9.93544279235091 -0.25714605446253136 0.3615858075358611 0.8965549851943011
Ni 5.9343236312235685 2.6750791483863403 6.876154042895404 -0.09783278927977346 -0.46581473014996555 0.13498934372541266
Ni 1.592389900908182 2.694448411351314 12.278908709890851 -1.7189341584061362 -0.0023281339125443778 1.4608794760864068
Ni 3.2701209245893628 0.16727479429474593 4.078281837837367 -0.04042905454932392 1.300390702538309 -1.2031436105586764
Ni 8.395890439019272 3.364546081543608 1.6873349499013133 1.1649146489844648 -1.3937271466096255 -2.1808500677223277
Ni 8.142579142888685 2.633966386249931 11.49645711486903 -0.53052219763068 0.28731486473642776 0.8048763884413815
Ni 8.558173706680748 0.28476288761658786 6.032720237832262 0.5305098563355057 0.914865867688347 -0.43852966918176733
Ni 3.259938923466787 4.753755792309038 12.68724730753731 -1.8172801398769027 -0.06520831837653286 0.5161204203830531
Ni 6.997549772408435 4.199564016923133 13.247631804158965 -0.23721614830782373 0.7135400055192291 -1.4605388049175363
Ni 6.795017101231082 6.164361781931125 3.53263543592816 -1.5259283860669397 1.0165655961226945 0.5121943458557694
Ni 5.710375912523895 5.346901933280023 1.2857821633255742 1.2651429350796082 -0.7312145399808568 1.2794740069902997
Ni 3.4869271660039853 2.2881067997314735 11.277302913379872 2.7569319562606776 1.553951353642427 -0.9450318497487661
Ni 3.438363243599074 5.334805528259746 1.346771880833161 -1.3972547001469096 -0.019684108692488683 -1.338410890535824
Ni 1.3825749874532998 1.8909524499540304 4.666741442992118 -0.19401313055778846 -0.9782173353617992 1.5533785118580925
Ni 4.67947879794481 0.18275143600106097 13.071811636387523 -0.3233735581321979 1.899289331860858 1.5751848090999063
Ni 2.6040303645162752 3.2795897164167163 3.310033430556576 1.4600914329674726 0.84320716570078 -0.4387584973631218
Ni 6.007399430985318 6.22028302127622 9.474306061325798 0.4208582200439332 0.7876733942995338 -0.1621525344037659
Ni 5.955607298086243 1.7780776946523342 9.633974853860316 -3.376325363102469 -0.8352483158650196 2.4123380552971225
P 3.282104717615657 7.8737836975855195 2.6201282490560605 -0.6079455700161659 -1.0680794477312703 -1.3744621277324265
P 1.8427639008623935 5.245870206012143 4.424526182001932 0.33298408463876844 -0.03151015479313928 -0.1405110448745903
P 0.21379387057559376 2.9227692291506377 10.017220683947649 0.3623440258581243 -0.002166154413383366 -0.4635657862147887
P 9.126704742633747 3.973504823336289 13.3248498484327 0.04262477664906208 -0.22254826188300383 1.3359038078432541
P 1.4621353612018682 8.934419762908792 5.3099473690214145 -0.04960069374626296 1.7810383839360486 -2.135242297185542
P 5.334533382607622 6.040554278880303 13.05068750318299 2.136992961328062 -1.8062817318838698 -0.4479414494139705
P 2.6920741751448514 0.4786291274237121 12.185469846317233 -2.3450052343784193 -0.3478610017506009 0.7653420777921852
P 5.258632898663483 6.617043229074724 5.103429171690367 -0.5955662225152066 -0.464905845182451 0.670063165282517
Ni 9.340977214183765 6.634085177497395 3.963718841059218 1.4653025448547667 1.2465376612735952 1.8839498732903102
Ni 0.33612709493852866 4.645010143453363 11.497528805678426 0.3835561411593652 1.5820236863986108 -1.6248430955569824
Ni 7.022446407411378 7.1827120435140035 1.1652901450642517 -2.258574773398317 1.4168801876873212 -0.5457847802167052
Ni 1.3743355432269206 0.5986875895082024 7.349376856174677 1.195627504687289 0.44718683063613307 -0.7357571650462168
Ni 4.094553332534542 0.1375029983856479 10.672238669712415 0.823992283335226 -1.7345546385522128 -1.864048763491009
Ni 8.542642635844008 8.554129059230213 13.62440807519201 0.36836786345470107 -1.7801202429971537 -0.1466043022565217
Ni 5.549012309479942 7.364214424815142 7.327470069611968 -1.4127846774617088 -0.12613626421015695 -0.02837906536332532
Ni 7.35178956814575 0.5038748596080007 8.558105201051074 -0.45104682781217165 -1.1520213379615643 -2.6012236348203586
Ni 1.6318791734646783 1.1379348148593593 10.15044911872838 0.8478549488854367 1.1632061509337903 -1.165146819599929
Ni 8.071718045675258 7.593651978221459 8.339692361855636 -1.1109299672378932 -0.5825813802197645 -0.5558650472708427
Ni 3.8505794475716635 2.2702577986852623 8.259974331315492 -0.5615458997057039 -0.04419057847428518 0.46151250323018583
Ni 3.2982551544192997 0.7095634819167109 1.5624707709736239 -0.7572037649557669 -0.5903710514675123 0.39849656451928145
Ni 8.562903410428008 8.17165180600181 2.340951854774283 -0.042286676583352986 0.9496554645637064 0.3588956622982077
Ni 8.645485539348439 6.856062186302377 10.531785237084428 -0.11459766744293812 -0.24259592456249834 0.8395268886357155
Ni 8.264622391367116 5.062143737829851 5.145650223534219 -2.7265494873140783 -1.1243806934261602 1.765741348567662
Ni 3.7896188214958557 6.873939340347084 9.028017221707266 -1.3283977292741962 1.0367798662870402 -1.8578968849570003
Ni 5.687712748734937 7.905746735210859 12.060839337277057 1.401996328596953 -1.0184093341996525 -0.8283495318626573
Ni 4.904862319567761 1.9612223341990505 3.1278253474264806 -0.49863948998947033 -0.29202461150727127 -0.42515761875023544
Ni 3.5392917432058035 8.9535638018858 6.176071552438728 0.48836741863950084 -0.9092503212737825 2.7404378152603965
Ni 1.3129901595050062 8.619434631407175 2.9640922003424808 0.055375134336194946 0.8532619788336208 1.6556263994864262
Ni 3.8196299178921658 7.250889221537516 13.514845050946679 -1.8601838812189642 1.3075561099384965 1.141213448712783
Ni 1.7311278774945036 8.269333326448713 0.6864630082177872 -0.3117894528390244 1.1041425120024146 -0.3759631593034557
Ni 3.0913118468109686 3.848008140375732 6.051715065917243 -1.2177353923299221 -0.7643905125121933 0.1917526166583859
Ni 5.650625865383398 0.5869515428686696 5.21245728896428 -0.37385151227709157 -1.0094282137469648 0.4288512655517388
P 6.990023537477278 8.303923977266974 10.339853108273953 0.17310954763590186 -0.8611586079728782 -0.7317089631187721
P 2.226461117358939 4.746520471695669 7.968574843520209 0.9103281277189935 0.9055291636684534 -0.4664330804602547
P 5.584044023941302 0.10301932896166943 7.437431928002652 -0.3615469838781257 1.2918065604137237 -0.8411569680399708
P 1.0301369836197032 1.2605598919733654 0.9071431022254048 0.5282655403860193 -0.38296607298385016 0.020272377095790894
P 3.2872848693388477 9.215320997565065 8.498179666886623 0.4322451217246362 0.31322515684428637 0.40886890889254096
P 5.397258263255821 2.7106551541519486 12.304331805965662 1.013947955994189 -1.0753435854928513 0.6470471640033179
P 7.171826217429037 5.8599621778638555 7.369457451568306 0.19239770644155252 -0.8711882242947383 -0.6220655543573157
P 0.4370424564792935 8.668073628474742 8.627328732185342 0.8527878674106796 0.005360235870648833 1.1557388960224675
