# total energy = -381163.5746455418 ev
CRYSTAL
PRIMVEC
9.31455401218380 0.00000000000000 0.00000000000000
0.00000000000000 9.31455401218380 0.00000000000000
0.00000000000000 0.00000000000000 13.63279132637922
PRIMCOORD
 96 1
Ni 8.035498020032762 4.542195654921369 13.46471212624801 -1.1563287070876664 1.3062669588134277 -0.12303885623175584
Ni 4.959822995269479 9.056000549440805 2.3057414479209557 -0.714233432041828 1.2579176209757625 1.1966274067067133
Ni 2.345134559434031 3.117208620771228 1.5099543951693104 0.017048727952170637 -0.6367115864052647 -0.15457575049777247
Ni 1.2034776269590801 7.247058287427128 8.184582113081689 -0.9617144526107695 0.38755986300211964 0.7248682860478549
Ni 4.637343823394381 2.1221720818286975 2.295652854551096 0.46120705617462504 0.8340951760971829 0.48550758059320254
Ni 6.329481579030028 1.2024343969180642 6.817758879539759 0.6526393133791147 1.714518545836944 1.0353166514779524
Ni 1.1225155241330969 5.477619048662991 12.025784930674794 0.7169680573641716 0.575608548446357 -0.23028162597151955
Ni 4.391802867044203 9.188136811600193 7.361884382548803 -0.03359557656725827 0.19805670449954274 0.15841286485567557
Ni 6.594909108037071 7.735895392628511 1.6574065783683622 0.03596999033670579 -1.5917977350662393 -0.16038310120816893
Ni 0.8319955182734408 6.575935361666094 3.6513936318180202 -0.7428079012454111 1.4352520053262894 1.968846671234706
Ni 8.30920618749037 5.517485339516098 11.343587000281904 -1.6159661047823266 0.22829313478658103 -1.435496774347244
Ni 5.536347311239823 4.159740070241794 8.142552982804261 -0.6384789627183327 0.21633056310806614 -1.0521540347502654
Ni 5.143804064645781 1.1229067353984776 4.894989974041917 -0.5791875240468671 -0.3785275775965223 -1.4417607529790846
Ni 8.759844306993482 7.134156579148971 13.36325707330382 -0.18323480899536185 -1.5852941296197665 -1.0305904496468767
Ni 6.552043530816043 5.317622955676117 4.152425351034564 1.142933002507051 -0.3213511283855304 -2.6845309767904477
Ni 0.4821194489015556 5.369849659604475 6.710987079207964 1.5969268287626885 0.21280275246046576 2.8160896975677563
Ni 1.96017335974523 0.4184395694514732 8.059665561679367 0.03822021982346321 0.650588344387357 -0.5916270353618005
Ni 6.750406271472064 8.137604160297192 6.788434800833275 0.5707635616492299 2.1713580690714926 -0.2987277345590597
Ni 8.680763744062903 3.1170037005845996 6.661840698266784 -0.12105910679756571 0.4808726529243525 2.6120996583029146
Ni 6.208299232301307 4.390144876443303 10.407177195278285 1.6611874385139715 2.0348049804033863 -2.201076679181848
Ni 6.961557894684467 3.0582847525617054 12.06799196893243 0.3747110320639095 -1.250400743773427 -0.5729106898992198
Ni 7.9260985840351585 8.539806599324567 10.948917241023898 -0.1427733585462057 -0.500910288301518 -0.011952030155553609
Ni 4.717598020121104 6.646288187557103 3.3263054533849874 0.9223403216885212 -0.14737640453585585 -0.23623501534147703
Ni 1.5339580006666134 8.095986733303809 12.434496379993792 0.508108348711854 0.34460032872145807 -1.1163655364311678
P 1.4627016630436531 8.403106205735735 6.432509860134284 -1.1406727457179646 0.9602247554391204 -1.584201153665904
Ni 1.999294486283326 6.048452172177435 1.9221280641869318 0.7689387940045079 -0.022885646348921873 -0.5983260446485308
P 3.7841865700300112 4.7584516536916 2.8827352174097567 -0.11558419972592353 -0.6115371440221662 -0.7349107578855214
Ni 2.9187620491297674 0.5381427650148963 5.449245054458147 -0.3616660259544933 -0.31905693303471505 -0.18570795312620275
P 6.597116657320291 7.739360406693314 12.990209188101263 0.5256085623791464 1.0812527518884345 -0.12966073242364765
P 7.311645404430736 0.32234876811997215 8.561311110000402 0.7297914343810851 -0.26787218263078383 0.6905682272144043
P 9.269173430857677 3.1669203951364224 12.267412842915768 0.2946841606173054 0.9872928153005062 -0.26382912290966176
Ni 8.570376965347908 7.4789720513665365 5.492569839188301 1.0724973742933077 1.290271611826436 -0.573262931032316
Ni 2.7910408855368223 2.946603250849379 8.597928484440061 -0.526381693099745 0.23134452001839512 -0.590040407600971
Ni 5.265480082733197 4.640808837459184 12.294132572341287 -1.6960896497077953 0.7060159292280421 2.1956228551561283
Ni 9.138751046622817 0.5494273471103495 6.790438361385262 -0.8735376983635214 -0.6066214518881037 -0.5695204332707483
Ni -0.12757678800691186 1.6569473708592366 8.936867404578365 0.8974132194295383 -0.4940086760856782 -1.6382305726074817
Ni 2.8115794769693228 0.8980673751747096 2.613487789832887 -0.915973756040545 -1.8216415021693917 -0.04247436711412685
Ni 3.1282649962952087 4.949297549319945 10.743729726697767 0.773991525937067 2.843053884861426 -1.3531191432802763
Ni 6.869567359996316 0.785827000226125 12.894916644042219 -0.15768087178565748 -1.1902772961189696 0.4948509694813155
Ni 0.7716055392741334 0.7171340278468037 4.273634709969704 0.21058543309417282 -0.10676917253745483 -0.15214888622383474
Ni 1.4669490996392178 5.109489247939509 9.207314546702403 -0.5072573135654683 0.04103557778507126 -1.2123450745522864
Ni 4.285058078918827 3.4435626470843856 4.744483548606712 0.7527917519310003 1.176501839601432 -1.5161301690295952
Ni 5.876123609777124 7.0823769738096205 11.00269854400445 0.26519669268114976 -2.2353710815883434 1.7423237409746706
Ni 3.1633715500861803 7.58315533715906 10.332401819177683 -0.17976510527920653 -1.384668121731151 -0.7421568979249734
Ni 4.338514303966955 8.597612721061573 12.112707416565474 1.0606561586840055 0.40359326231589854 -0.3645168651397271
Ni 1.2432228286109979 -0.2830534594232424 10.160383431423496 -0.5031715735318688 2.3238525115602044 0.40859868595028986
Ni 5.212824909323708 5.574946822757411 5.709781511192534 -1.9288444198101555 -0.5196700854075244 1.1405817286660551
Ni 2.5768527177407474 3.6793605800157896 12.40980722332668 0.009818271642002446 -2.0724292185140634 1.7436735701343455
Ni 8.620237772576106 5.272102730582861 4.944777196294007 -0.03089411847569518 -1.581445702407954 -2.296379502950916
Ni 5.361606279369662 6.705454234169005 7.6289512730488696 -1.9525988419172762 0.053954856949900626 2.287664748785738
Ni 3.0557791375524794 4.666097851399881 6.748177298714786 0.25275075360831306 -0.4279989448537726 0.43725363068282114
Ni 8.733661095874771 8.566287876169284 3.0531449816989147 0.0746946606004133 -0.5167413417965037 0.04214680857137903
Ni 8.348923445480473 2.182828457070621 0.5766509939038954 -0.9465264320164215 1.5411955966386552 0.6496339508938876
Ni 7.418138699599797 5.914937356035276 6.85464917040979 0.24715988978409692 -1.4071994700644475 1.0572306779422245
Ni 3.073113522430431 7.162882663492659 6.9305842084756275 1.3304800657245215 -0.24000682367908344 0.5206247360113099
Ni 7.10730272014675 1.4324293627463172 2.2729681898913627 -0.5672023266605328 -1.777217467528062 -0.06455654372514688
P 4.59646224616207 1.7633102622731691 8.639440656973948 2.110859240355487 0.8920928356578894 -0.23379555266204893
Ni 3.3427232861554748 6.513993577980776 12.590291609154791 0.05159407002720792 -0.15155830382768737 -0.2696637273135678
P 6.898973406777452 6.347784677517494 9.158468094398016 0.1380021624098075 -0.7385699519046635 0.5330269663304046
Ni 2.8523679086622566 6.167417655068998 4.899161962750586 0.32957608739848404 -1.5715618676353387 -0.7498190424559215
P 2.5336145583622143 1.2337965000261042 11.953694940474415 0.2043970448952738 -0.6215497910631618 -0.6421255583319845
P 1.5870416435572345 4.342109721786884 5.176452507652611 -1.0069144461861756 -0.6355988129570602 -0.9030696463843673
P 6.726207060342071 3.53103562311278 6.095180494916403 -1.8079218385904543 0.741442388356452 -1.297401795113314
Ni 1.5013477473309291 2.248850015380627 6.343173973318362 0.8074613755597385 0.8369521859300038 -0.5632507982119526
Ni 8.269637962363266 -0.347716024313746 0.862523968804062 0.7585425383718484 1.9134671660231368 -0.7483771678030724
Ni 0.6655807661681374 6.990563415646284 10.377567159765915 -0.9801423202986539 -0.8112159575061643 0.9102257978131744
Ni 5.897686802142764 5.158260252357001 1.504828596137426 0.0017825458217195108 1.1784844172490994 0.8096295868556509
Ni 0.7770135692903283 1.3336950910073133 13.26913630013013 2.232370604199123 -1.3811351688772278 -1.2201992804893824
Ni 5.789703178343682 3.0750230059876476 0.5814153882429992 1.0734093445846158 -0.6914629711145317 -0.15195245394231252
Ni 5.566610296983221 1.2058342091053031 11.089825950081758 1.665087802009642 -0.6039336206432954 -2.74257208799458
Ni 4.438049627344595 1.889950937609348 12.740266173560157 -0.8418110566842018 1.0966009522097306 1.5541588416675427
Ni 3.5921111532818983 4.9478072206899215 0.5857904342275095 0.8901010020388412 -1.0147223722663687 0.4049670027349736
Ni 5.374311330940605 8.639276720824645 9.583047817805182 0.7352771400860046 0.5198294938035241 -1.6941926897953985
Ni 8.418810543674601 6.070490406793896 2.12757452311253 -0.3720160017302496 0.36073580083074 -0.5684572821135564
Ni 1.346260424269192 8.397424327833773 1.0085426421521109 -0.38742822252026177 -0.1434942958726303 2.0043862589022123
Ni 0.9074424737129461 4.617000837594571 0.42283510745464636 0.4842477400441724 -0.18704338410817464 0.824716048875128
Ni 3.446394271481429 0.6210227344966399 9.86444235517213 -1.0008003628686375 0.0013511147112557375 2.028631504602822
Ni 4.046018681217124 2.4839307276588323 6.71391836933214 0.4475534699469324 -1.437458268948989 -0.208318491436867
Ni 7.512308839909356 0.584113814518734 4.827930774423258 0.6483540557401994 1.0677400621139805 0.12518932691585538
Ni 3.8663129920981993 7.3272472822762875 1.262853251034578 -0.14814567860171263 -0.23938487382436838 -0.9609984003803516
Ni 4.301693872251455 3.1308078695201846 10.538638152277192 0.3217488780445814 -1.7000794875934788 -0.3528692535984697
Ni 8.773862710669633 1.4157376820900627 11.068871929543638 -0.4812133240932228 0.10007144880230508 1.55376186333944
Ni 4.617243015996949 7.970473118994085 5.209116785401133 1.1769612957363538 0.5194787953323247 0.48593978303461477
Ni 1.414331184445479 3.0341134850935245 10.341658622880912 -1.0513505650123636 -0.7756398601737674 1.7190102630597106
Ni 6.976563641078009 2.545816624020525 9.129021063579556 -0.18620263337443418 -0.7407936990288596 0.20765746081410044
Ni 2.2887535644494843 2.7320425008957985 3.8249926993754264 -0.9777293399817871 0.34647851958077747 1.2884376439414906
Ni 6.467988996082763 2.834083439282665 3.7933381192737445 -0.053618556656404436 1.7975875465439817 1.4862724622382144
Ni 2.766217599293007 7.983420348967407 3.654092058093755 -0.48315784941410334 1.8197075183714724 -1.3674468727568578
P 0.779060908245822 1.192011411061843 1.8383818411889876 -0.1847990681586882 -0.5200994596354591 0.7282282036590232
Ni 8.734424889297658 2.6841191208866313 4.540046787327955 0.5955600518676194 -0.086760847736328 -1.5364544824092443
P 7.812284049471112 4.0241108503557905 1.8433306636960565 -0.5746022186690297 -0.9962255990137617 1.9757829933432232
Ni 0.5415425772021356 4.380187618283964 2.9744705333200163 -0.22867134406160616 -1.0504751043859457 0.04269728175821034
P 9.048539591736754 3.846044522729891 8.781821065553954 0.07117327771071613 -0.1632596514250156 0.0012248735460366
P 6.852782533800686 8.135741249509664 4.054705434219369 -1.3990423881749519 -1.714348853028299 -0.4522706729169437
P 3.747394081976326 5.480730109678163 8.618664544416038 -0.6213191631095945 0.31436004177967797 0.9096863803699365
Ni 3.355251361201603 0.13583693443881267 0.3217144469968187 -0.6300285179581343 0.797263094870498 0.6142866817428453
