# total energy = -340889.51908642304 ev
CRYSTAL
PRIMVEC
9.07736064429876 0.00000000000000 0.00000000000000
0.00000000000000 9.07736064429876 0.00000000000000
0.00000000000000 0.00000000000000 13.28563485660775
PRIMCOORD
 96 1
Ni 6.4594681267162475 2.0367056058408743 11.395554495218512 -0.09530899441665522 0.969747350217575 0.18655024652184002
Ni 4.514788805046369 0.6175700749573861 5.794131163559551 0.006317971798227829 -0.7233284523645607 0.8088227746836393
Ni 2.9935592890869676 2.054597084051669 4.409103816023125 0.8449683713662608 -0.4000477110564852 1.299847428440329
Ni 3.6869425740234174 4.562989591093715 4.602635872287762 -2.292616693474374 0.5532360942884278 0.1551079688521587
Ni 3.92571347349411 2.8398251059423636 2.2879460758940984 -0.41250624853481216 -0.41488991827564026 0.31301381216442864
Ni 5.214635170899149 4.849108004693025 2.363474256742863 1.0278506821182103 -1.7239452384674825 -0.644182183750697
Ni 5.37557677854876 4.639194035324877 11.44210683253776 -0.13536138235285075 -0.9122564550899579 -0.4584744877348105
Ni 5.919710096594352 8.358542787538317 11.9775712709835 -0.2192683055801514 -3.079052358712065 0.9652078104760088
Ni 2.266943786124279 6.526204883593853 0.17442693490986355 -1.2477586781648897 0.034686752748908 0.825843477611352
Ni 2.893653855708985 1.5265125399668513 0.3392509297896919 0.1344326998909943 0.5554901804299271 0.5063898233588504
Ni 7.991926338031689 8.947073477440325 6.74773424388972 -0.1639674761253176 -0.8104795935607719 -0.6834799529090552
Ni -0.04776961140756245 2.297824967693595 1.1174984611963175 -0.01903002004825755 0.5839070410097235 1.6639189785125215
Ni 6.95090736509991 0.9494011699984716 4.710262508794157 -0.2555352583319857 -0.14342641874917234 0.6016072865029639
Ni 0.6847588844047012 7.198265447922918 2.0842373903944935 0.8309980252290978 0.15962951087159605 -0.2271831895518539
Ni 7.639470571431626 3.891528132579929 3.6306583981502407 0.7757157077170254 0.5520554437167654 0.1914001184149736
Ni 7.983847486886277 3.738420287333115 12.51873538429913 -0.9058664924032142 1.179631643479665 -0.012982271192280867
Ni 8.444487239948161 7.485772697730371 8.732342152675692 -1.3899003166643675 -0.6427989302499252 1.5183073791865722
Ni 7.081412581861246 0.8661989882976494 0.4327686243462963 -0.8520720722905777 -0.16980439452206886 -1.259860089414114
Ni 1.9502891306674788 6.622170742368343 9.14646860106993 -0.9383354115651968 -0.37296139636265446 -0.4707646179560731
Ni 0.38231302186690536 4.823773090595447 1.2302311131738297 -1.9956817891496794 0.5959418606870704 -0.738083242076232
Ni 6.505326953667508 2.160275718922328 6.980206362675243 0.1563449265830533 0.570281994027121 -0.6560653083415282
Ni 3.5599139864628606 4.265833106715955 -0.011796030408385255 -0.40514286619120543 1.5016345465165815 1.5419311892530991
Ni 6.089792606607368 5.736174937820099 4.538133961648359 -0.5606472991508344 0.42433537995925635 0.1358907724937595
Ni 5.109047309636865 2.827289270625719 9.518387137041767 -0.15952538119356396 0.6275918834921838 -0.4559620057256018
P 0.344885247661554 5.757415962179946 12.174717024597562 -0.1479872986469774 -0.3971742461634321 1.131198230568626
P 4.5240477131006624 6.288850052413817 12.467585363715667 -1.9997235633192205 0.5731336045433033 -0.16273617482137778
P 2.4173919646456925 8.65114243677563 1.5571831267647367 0.5012576443386076 -0.5326554419235988 -0.6633960376749864
P 6.15790912233228 7.94632167718388 5.771306139733553 0.8806473128251092 -0.6404936791555162 -1.078292126598214
P 4.941134288864022 0.9331345393775972 12.674867806177012 -1.0572918701974632 2.4512241908393593 0.476016867493948
P 4.039652506726932 6.377871730147588 8.027473283071503 0.23662273769819897 0.2064097044499284 -0.5384401669261759
P 4.939945154594304 1.1281797916938527 3.6653738569373346 -0.6963187565449364 0.7430081901816752 0.25370386155020175
P 0.33682727444606836 5.706274111221238 3.547716736705456 -0.5910109990443564 -0.32455832246891847 0.29986030550160614
Ni 0.49261475661212406 0.007636783672623713 4.565848052021457 0.18595657880189911 -0.30261447120797563 0.9311715468269061
Ni 1.9199979775526028 6.727867531960677 4.847330657441034 -0.7783518597882918 -0.4390215212165213 -1.4735519293477526
Ni 6.039413253959013 5.461212600690128 9.234566203470438 -1.5867917972112155 2.0008566484823995 -2.398826136853617
Ni 8.683503228161468 2.1323265249035375 9.928859947698893 0.20600475570202587 0.6386910787291388 0.2103280656677281
Ni 2.2848806511392605 5.254902343574484 7.010803422850345 1.3795644819559982 0.5243793179577357 -1.1267725906971044
Ni 0.8967016439200403 0.16156703781131843 8.77367409977727 -0.16230577215217856 -0.2807626654402068 0.8334120339872291
Ni 1.744223962294448 1.1876728146231001 11.350502645645712 0.1464137835122704 -0.3785851703073351 -0.407627323175956
Ni 4.519608883651104 6.863546844399411 1.331207675130642 -0.5033659489308622 0.6968897985570578 -0.345549837118921
Ni 5.840855062998629 8.212333736528036 7.827364678880066 -1.6647733560930167 -0.9739107375666453 0.5843875801905678
Ni 5.294652106682078 3.100254588371431 4.697575081551526 1.6529007730251466 -1.1765553185471864 0.18393003529017354
Ni 0.6681881621957692 7.199391040666773 6.804397853445906 0.5390993977767297 1.8720549216249371 -0.2471488340405034
Ni 4.9902609657167964 4.895284539273599 6.59196037776492 0.5294773013059333 0.011435495530451272 1.1293154117236164
Ni 0.5650584502482919 7.6721853798901245 11.19083549945769 0.1307755627543812 -0.157987861503115 0.05363424038568828
Ni 4.740796935179479 0.29544721733205137 10.166407218928684 -1.368063166184618 0.3152786969392054 0.21934980955036418
Ni 7.946348909266393 7.27476036770088 4.67736706085499 1.1031909467224226 0.18757226002845115 0.12849679402253353
Ni 7.281441305277312 6.076103946464356 6.943352277674824 -1.3527679305884446 1.5780094230328952 0.1753579773504464
Ni 2.3644437188803127 5.2956324616525325 2.3746611962390496 0.9058001579416529 0.6675763943049212 1.0224120276011424
Ni 2.462524602729949 5.492338871002058 11.353079708387488 -0.983445673640274 -0.6157491252209847 0.3472971588273309
Ni 1.05057743389371 3.4898095287145274 3.740358303871931 -0.06347873727993583 0.5434335063757093 -0.7920195870833714
Ni 1.609543159547844 1.2157944784978036 2.863293714651744 -0.7461238529925215 0.1597200137028733 -2.1399484444119596
Ni 1.3683395273726895 3.464302144761035 8.090021745658666 -0.8290455294884174 -0.7528449737664389 1.1513734199649204
Ni 3.812664021623368 2.965719023398228 7.257676774604628 -0.6300148911113795 0.5677792822099254 -0.9491803246995006
Ni 4.0778228090487945 6.963543051385768 5.648361456813807 0.7645105830298252 1.042511883674811 0.5436780182863475
Ni 0.8609876754408169 0.10960822437723056 0.18581448408055948 -0.35728486616766203 -0.6081175768176559 -0.3280272548541254
P 0.33725754134976776 5.517701017182149 8.109605243929577 0.11495376523077622 0.5615890942388134 0.41085560030526663
P 8.640939483194236 1.5130962006489648 7.808884079950914 -0.16910762556536038 2.0689847116088886 -0.058424205575163896
P 2.317704387927811 3.3854108017219615 10.40294417989726 -1.2751332135231008 -0.1392362919272247 -0.14476184973114423
P 4.068082800870113 6.24903674778036 3.3852328854495464 -0.38752463888881 1.848600804367055 1.750854404153501
P 7.015574483706557 3.765534364154852 9.788722743352844 0.5014463633106461 -1.3745901686698583 3.499230007749206
P 6.4943161149715705 7.695323572665019 9.930892368790417 0.1297355515256411 0.42938785478149927 -0.28981654811235896
P 2.34259451134435 8.679708891331375 5.834878528623191 -0.08979320680474859 -0.6525832633301987 -1.4556588511174156
P 7.192011146305852 4.131597094650391 1.431154864368477 -0.17112105645096334 -0.2220042164540757 -0.33974942838706
Ni 5.464416909065781 2.976829713063379 0.4225656707648996 1.0651409339282367 -0.36634697636993035 -0.5260819024711392
Ni 1.7570865826012443 1.4058471823534113 6.81040252763994 -0.027625217916436295 0.03548250917732599 -0.42228569651907916
Ni 6.718490618215497 0.8780440364545574 9.097073234336364 1.8302364429272542 0.21291973765430428 -0.11921845404440111
Ni 2.82750712728582 1.7098752288851908 9.13048609184327 0.030588928530450546 -0.6062846373739752 0.26559135701640707
Ni 6.452378707902128 2.105974946392154 2.4979653426479627 0.8592253955059073 0.08897842421293709 -0.3106589387790069
Ni 3.9656357064576184 7.078716605692495 10.387214021301883 1.9933300010880513 -0.4176577108287646 -0.061502587390171504
Ni 8.197710108218756 7.5408904327359245 0.03465827141381742 -0.09262501982658886 -0.556039625175494 -0.44171629443986504
Ni 7.890160045682011 4.038472449818052 7.982673784129983 0.7465845946790239 -1.2964916245942188 -1.4563093402172207
Ni 3.3507897474875783 8.401633019434128 12.55822008847027 0.5300221180658098 0.16278913954650032 -0.3951613294984614
Ni 0.11339802252690417 4.572175880261307 10.286163932722287 0.5493033348929249 0.1362332434348428 -0.5063831384906311
Ni 8.946701305645986 2.685519049064995 5.802435133253733 -1.238749018467112 -0.5945925457480276 0.08992124774218063
Ni 3.992268683154965 2.7938755053827284 11.658011860058686 -0.5761299681674659 -2.070563111839602 -0.5073053931945843
Ni 1.2999506908226515 3.3345231168667038 12.42410117435951 0.836602773010385 1.0324053913684283 0.04118830131285165
Ni 2.983837435629961 8.48666065839938 7.887800839600334 1.833064399294353 -0.18830605287068214 -0.011163472815987226
Ni 5.865890424188568 8.155091899086498 3.539479031745387 -0.7191434677489357 -0.7027506282132091 -0.03075656445656639
Ni 3.2662341312858785 8.509962243669348 3.5857926344746076 0.025925461616510187 -0.1365469180205197 0.7480166991398601
Ni 3.628393596621274 4.815095133634757 9.443761245860253 0.6148890912135346 -1.1146356982242545 -0.9196388635969582
Ni 7.261443879352207 5.99788432812726 11.097172567127686 2.1253265807337267 1.0420344298177602 0.9202710978643184
Ni 8.38231639557184 9.016560674651705 2.1924622249800825 -0.5322597491470769 0.6031100963007354 1.2270741532323448
Ni 4.687948540383313 0.2086830792385779 1.687262615302791 -0.23917404336514292 0.9692752956771629 -1.323250637855618
Ni 6.422378030334054 5.745742476142867 0.046836458713463175 0.33196361379405415 0.07888041654698673 1.1110510661967898
Ni 7.793958175525745 0.16139275248323764 11.232101181825154 2.104826661008162 -0.4224623313062595 -0.5020706271582063
Ni 9.051998691361467 5.202979839583746 5.815600937412505 1.1497641664962717 -1.392212766847628 -1.6601003760973798
Ni 7.289084443102522 6.372379926840874 2.4183314714923783 1.0876252310736818 -1.277341019807697 0.01983606088932068
P 8.546789096587254 1.7600911890384705 3.5673392676279696 0.8471995746896248 0.1331738877832287 -0.5549085968948443
P 1.9774304395717281 3.426395085903462 1.4595733579425687 0.5493084770992476 -1.8929767593792686 -0.6964347132975103
P 4.791702774756412 1.2712934626585328 8.065589121228339 -0.3345105485856239 -1.5360881002087607 -0.2959208612378839
P 8.871586144715328 1.7451498530998772 12.35463122413372 -0.6970162968325931 -1.1243503544088573 -0.9956900382252658
P 6.456626912774097 7.961834886855239 1.333293652651109 0.8515146571252109 0.6260327665351799 -0.6308291594825588
P 1.9695785224472548 3.4119711595326083 5.7337213271857115 0.45154947848020294 0.5539865993012072 1.271258561059043
P 7.016836236862975 4.149379644531134 5.780925419013095 -0.42963133825087296 -0.5257301755586753 0.7130352979686687
P 2.351535711769328 8.42982730219553 10.242945710038668 0.44723645292714587 1.9118136895801139 0.45740593726098
