# total energy = -340889.82475584367 ev
CRYSTAL
PRIMVEC
9.11336325775337 0.00000000000000 0.00000000000000
0.00000000000000 9.11336325775337 0.00000000000000
0.00000000000000 0.00000000000000 13.33832832059659
PRIMCOORD
 96 1
Ni 6.812412302066409 1.6862820850046032 11.343888266005985 -2.147882611657372 1.1927807792671137 -0.03530458883856501
Ni 4.7824743962751475 0.41890486245404407 5.818325710085959 0.13530558941425086 -0.5859646948697005 -0.13941318382472118
Ni 3.0262381337437363 1.8182071337120116 4.784378177891269 -0.18491811023505572 -0.5969101381376107 -0.7751415803811103
Ni 3.5544577902876786 4.363788254542917 4.98970863484844 0.47147784197301384 0.8396906679070892 -0.5078054727594545
Ni 4.2779585979577845 2.9052308944002045 2.5076194055510825 -1.00275671526406 0.21409550312996029 0.0438013134556665
Ni 5.443594231411251 5.275616717058187 2.334634098004822 0.141644130037769 -1.193099853169429 1.0099133809134995
Ni 5.187217091991743 4.679046834947406 11.461038729954868 0.20800635951308694 -0.5253398820987921 -0.45808470849555954
Ni 5.5813518327003635 8.224099634197087 12.513766170126301 -0.025782765391058823 -0.03553290279928719 -0.5038719420330032
Ni 2.101386674917131 6.583867374497716 0.17468403848568229 0.4913432134383731 0.06605549686817656 0.7903082608192196
Ni 3.0241694002499133 1.5483604431741305 0.3838175019933924 -0.7047895130201088 1.5484517639804363 -0.07584008705876616
Ni 8.327736802883233 0.16782532118413515 6.427847504273486 -1.3598567191144257 1.0764519880656815 1.421788937842848
Ni 0.0072943360724930795 2.4801107181012823 1.3660585442149389 -1.1132976961391212 1.4033569563899058 0.4275780552662701
Ni 7.0439919796502695 0.9780552744078332 4.6121137373906524 -0.8430539279523674 -1.0438295740449701 -0.12235905655591187
Ni 1.1269676325094535 7.485753157533864 2.5276797410867795 -0.2306721765417189 0.0043755033598763355 -0.3200475790827585
Ni 7.458914302294619 4.3542465630537865 3.7990631981918965 0.9068882487995091 -0.271941467604151 -0.7334447148629563
Ni 7.798086348284093 3.998497309023502 12.520395230669944 1.0801065540991333 0.1598331422419699 -1.1145860759332418
Ni 8.171059859157221 7.061380277034473 9.32877324579932 0.7170320778328877 -0.1476599972145457 -1.4830986924959233
Ni 7.048566888081543 1.061433436235968 0.3076316065675707 1.6964431763924717 -2.051938297649563 0.1925792263247393
Ni 1.9021412107080902 6.535457188069577 9.159083330461721 0.8895559281686486 0.6462989729833838 0.05794443772526795
Ni 0.511663409238972 4.879395016128925 1.0836536388995772 -0.8457659275668917 0.45564396026455084 1.2108612909179082
Ni 6.448852895594687 2.2350523760356418 6.823462255199715 -0.053635783047585046 -0.8914567447357873 0.03446923742146321
Ni 3.8674015763863046 4.203393058546068 0.4254783314808922 -0.39587172530192466 1.2118570791722743 -0.8388375758781748
Ni 5.923358134710009 6.002598829550498 4.8398922310966555 -0.3878506547696611 -0.9028572732632449 0.3153206059207344
Ni 5.3899529743863965 2.804756062816951 9.232457753275893 0.47611714051723814 0.37104232496307066 0.39257197150473033
P 0.396417638242554 5.705621656144286 12.38039665331858 -0.3389230758310227 -0.3591049500955364 -0.4684208003142449
P 4.331226207082874 6.224254054382053 12.559743999860602 -1.7813803406565 1.225497038553212 0.7575781175760502
P 2.63809087279477 8.566014802572644 1.3255933880066884 -0.22420816608393 0.6771095306063372 -0.04795055973734968
P 6.412964470490391 7.92716802760792 5.77656372226462 0.39652735660805255 0.9326897832436453 -0.39934451434187357
P 4.8492024431552 1.440932115309877 12.449355651561135 0.2910527345123052 -1.684024233902829 0.6799940512429836
P 4.136974866021918 6.194006801227874 8.217210842796291 -2.0256868201522016 0.28538473759325045 0.11098063951564113
P 4.900191711428062 1.1233222871458888 3.649112827998001 0.4263477824035947 0.04156445370534777 -0.4325932490926743
P 0.31651895856394163 5.797475245942709 3.6555022070839893 0.3644014226077853 -1.341268157478961 -1.0324974368616024
Ni 0.5474907748084273 8.945513481646552 4.421669048225598 1.3498795532970558 1.295354682776298 0.19746457944149864
Ni 1.9956716593737531 6.229166157259457 4.912026325150875 1.024480737204713 0.9108850286637281 -1.0275233806857786
Ni 5.984946244627436 5.83189641953817 9.091458528622232 1.3218218758288913 -0.5908029967986083 0.510294043509263
Ni 8.580951605199852 2.5739601344862573 10.142745146038719 1.0138091164234797 0.03470860712577893 0.5165785909663941
Ni 2.41722851057979 5.243719945126996 7.232268599660343 -0.43566983113546903 -0.1804968412389085 -2.056208900000459
Ni 0.646557591745004 8.55081371240658 8.43550597053898 0.09349868068079381 1.3487549527743092 1.0236713539295403
Ni 1.5497912412293298 1.0677034302612995 11.569599848890848 0.058741222594950446 0.5607393446440084 -1.4942894190054201
Ni 4.3070302272322145 7.129648482330633 1.4469952359858262 -0.1464083841956317 0.2815512227797732 -0.7770215710126425
Ni 5.581278925793092 7.963667048060612 7.802509063546437 0.01706132635766094 0.4705332186715574 0.08841638106187998
Ni 5.4865637398842715 3.0139533198685236 4.745163375142721 0.13273062959822304 0.2032765581375854 -0.21030621129085716
Ni 0.5517576515564798 7.50563851649211 6.34897772332374 1.413291184784482 -1.5124290660289244 0.6025884194693105
Ni 5.24319137004928 4.761522773798059 6.9997147035280705 -0.442219973549161 -0.938473479804958 -0.5291703115884758
Ni 0.755731128702064 7.5314384483027395 11.120017582529726 0.9440399181491419 -0.1317438402049215 0.5027689387768115
Ni 4.398665096308823 0.6874282926249512 10.459103709406662 1.0400495381772474 -1.3164636968407715 -0.14078512447158337
Ni 8.134086943807265 7.268736634677445 4.5667501483501125 -1.0720008942728636 0.4117997093860908 0.866312641369992
Ni 7.369357280075241 6.348551217916203 7.005183632909759 0.5264727101516546 -0.7174406261252161 -0.1946044842848842
Ni 2.662514686730654 5.36194760863081 2.4525318577532333 -0.2903001726169968 -0.16098216824474856 0.14826009269238982
Ni 2.453408563313171 5.536596104999197 11.331950671276653 0.3981705486384304 -1.1140834252652103 0.2301908660299261
Ni 1.2609067345302316 3.499495095568531 3.6662933406964817 -0.16485065006121932 0.5113448533712807 -0.42941973646069914
Ni 1.6429389286318181 1.1226023314365847 2.5905036230824545 0.7758488908607799 0.8285079118173925 0.5669017647009785
Ni 1.0833966420514458 3.4039597069529077 8.191507512637797 -0.2749961952700748 -0.03758027224661915 -0.37569345058183684
Ni 3.6114345383201956 2.722207217059027 7.009424992240266 1.093430524901549 0.3658039593822668 0.023338417615624323
Ni 3.825416311161447 7.157744981720307 6.2983320288513935 0.7637531360385104 -1.1428993210556382 -1.7862546380296656
Ni 0.7452626081542469 0.5176271942537639 0.5553145972949781 -0.17726702144770115 -2.2561808192448436 -1.3435435837766991
P 0.3022838849192212 5.718353024826537 7.846058181932263 -0.3332597068976583 0.4933144782321311 0.8139829787283399
P 8.807728540267213 1.5281834565867995 8.253571340125168 -0.06871993107421713 -0.36057253577999837 -1.1422087227465167
P 1.9235393879922154 3.506639972481118 10.25231967098577 -0.5835712549368595 -0.566804834111798 1.0064462483005052
P 4.053952125366731 6.439675738641912 3.7418677294375655 -0.22357310360309235 -0.41928907578460045 0.4521269482502278
P 6.869744471271874 4.215313337884925 10.273541049019762 1.8332325494411008 -0.7215507916388476 -0.13930108372688915
P 6.209526859113252 7.996712103781327 9.88286118437946 0.8517661110143847 0.06085466939352746 1.933000350960058
P 2.505391188197604 8.74861926519701 5.683835249578942 -1.4106370349910868 0.382008079945955 0.19802970791634927
P 7.185577193571124 4.248513320783591 1.3132985494317253 1.3214611500553628 -0.17519934028539502 1.9391774263050474
Ni 5.880279265876082 2.961660840628187 0.22833623154662835 -1.397957125530573 1.0723492787512177 -0.1460376311197743
Ni 1.5108133859294137 1.3064735515747912 6.799360142992166 -0.2673623328739009 -0.2831903010450929 0.26304236534230824
Ni 6.742913792710047 0.8097925117800703 8.94875145966574 0.9176146340780776 -0.2136818126313094 0.03813640186040529
Ni 2.710532998532211 1.6484707402210277 9.079240242299903 -0.3421145861851269 0.36229286090521473 0.43112154964315424
Ni 6.545837308992327 2.073745843697901 2.488838586237997 1.3650634601263456 0.6121608936490941 -0.060357160931818636
Ni 4.250381560282418 6.981210019126275 10.347915207799891 -0.37765983027958827 1.2473154199798842 0.34834642602745164
Ni 8.598759117300864 7.369357280075241 0.15953853983641159 -0.3065832260477365 0.3487452041277671 0.01211786630945655
Ni 7.758197156643285 3.7304003842601317 8.089109761375262 -0.05745644234525589 1.0689693065353914 0.32680006731524364
Ni 2.970546369951876 8.601921454403758 12.47287086316515 1.2549999331083352 -0.8947816953439622 -0.6781217739209353
Ni 9.339830489623353 4.964331563099984 10.158257913233367 -0.7124251751884956 0.08689274532850197 0.39577376627147964
Ni 8.82894445028316 2.581688266657014 5.388217789993339 -0.3201411672378293 -0.3838019386215841 1.2256379350064506
Ni 3.7311294533328447 2.8845344460985656 11.34775597743673 -1.1465173774241997 0.09113146600019789 -0.12780336749993473
Ni 1.2767366467715116 3.4153787513042744 12.624407869928538 0.2348324785669956 -0.13828035577185863 -0.7371776995428272
Ni 3.1820948747629476 8.655307537253163 8.004771051043827 -0.10727362297769914 -0.06342962920955528 -0.3209829464128343
Ni 5.851809118586642 7.888472686573681 3.335595811340955 -0.42501235142162286 1.0639816235128128 0.14302172711158592
Ni 3.257854264781232 8.641819759407973 3.5833817830748833 0.6134816693430467 -0.5998815620611088 0.0020607391837706443
Ni 3.5321482766626624 4.113544408697606 8.985058188150504 0.10942743609590831 1.3343937989566308 0.8364953008982432
Ni 7.194061734904821 6.483119142012195 11.325134786783126 -0.003229048460258955 -0.8234685496212721 0.11689109146280514
Ni 8.181840968069963 8.962227390138498 2.405607149560746 0.006016895618041251 0.24270571066748522 -0.19778725288824003
Ni 4.911000160431032 0.5104923420409267 1.303542693902485 -0.0671430735054005 -0.667006123623748 0.9581465327538531
Ni 6.315916263548889 5.776760570914253 0.0727465120752983 -0.1611307780074709 1.369872194368899 0.7864667755859424
Ni 8.024635449266233 8.89538086953413 10.941803938395772 0.04430910633002046 0.07209810351783066 0.158111788675489
Ni 0.09043463911565537 4.92901727989045 5.732760341039685 -0.09369048497662573 0.05750632174658483 0.5562507127450357
Ni 7.693127741903655 6.508673013010784 2.4774742220670842 -0.171964121177549 -1.2726814095484984 -2.0811897383155125
P 8.740635958850804 1.726736305176763 3.4496914758751687 0.09144385503429413 0.11518902117003386 -0.6387867237667386
P 2.2512923896303225 3.337495947611713 1.5864871103316545 -1.0386516293884565 -0.5115145461799255 -0.2965099009721345
P 4.809632219233705 1.106963799826892 7.917151529885186 -0.2553280274171861 0.17927325324445254 0.7405520153316988
P 8.758871799032038 1.6001516874269768 12.347531130857023 -0.4818517290081701 0.6936088138129409 -0.024214135352358297
P 6.596042828012023 8.051829725678427 1.1698168445854755 0.02942010503332998 -0.3222944661354062 -0.22123031440252866
P 1.8695609365212302 3.386425595754161 5.9129342696428955 -0.999359002436421 -0.042972646906784054 -0.3218838609605489
P 7.0849838882635545 4.175269219066165 5.9690753222508155 -0.2687134475851566 0.1661814530575009 -0.3622321828706084
P 2.4748249673241136 8.684853061424855 10.055952206941262 -1.0410275858198008 -0.5053783513752006 0.9450747871715595
