# total energy = -340894.878152281 ev
CRYSTAL
PRIMVEC
9.06619493845096 0.00000000000000 0.00000000000000

0.00000000000000 9.06619493845096 0.00000000000000

0.00000000000000 0.00000000000000 13.26929271745788

PRIMCOORD
 96 1
Ni 6.283842988632399 2.028289071408657 11.468105249475153 0.8335984389664224 0.18794378443525697 0.3017696067091771
Ni 4.60884539109578 0.21228222832251156 6.09345834029457 0.18511197141341668 -0.13375521420799547 0.5626568733816955
Ni 2.6951802188906795 1.3680797093978858 4.93084217420844 -0.3607689680615206 0.8931783554125843 0.412773900373902
Ni 3.18929689456046 4.548990373889272 4.7558872825782395 0.8753436412240085 -0.9816129913069093 0.630081739793573
Ni 5.072807903295574 4.549380220260051 2.83735991017201 -0.13977339537761735 -0.30818013822121115 -0.8883325972845088
Ni 7.346627658737352 6.267541970617054 2.585879989196917 -0.6220251880376836 -0.8657701386029606 -0.2599979220890296
Ni 5.232935033544188 4.370540464214069 11.73737939072762 -0.20039255172157103 0.7837496337650954 -0.45936588920082816
Ni 5.62383308290435 7.86714509328404 12.452235241107402 0.14137364998520172 0.2708232948393078 -0.4515582202309514
Ni 1.9967840449329506 6.688186204687086 0.3005497930030388 0.15652053292896914 -0.7678998112170323 0.462688525816158
Ni 2.7623063242219406 1.5813891375764253 0.48393896553405985 0.5620935446790577 -0.6698947580254527 -0.6591416332740068
Ni 0.4700803803626167 -0.091280261169125 4.69507396859519 0.19154101486821207 0.5404919072488821 0.07570381859121801
Ni 8.447617273178599 2.5537838468287744 1.24436332356052 0.5240257912730588 -1.083731038225598 1.4355104011939988
Ni 6.933172917040048 0.6987171172490209 4.692698625591841 -0.16009796586758235 0.1087797752095804 0.6348035707492745
Ni 0.5048238515741859 7.418187133261884 2.2162503259113904 0.9386907380220866 -0.19310193159742875 0.4796827463813093
Ni 7.764125923257146 3.817121809212606 3.991336899357795 -0.15180461551053853 0.47890833010913 -0.930981542303287
Ni 7.545267983941015 3.8676749106884447 12.687765912420318 0.4144448603184217 0.048354737154303815 0.04433378892036881
Ni 7.916474258479528 9.031443945100786 6.976887387876859 -0.03951271338264163 -1.373283791153609 -0.5563622986222353
Ni 6.775248872096068 0.8848216150834878 0.42231241388917695 0.8838635057695617 -0.9741045987450062 -0.6173149270462078
Ni 1.5708360869813973 6.769854486267853 9.00795162147378 0.9759331673133129 -0.8517537697192106 0.44974764938477385
Ni 9.101824814318315 4.901366162099715 1.3956110227500522 0.11062814127222884 0.08058711482544831 0.29691202150655965
Ni 6.274450410955037 1.9035654313435364 6.985658931219375 0.3485387445439159 0.40337086189244725 0.2955159124899814
Ni 3.26881648800461 4.051881853978633 0.23545179541929312 0.24461629742663676 0.9356118419864468 0.3441406154762202
Ni 5.952809022673413 5.732690882298253 4.809308928047434 0.010219106624846916 -0.43809798096098745 0.5020634280693547
Ni 5.320768327500057 2.9132493992705846 9.314764341754348 0.829884737560261 -0.1675037714133502 0.22110073080319986
P 0.3565226656521661 5.674830427918984 12.633269016263348 -1.0147586248209426 -0.13453297291428443 -1.1981348444901754
P 4.002425762057777 6.1328364502210695 12.674655288309092 0.5343557124441571 -0.48106599988208115 -0.9879039665219438
P 2.5320340458172 8.461515749606587 1.5848841556214281 -0.7057601044634941 0.2103524911477603 -1.3584886351223056
P 6.363135927209817 7.811587452350764 5.746227617558937 -0.04753404102522136 -0.33777096450445054 0.9600879727509402
P 4.817340669904939 1.018414713393554 12.74466444354518 -0.7384768779702249 0.6768799310940342 0.3015032404216679
P 4.084592684345353 6.007423779361084 8.18691431236646 0.36233605543832437 1.1288173890412752 0.6294140243025871
P 4.7547385957136425 0.9666104770533561 4.054777596555998 0.3514350922551044 0.8052373713252261 -1.2979802933246032
P 0.3441146716278058 5.580451341411903 3.5384025063536977 -0.41948782205896784 -0.20017863593855204 -0.5028722971238951
Ni 1.3772818969871927 1.042394798293768 2.5899534304618195 -0.19088666911366478 0.5112507509955776 -0.05122485961324727
Ni 1.8085154464309294 6.683961357971207 4.678129250758327 0.6185392863716123 -0.3231539859222241 -0.5355283925960196
Ni 6.128457478195813 5.48684288145171 9.378868684402342 -0.4958858385037331 0.3496458615651655 -0.49140697679677303
Ni 8.668442576737961 2.2290055551915837 10.406667815898055 0.015054837450593427 0.6323296552874852 -0.10893275584767691
Ni 2.3968117523250667 5.125718215385424 7.108519468279962 -0.2982716208582476 0.04872240490636771 0.24277513045283997
Ni 0.507633465302192 -0.01710972257984274 9.355713623217031 0.6512308630673623 0.7505415224442429 0.33596810696775686
Ni 1.6730846304614029 1.3223407572914283 11.515157893189189 -0.3553467686046848 -0.8595082168536489 -0.5543172431677487
Ni 4.112298975254636 6.751359449142546 1.5065159689002747 0.8582458052014573 0.9381343512979843 0.708969098319095
Ni 5.798357330287762 7.59957449000993 8.031570506425352 -0.5838877577360138 0.5451600021485127 -0.38333425495654627
Ni 5.366697669694569 2.9766221000087687 4.756191906719126 -0.9612238861275962 -0.26773977081797756 0.08156799068147888
Ni 0.6393616473687896 7.294225053548981 6.7081318329594755 -0.05122511672356339 0.3829709580798566 0.4663646891161646
Ni 5.06035095182 4.3213382257439505 7.192938433323385 0.3572139037204106 0.8917521644890191 -0.1880563987537213
Ni 8.306211834922024 7.211468828607902 8.823654922856365 -1.4242697952831729 -0.5433394040000061 0.6899264798653472
Ni 4.589198947247477 0.5340967809223186 10.706819602955113 -0.7344011652389546 -0.5478249505751855 -1.6292216842406522
Ni 8.137725673188346 7.031876578404371 4.691159185736999 0.38363713090894574 0.6551939614801684 0.016030056879669168
Ni 7.415857121231882 6.084894412809979 6.84856084205017 -0.6380760708529591 -0.6536178752423001 -0.06922129619066787
Ni 2.3784527081197986 5.228664855854963 2.465554360165858 -0.5718940757092473 -0.6543478114297892 0.07866033011638066
Ni 2.3345904583098798 5.367577090577488 11.402382591078695 -0.10518640143136725 0.45366652482320574 0.3932183468394776
Ni 1.17516015303053 3.3356887398851316 4.051831083288485 -0.2548803983568062 -0.47691212561470775 -2.3844683254700483
Ni 3.7501679615800607 2.5317076628091066 2.779876609490982 -0.7560246570460012 -0.00071270979630845 -0.003396941496690924
Ni 1.1012616002813256 3.136477244417304 8.237869046266148 -1.0171399805689254 1.119753221956478 -0.18860635771992035
Ni 3.6767408509536588 2.5099669279922017 7.172264789619053 -0.7327530881125703 -0.3436294801677566 -0.7947264444915733
Ni 3.925045790555573 6.85562068783913 6.081847264781639 0.9824830526166886 -0.5100590446803216 -0.3514494904328076
Ni 0.8115232444213892 7.474243414901968 11.306484916964513 0.38632599059501854 -0.37215972639696554 0.08847423088300892
P 0.21185883703145675 5.334820929237423 7.83940525745448 0.4669025638975056 1.0699170151606412 1.3075054592062192
P 8.422984422262198 1.5574543836495576 8.225488250825794 0.4427424217115343 1.3539573229108552 -0.3194094312781273
P 1.7442905233938344 3.541010850560046 10.446369588974246 0.10290480448604213 -2.2404065871297223 -0.0752145376596253
P 4.010830124516188 6.181530981789709 3.7415423839717192 -0.2680827559796931 1.427503728839438 0.05826196896568676
P 7.071722503975804 3.8828154557861225 10.507196502249302 -0.15585950230620255 0.4656141841033852 -0.30264506733559493
P 6.435801477484001 7.6923216614765435 10.177546944216312 0.6389044802915255 -0.2618645429841232 0.3348409353418491
P 2.403013029478846 8.391533792954506 5.904583213369175 -0.8315001616764971 1.5283228544410452 0.4250272638199583
P 6.864995133127152 4.147620869686105 1.760397524843256 0.6830410655994237 0.07221997380767563 -0.8936272700245449
Ni 5.328547122526289 2.8099129124302675 0.7426301377490878 -0.842977309078161 0.8932166648496875 -1.153861990714729
Ni 1.2869372671079362 0.9604363984835845 7.145938373538432 0.7032049421418083 -0.5071382714891007 -0.5817411437066562
Ni 6.728693962469376 0.7225566761318614 9.348322861322643 0.0015624593911134383 -0.3314565922506485 -0.28430461715519423
Ni 2.6674557955920575 1.7462760200264043 9.23233540644083 0.6559796906062574 -1.4866280458054202 0.7331145852170471
Ni 6.422755223354924 2.073021675906826 2.619995173117906 0.16372065022183416 -0.2391766144683042 1.1642641598846593
Ni 4.339389019330463 7.101468688685672 10.373640575337378 -0.7853041227364088 -1.0192192316954576 -0.46041772750411025
Ni 8.06582168326638 7.472910684285586 0.15089321097796346 0.1410350356988603 -0.2520277593993595 0.26718955474146244
Ni 7.623200993318043 3.8767229729683743 8.045583216906174 0.2363401734607736 -0.9465081771839765 0.5479172531786758
Ni 3.20353988638588 8.43137065233127 12.353538832698819 -0.16294186307428066 -0.05996403925845801 0.3573578854974426
Ni 0.133681040398358 4.86873692748502 10.10729934806042 -0.76172890651963 0.16047051871565265 -0.26888262617316916
Ni 8.716874188661192 2.389241479776228 5.9539051256089275 -0.4580646538909014 0.18125428823022333 -0.025831102130490998
Ni 3.571201278808709 2.7996499800646557 11.375936501228441 0.25305542933292546 -0.36317963438554224 0.6139125862328783
Ni 0.915576867260046 3.342189201462997 12.805198518732416 0.6157552958685718 0.5209062718074706 -0.7898374918303881
Ni 3.1770756641462863 8.277734917465853 8.073607731248348 0.7330955590536536 0.4180839997329058 0.03607823377979593
Ni 5.521947187211116 7.889357270223747 3.6841923563523302 0.1209529202370046 0.18236783300937626 -0.8469411788219157
Ni 3.0973656806140815 8.496057951296498 3.6064742157889635 0.5531538189872668 -0.6515774477735037 0.4213359310113002
Ni 3.5138757299149264 4.282308257692751 9.399515129522667 -0.2850893178400187 0.8557099261534811 -0.38475324679125994
Ni 7.522874483107922 6.106299698424122 11.391939241439166 0.02592391895461342 0.1106818773282997 0.019203569511644345
Ni 0.927752766700873 -0.17187873177891833 0.12731929159893257 -0.3952595456392225 0.4662168506843906 0.2161217895313697
Ni 4.609117376935858 0.4490866999864595 1.5867554182011652 0.11906547340630463 -1.3227580144899154 1.1875565547536968
Ni 6.155320613000854 5.720061673123962 0.24299758924252493 -0.34489086337868347 -0.2586547777975739 1.1146408404305772
Ni 7.941768941606785 8.88707386118736 11.351640912753735 -0.27816122326161774 -0.01352117441488639 0.08755660416474599
Ni 0.3506396119312781 4.924312700807634 5.710307354279297 -0.6756781974764492 -0.25335367729963465 -0.14991511179730954
Ni 7.879175933610158 9.060038723087658 2.414665809487256 -0.0405133867330141 -0.6233701321013523 -0.0012960931036042195
P 8.566293761399317 1.7529940702763318 3.539716197961275 -0.18208706854416382 -0.35991561892228985 0.9524811069379597
P 1.797844535305201 3.0668216707733174 1.6576530605148416 -0.21000950598604476 1.2644068282445322 0.332943204098504
P 4.73966151397865 1.007598743153117 8.444736943132172 -0.2773024748057482 -0.40500968304745094 -1.1684146917179232
P 8.703447154356006 1.4152964512354338 12.591018735865624 -0.24722416736312905 0.8550211276165726 0.05935674469176229
P 6.230996139905234 7.668423172328352 1.3141086525317327 0.33306250328518766 1.2894102922674051 0.9158128049826485
P 1.8765572374237867 3.2735127768432912 6.022931505342867 0.3037239022220705 -1.8088728896498136 1.323850990443778
P 6.803879914861616 3.9520902492539998 5.963113659534503 1.0060454133176608 0.33207648522283456 0.5342582676343444
P 2.558779320091541 8.531778758293413 10.199056491069152 -1.0530369515758509 0.6402800204828134 0.45638546641626565
