# total energy = -381170.2751494934 ev
CRYSTAL
PRIMVEC
9.17943436592697 0.00000000000000 0.00000000000000
0.00000000000000 9.17943436592697 0.00000000000000
0.00000000000000 0.00000000000000 13.43503006597603
PRIMCOORD
 96 1
Ni 3.8905013052680952 0.28536566561794385 12.563714643311085 -2.2213937934726453 -0.13646232872651337 -0.3136365333500921
Ni 3.8111450952393984 2.453929007606894 8.545968936909757 -0.17176511779286546 1.042902177134694 1.7591397840907443
Ni 6.76287482810439 7.774173111373512 6.601033138874203 0.22139897876990902 -1.014159557784363 -0.04313179819246765
Ni 7.805943133688067 7.24449221058856 3.9923673242305546 -0.16006505574711788 0.8938586693090607 1.0805541831595133
Ni 7.753280718773708 1.369094275692323 12.853212890277197 -0.34241694791689414 -1.5079843999940095 1.3217198030333883
Ni 0.3492178110152392 7.70501525291704 9.785807597400913 -1.7786873672053691 2.1518053437505458 1.923297264739681
Ni 1.713635164901938 2.3110786501208804 7.411421142340192 -1.762096038505591 3.442565979398258 -0.3900497193035089
Ni 0.34143915833989874 0.49880036565973107 7.838412628900733 0.07944554502183737 -1.8252014516065083 0.30470529229873333
Ni 1.419177269551961 9.051050789500966 5.87208874881002 0.3420711345417012 0.8666458563396946 0.25551391817574703
Ni 6.108528029297489 2.6419146438333474 11.667517287462417 0.2380476430701836 0.8000915654582286 0.5830436645681636
Ni 6.594166004030655 1.3678734109226507 1.8693899712090436 0.4976401021906784 -0.3977082642900312 0.9878713135117952
Ni 3.5447762690262414 4.858334966850014 7.765514150943198 1.1338940322332343 1.0628937897652728 0.8625817135726499
Ni 7.473399765184931 3.7860668805721454 3.448395880036385 0.5366185403364049 -0.24925353908833203 1.0814725812087245
Ni 4.471486064682359 0.12462183673702708 3.554855287951807 -1.7084597412373739 0.7188256793982007 -1.5856779953217466
Ni 3.750046780149634 2.5807979698748666 1.9515862982282415 -1.2526509732601847 -0.0032629870219879286 0.7030236793689376
Ni 3.899910225485494 2.2496131576567793 11.007924441919668 -1.0232455792460313 0.7669125076030986 0.48590147359751146
Ni 3.4719833545638275 8.348814881646096 5.349990060805138 -0.6624568136901687 0.221694912743773 0.9019085361967306
Ni 0.9604074991859427 0.14671765318122337 12.992104157724416 -0.4001747235526527 0.8184029621729066 -0.1935747574687892
Ni 7.460374147830306 3.453477614897217 10.062488600172339 -0.03275302606130488 -1.296894259349276 -1.203233084948689
Ni 2.4077839910870256 6.911535767539293 7.182568664349972 0.3628515616221622 0.7974304736862976 -0.9279934062092405
Ni 4.622955911030945 6.850666938308491 8.977219681012613 -1.1360840979060176 -2.7877114035353796 1.2538357375969051
Ni 3.3923242232013022 3.55407503603134 3.920503368525214 0.024809345734195982 -0.26446675649366064 1.3471528983945122
Ni 8.591656817598574 0.7105717521957693 10.775404779903253 0.9437707236481552 0.30976368065824716 -0.8138446533782628
Ni 2.9881170106618398 6.952411788737419 3.3616860251431437 0.5438186576292698 0.5518515552360754 0.11223739474087767
P 8.681082867118478 2.199677034746876 8.824853003927208 -0.5255221733129272 -0.9214224378599422 -0.624875513002285
Ni 2.250182282587002 1.1562231929201439 3.1284540390205127 -0.9336169230436049 0.07832017316814253 0.4693255715167014
P 2.120265748112028 8.745981468032635 11.217672681123107 0.41059437622408 0.7696774719427455 -0.582224768211294
Ni 0.1376254234491905 6.3414010995367045 2.3492623432216755 1.8626099741619533 -0.41505729709144 -0.31428419423642
P 7.650177312059731 7.539565128040552 11.717952771601418 0.16030931054744002 -0.08646414243151561 -0.30071005509641113
P 6.302315068038475 4.403484814955049 13.075522267456721 0.6329585471207357 -1.2764501325623112 -0.8801739727331164
P 4.630712533063825 7.129143438440427 6.68185805840025 0.2144459444908436 -1.4538835043845475 0.773691735308461
Ni 0.903058065088165 7.235248520189613 12.258766490376285 -0.8218161016195138 -1.3787813239330706 -0.20214013054029703
Ni 6.837053837154928 5.376284550524883 10.804975409745525 -2.089867211484852 2.1337495146900993 1.481058779247759
Ni 2.3174308186969195 4.429554408533013 12.134814752347424 0.2200308947777888 1.0832741531938375 -1.443555125875346
Ni 5.87449835032911 9.07618408077437 0.13609153996789547 -0.5951486753618137 -0.8372818013552806 -0.7334169469488143
Ni 2.484312935333324 8.07844382205266 9.064547311838178 -0.550893305087864 0.3879121041352158 -0.22509442534362523
Ni 8.358884721137303 4.466933065240573 7.85108208420225 0.7671786167802916 0.9569789948083132 1.389629322391168
Ni 4.953415547934716 7.6121652743814385 11.382614265336137 0.9452964162640625 -2.249590310511519 0.9137160703546199
Ni 7.116530895631933 5.951210883262577 2.224625819389675 -1.5774003286939866 -0.8622047898492053 -0.006039264215544438
Ni 7.505702194692273 4.981229234040783 5.692193866027094 1.4638097623593243 0.4479427349655511 0.07423571868612378
Ni 6.236590318032059 5.512645047919481 7.800109603153279 -0.3373611306605415 0.2614986750042722 -0.36146033770159036
Ni 1.5021777150209583 2.195674801366597 12.060895521289229 -1.1973115772579315 -0.934358686305636 -1.2962278294098708
Ni 0.6670750024883104 3.4903514027150626 2.753684354525125 -0.577583927005173 0.06352990223284542 1.5992343938499427
Ni 4.99453023442616 2.02375317526741 0.2795495760084375 1.3135904890580343 0.15738493781179347 -1.8576958246897877
Ni 5.911271164369013 3.7254642549377373 1.729020814830116 -0.9581832995290595 0.8277203829190906 0.7080301314445935
Ni 8.893843796678356 1.5285961271045432 4.14007176660531 -0.8764353316262906 -0.1873048652996774 -1.629047877666949
Ni 8.253798556601902 5.922672021842192 0.019752306852487064 0.44422697667686073 -1.2118665922539709 -0.2706191492483017
Ni 6.302186555957458 3.0224021979906057 7.727856439431141 0.19380692808425332 0.09571317183360936 -1.1355781048038764
Ni 8.384201601097873 0.012540025277062264 5.760040901257182 -0.5034932185373457 -0.4273682532483092 0.6790720536493465
Ni 6.573622429936472 0.28535648618358544 4.241170384855403 1.9573584680894485 -0.2630433937835728 0.08974846960974221
Ni 2.491289305445737 4.949697877019549 2.3806202089335358 -0.08311888010836653 0.665258544805022 -0.5393783624697291
Ni 3.8276313593471527 3.1001979041783687 6.430515966231857 -0.23206931399956163 -1.4833352339867614 -2.254220095974047
Ni 7.181980262607596 0.494587005289208 8.146317477642386 0.45742162099026384 0.49156124298645026 -0.13992817578792677
Ni 0.3136043595348069 6.538189813312901 5.922832661943466 -1.0294835897359431 1.1860205777251447 -0.38107914037378243
Ni 3.196049557749179 5.298699971327364 5.486275286837996 2.071499507610942 1.733009919772912 -0.5804121404825876
Ni 0.4528536249220051 1.4358746606499602 1.4015555094140675 -0.05851367996517665 -0.31502441483655425 0.44805534928401547
P 6.983952325193012 2.393500791225296 5.335937264745805 -0.22207723578385624 0.04402371387911773 -0.008707040855694681
Ni 6.327668665736481 0.22767751039233972 11.14834775696131 0.7430578124726881 -0.19863366004893532 0.8020967688137154
P 1.393860389591389 5.052461644662262 4.493131170899556 -1.295414589479956 0.3583271913892474 -1.1424509206643099
Ni 1.737042722515955 8.384412728088117 1.660260425881364 0.45020710551969567 -0.5942369621808217 -0.9396597868035753
P 3.2290679831364804 1.4215088458790044 5.069211358536105 0.13275634062983588 0.057023468572895336 0.41612970422001233
P 2.952776188381853 2.6177635520362967 13.392091584289304 0.9282561729523239 0.5096057591929868 0.10245383299155258
P 2.838795151953127 4.288796962080724 9.695160683111336 -0.41661744248970833 -0.44810240047186695 1.5406734055865983
Ni 5.0455954277621515 8.738472690727432 8.12414914366676 1.5175324486937607 1.2878732867975884 -3.5254783999227737
Ni 0.61028276005609 3.534174022342246 9.985223465290494 2.226420043042643 -0.07861996379674847 0.42246104575467885
Ni 2.8028393075711255 6.601188271314861 10.812001348803472 -0.17583980208287134 -0.38728912583923625 -0.506814826711411
Ni 4.264912073880067 9.137264036995417 9.94530761292626 -2.4045609824548655 1.6149546327986768 3.2789939389391467
Ni 6.845847735270311 7.39570503277511 9.455170797414025 1.0926311689287054 0.7616720851397657 0.04568670340383744
Ni 5.433995654336384 2.3867263686687687 3.8596152624822584 -0.319988700820365 -0.7774663718595449 -0.5210916483453992
Ni 1.2944471154895045 2.919629250913533 4.943204345154389 1.1739752165248363 -0.10079727122473608 1.4643918601150392
Ni 4.123649758538064 4.701008641380744 0.6016054407570584 -0.809770226198573 -0.2837505444239371 -0.6355859574412538
Ni 1.2417479828377116 3.8928328815951385 0.6403444896365388 -0.8239498601330649 -0.6856941869515546 -0.5870669267949438
Ni 3.4265910516613514 6.784474037149794 13.01132956504473 -0.5834660968175629 0.8035389005768806 1.7537353252457217
Ni 8.688738515373416 2.5513778827560727 6.610975384227827 -0.5207286085790257 -0.672104878302894 -0.8012038246858009
Ni 1.2654676412199155 5.8209822480194156 9.165230101711835 0.8510127777881279 -2.0586177665522674 -0.902265405315517
Ni 7.998848946730644 3.0886685346241705 1.2260043349695544 1.2777768217935348 1.103017654369352 -0.7340628080629293
Ni 5.867108905670567 6.347698191506593 0.1893542898892966 -0.5015160402063169 1.8136068047903735 -0.27559243409317696
Ni 1.4688839066029034 4.7690741471485625 6.882121188081115 -1.5427112619522334 -1.6325687463360141 -0.18803017350147616
Ni 8.612044341308666 3.3134637026279607 12.383645351275348 -0.09728308742389052 1.5324340483959416 -0.599266039964297
Ni 1.7354913981093791 1.1693130663152767 9.578155023061505 0.19617234299263633 0.366722100321162 1.9024587307277752
Ni 2.9443678265095237 0.6912472069843854 7.591517054735569 1.9394692465138534 -3.6934226013076517 -1.5664168330992894
Ni 5.191089462343395 7.114970391790998 4.54192720806214 1.6465102961177707 -1.023772655394095 -0.5459714423062145
Ni 8.998112991555853 5.3371985190266535 11.224161623271087 1.4117158698775623 0.671934928383933 -0.531688192914323
Ni 0.9324285832614234 8.114023309625965 3.816985969321672 -0.9723814454063126 0.44187981660092285 0.5483882792778233
Ni 4.492130612554486 5.070416618267369 11.492580217176483 0.5978321357312478 0.17468152010871207 1.5863755356094034
Ni 6.033265846992656 8.150217819301286 2.2741874213777535 0.1343925906816782 -1.0914775149402365 -0.1508741332764692
Ni 5.497691749349585 4.272310697972968 5.21199929586848 -0.8756891974888855 1.0578487711421976 -0.5018299719023099
Ni 5.287143063470091 0.9100794144289343 6.208179968692693 -0.031820744055022616 0.7228718244431164 -0.28832093740343895
P 1.5275772098907565 6.058490932609643 0.5501400240830394 0.009922658430350652 0.002237116860634857 0.572699088109046
Ni 7.870483736662245 8.160939398631943 0.5671394185714309 1.542080827457086 0.1194763356914781 0.07593650342731438
P 3.8892896199327813 8.682496500009679 1.3667048689288217 0.6208681916151049 -0.08435995160431922 0.08717042446992085
Ni 5.655807506173681 1.6276238649633732 9.49273579663906 1.4001813868754014 1.1203921410920576 -0.060346105188225106
P 8.390351822118028 9.10991850204163 2.518409944257742 -0.024084808863345616 -0.42889651696737746 0.8598278049765967
P 5.046531730066712 5.454098615581363 3.06291838536188 -0.6457089048078687 -0.7137721761346932 0.22997952135006844
P 8.663137072947732 6.7060724882943745 8.207150507079191 -1.4910719405093869 -0.7630525104270601 -2.080292166201908
Ni 5.030238234080484 4.2749910928056325 9.541907272666904 1.4224725941734342 -0.8461418228490717 -0.9568962052865199
