# total energy = -381164.69321832 ev
CRYSTAL
PRIMVEC
9.28970312311109 0.00000000000000 0.00000000000000
0.00000000000000 9.28970312311109 0.00000000000000
0.00000000000000 0.00000000000000 13.59641953826024
PRIMCOORD
 96 1
Ni 6.423309571752982 6.703050405622677 6.59350250905558 -0.7437715507102609 -0.165471828584986 -0.17949462522663925
Ni 5.798242599091463 8.306722587407675 0.26847056589072554 0.27070913785894674 -0.3477003078030205 -0.8397603448027602
Ni 0.42436850783720886 4.074138704415464 7.9342723730759595 -0.4372063223846535 -0.28715134257536995 2.3462987563788626
Ni 4.8964074975992125 4.663607534235398 4.7653139922919046 1.0248162661672608 0.15400882225070897 0.04021333899409203
Ni 3.340177830295421 7.2912465460978035 13.059524278396516 0.016430891862513636 -1.1664557682193393 -0.5869445422844666
Ni 0.17926061664176096 3.6819181436339945 4.393288317398567 -0.6628540491285874 -0.16358643863681505 -0.9182216715344573
Ni 2.001940339380108 7.12167230303144 4.072916179468191 0.39944555869611204 -0.51825777844103 -0.07312423078949987
Ni 0.1304274335845157 9.241786957413586 13.149940031126912 -2.0186471396966006 -0.08374700061066867 0.7473412703393904
Ni 5.258891718287803 8.869892267336029 6.510210100774802 1.4134611347034431 -1.0643438919482378 -1.0826234069837162
Ni 1.3131181333360729 1.6893975633461018 0.5337222496064487 -3.243991968942665 -2.163928866486957 2.827127186328841
Ni 7.446412459428442 3.5717422631274167 12.582534246518033 1.5674676429613068 0.5083700870136729 -1.6813160909430465
Ni 4.6388318956762875 1.833694523878031 6.303272671249968 0.046415611150062 0.298648287471376 -2.2917237493464597
Ni 5.943867987187679 4.048842842474536 0.5750251992118699 -0.543838969344244 -0.1704155457435065 0.5706085241286043
Ni 8.705222987583955 6.722103586981783 10.220224951878622 -0.4806137428360109 -0.4019464707410949 1.7054127268809338
Ni 4.816664684929022 6.930768901310515 3.9448650519741966 0.28566910160288866 0.36896333094685485 0.2423375286947891
Ni 3.552809847910519 3.9200782657711906 6.483398159264002 -0.1195976917606908 1.1322426126727403 0.16392453870252416
Ni 1.5621843670849653 5.707965262939446 10.415346807843903 -0.02764347274888142 0.27356614769176757 1.3158898266151724
Ni 0.8908611750468526 0.3706870286554793 10.925688732318905 0.05967890391787142 0.7496688900313024 0.793986223891439
Ni 4.508915395770344 5.922594566752598 0.8897101808145791 -0.018209838139807345 0.2987809563944983 1.0352204922197206
Ni 4.594278478904825 3.5720674027410535 10.429256280515277 0.1641356262720657 0.2547865530914193 0.7095635373699846
Ni 7.920075848574261 5.3199250686190185 0.8542736788094869 0.08939597136632992 1.8729236973831358 -0.35436460719707363
Ni 2.7834552044203185 4.769630917390674 4.061196289852078 -2.0089954755394497 0.17516951548872414 -0.4767550312115531
Ni 8.377937452497338 7.34299019318226 8.098531047944528 -1.2868674712408934 -0.01892049105358677 -1.5092745795603426
Ni 6.138189999703412 9.156386715466118 3.115170998985313 -0.11716002885347564 0.43120973848158645 0.7539191806672242
P 8.273623374739467 0.08120501196123116 7.06055255846003 -1.454042141449599 0.019674595610791924 -0.18063748058183085
Ni 7.402147023457629 9.051199405603052 9.51327853480016 1.044237608116666 0.567998340199267 -0.7982413996233672
P 4.837092742368648 2.2288506308854767 3.9139201214889128 0.5356170956550841 -1.0280435148553069 1.0611732075297402
Ni 2.6420101827851448 4.151020288485653 9.046867616979087 1.464159689499575 1.1921351752633147 0.8896564583022549
P 1.185570507758053 3.2909238236810974 6.205636961156191 1.0513492794607828 -0.6106758244631354 -2.231119248290525
P 5.206200521472177 4.764503001198462 12.117645911059107 -0.8135736591050634 0.158909601986436 1.4982792568911034
P 8.614239633985184 1.0335816729378062 1.891153196399893 2.2596664638005985 0.7637523647075621 0.6441053077661746
Ni 3.316795647223325 1.5579482624044425 2.425506216856797 0.28127997139625754 -0.8938524986614734 -0.35483923284064695
Ni 9.006014289010809 7.528041081857726 4.935309987885671 -0.006089657837505641 0.21536305698847427 -0.04620812312494623
Ni 3.9272963651939237 0.05995946063589017 4.483283246571882 0.550271098122833 -0.3959007787676472 -1.4581831602011663
Ni 5.936250430525335 1.5829004053252407 10.50939297660313 0.38626402700883156 -1.6823152216315218 -1.705594503874437
Ni 9.183494069540165 1.0307854722605314 4.7069170597421195 0.07707910167218983 -0.7106459718008858 -0.9116789853199331
Ni 3.165782231243988 1.660506586248677 11.297917851713347 -0.2830712589687254 -0.6306705224175074 -0.09099519753264973
Ni 6.783220544642219 3.4554537578844706 9.316267153194488 0.11732792188990761 1.3747742596562065 1.3808952849522798
Ni 3.2821450541129087 7.857212426703434 8.29884677699507 1.0825087357827228 -1.6815683161631687 0.5625566003584054
Ni 0.996497177576739 8.18342964591667 9.302915062717918 0.5640462975300544 -0.46288392965641567 -0.7053402433172562
Ni 1.545100602814173 6.043286391334509 8.191897210426093 0.283850303226595 0.9838207975915055 -0.4837494602515153
Ni 1.0406790062183313 7.560629360847361 1.4368012423634404 0.3864355195896893 0.3349314381731264 -1.4708844098179183
Ni 6.483609035527703 7.031534312428124 1.9742003565149568 0.33237884695460174 -1.6647453310685587 1.5744810981646626
Ni 1.3239220582120552 3.046966926717923 2.1644683425338043 0.47347070403332653 1.7607768054735353 2.1241137913725483
Ni 2.9736711681009838 8.15808733545951 10.78371512656899 -0.47360980071435216 0.24283452293586563 0.23578275829540682
Ni 6.705958082738913 1.1225212918222902 1.0526385701782104 0.23045440410395795 -0.5297156425689845 -2.4991886345337795
Ni 5.416073497222988 7.106920254275585 11.662873133465576 0.12606787286606677 0.10495680191906441 1.4337453388737758
Ni 6.86296335731241 3.5048285306410016 4.907641535735521 0.8275000393781683 1.0029824581216211 -0.7401969459851253
Ni 1.0333308509501438 5.428177980553517 5.870974472721325 -0.5583057955018513 0.5045481421644213 -0.4592111087905188
Ni 0.9305031257117532 7.884867873269038 6.852092546573051 1.4504971044108181 -0.8858810504202227 0.3651367581119131
Ni 7.595521486242194 5.78400148401418 4.344491364183984 -0.5514121537058116 -1.0636736053540907 -1.2028813580362252
Ni 8.492544521452622 8.363324749290186 2.7501748425387995 -0.42495193049733265 -0.40883574166176045 -0.3331758889346004
Ni 7.187155421217854 8.705826818294993 11.741882059579273 0.13113474586601287 -0.47664036001055976 1.537567770078081
Ni 8.535815959176032 2.3374101030271186 6.46251397739496 -0.4248637416589005 0.9182193575416122 0.6775394190549042
Ni 2.7075025906748054 3.820158217649036 11.738604652273814 -0.8906316777313307 1.7571659481938253 -0.04892526494579316
Ni 3.927314944600417 6.07643205251895 10.402199090838764 -0.4677736536485493 -1.872962778151187 -1.2402695688766963
P 6.869689102463065 7.796476346876114 4.673415602923328 -1.390898418911579 0.7255871664917503 -0.31672879912217067
Ni 4.312688994089024 3.678072206489836 2.362173664972008 -1.4349478438223093 0.24224959696667311 -0.44034255402079
P 6.015380122781241 4.757433537027677 2.785878887997398 1.9992394245939507 1.7736323212799647 0.12952112152198983
Ni 8.596115422950753 2.1518389909698334 9.036180742364014 -1.020213734398243 -1.1764954118435287 0.5876783351266976
P 7.997087488489904 5.238705193132593 8.747079603502883 -0.23681351355276634 -0.2951860399543884 0.5482514965896429
P 2.518419970790245 6.177792004644353 2.2237078511680703 0.7543693808307653 -0.9807079629941367 -0.8415827427234797
P 5.442892870496386 9.17281091080639 8.557790752206243 -1.108318240646659 0.23883877151291125 1.2668635173151408
Ni 1.4610752369472253 0.16906238041746743 2.970939995346436 -0.2234787441170732 0.10361468606887315 -0.6650716256051965
Ni 2.302638743774495 1.7448942505422482 4.8453698679615105 -0.18216908673500884 1.480793441401514 0.2707975838076949
Ni 8.51052938693835 3.2076044752609034 0.91835405180564 0.9900240981887402 -1.765607136982643 0.6155264676872174
Ni 2.797687029794355 0.6775082764598057 9.113040960116734 1.4705023438881513 -1.1851422888852492 0.5221414297661524
Ni 6.6796124843311 1.6493310732428244 7.856894718852393 0.18473684746218505 -2.5852521990927673 -0.9814183587976001
Ni 7.918682393087247 4.890759358025183 6.554248867986394 2.336425720239524 1.069092719487133 -0.617111295675834
Ni 6.822339485014327 1.3425572029250565 5.193995709346583 -1.0563788714648905 -2.3460025652946825 -0.08752600803712668
Ni 2.384592505817414 4.953892181290167 0.3137290711386174 0.815464448369873 -0.23515360935184015 1.6769462440101248
Ni 2.3884941811810543 2.4290530255564096 7.70575682084955 1.4014576824846638 -0.951018149239188 -2.979351662985617
Ni 4.192080776836335 8.421496871021398 1.9981166975237412 -1.3479998197758398 -0.26170770569128476 -0.3811981824501499
Ni 0.653678329691216 2.5325031609123334 12.364720432431893 -0.6720894516839264 0.5630991031254368 -2.1235517482214914
Ni 3.1372814216829275 6.28263559548729 6.248615773227328 1.3555876594254268 1.0017529565898942 0.026737673105160405
Ni 0.21397809561555384 5.692191346826447 2.6450878614707967 0.5174036579708509 -0.7302907426150068 0.6455309844691076
Ni 0.8356524686513557 0.7569686821512952 7.561309367125024 0.5125908099632398 0.7321056843365585 0.8212111210456631
Ni 4.553394494915833 9.218878549207076 12.111772031696178 0.3446707769480774 1.0322053595424805 -0.15547332261137742
Ni 2.496226869733734 9.265187719892177 0.024089129489174334 1.0922395899172417 -0.3658006169481571 -0.06642470728213722
Ni 4.710994310497123 2.6123481603182386 8.353531544127451 -1.8671122329076812 -0.31632642147742945 1.9403609050901873
Ni 3.1011444760530296 2.603783053924726 0.20325127527651965 3.3712818871412904 1.435544596866044 -0.6640966632864369
Ni 0.6632374343321324 5.26552456640599 12.687648167725452 -1.9607183857006167 -1.2574509657519894 -0.6994377617898921
Ni 3.068899916083524 0.09630077973721676 6.621144021066316 -1.6070860286838775 0.36943075750157667 0.878855768142325
Ni 5.927295156595458 7.106604404365195 9.310583712748121 0.032856384408388575 -0.17393255775782948 -0.9961009005104392
Ni 1.0082858109968778 7.386865461616708 12.197388723729297 0.45390229498309576 0.6585569644151303 -0.608819745091003
Ni 6.738407016179847 5.373331572584643 10.851384111929367 1.124646031272405 -0.5117883686666025 -0.7807267877783716
Ni 1.3424085676731081 2.2886112918718866 9.518146339301461 0.2680953543851835 1.0124405182107272 3.6408296577022847
Ni 6.891296952215029 2.5650264119792414 2.6096829444567433 -0.06369702393832902 1.6264955435587405 2.3949800236346492
P 1.597345893873953 8.880761220134739 5.117012867511005 0.3050562478802488 1.6121271906522108 -0.6485556302280443
Ni 8.932123989386076 3.9483375430478356 10.858536254459048 0.28416294937100733 0.9331379265246574 -1.720121493846018
P 8.18587283787057 1.297056236422424 11.41510560023058 0.17279073084390242 1.059435656013343 -0.34374543692033055
Ni 6.2209519659288 3.7961164656464197 7.18941932189909 -2.3258222336920658 0.9196982560799839 -1.1159798709569748
P 4.708300296555562 0.9772489124494513 0.4929813270474563 -2.2678582555827718 -0.08837190097718974 0.0699445475099376
P 7.932635527363881 7.52421372412006 0.35891697464183386 0.7077370256842069 0.25482614808010307 -0.2738903638004057
P 4.7469268826555915 5.704630259473859 7.762875490232582 -0.6073071651012186 0.13442601502277493 -0.16049571552663328
Ni 5.6281016841270475 2.3617769946433715 12.512771362045838 -2.0578320374261785 -0.623101708931314 1.3496211574293469
