# total energy = -340857.1242833253 ev
CRYSTAL
PRIMVEC
9.34577079216275 0.00000000000000 0.00000000000000

0.00000000000000 9.34577079216275 0.00000000000000

0.00000000000000 0.00000000000000 13.67848023932082

PRIMCOORD
 96 1
Ni 9.428947988949876 4.022288838509447 7.499103362985542 0.014002227816362983 -0.22992269997020404 1.6935704828303673
Ni 2.182676693403981 1.4280430980865595 10.007599788720935 0.3602542332086312 -0.3230004910634953 1.2276894182188405
Ni 5.764873192930725 5.407546998650312 0.24622741133518586 -1.5319933613140972 0.09304153853871719 -0.23568505637527795
Ni 7.416420395641862 8.115960673093431 8.073120595101015 -0.21089422258384324 0.15385764138482533 -1.4913555331880766
Ni 7.304065541123917 1.3669871785585495 9.840763764313424 -0.5740615156742113 0.3056612284540994 0.13885602576967054
Ni 3.3001598334443476 0.18000141149447163 12.807639398423907 0.3415563996888118 -0.1359671342576497 0.11605959670044527
Ni 1.5534353026338295 3.8900835671726597 2.8719067166961585 -0.24564216758798985 0.2878596814963042 -0.200186606358352
Ni 3.2588702187995064 2.089088146311758 2.2886698818538544 -0.8179093103659397 -0.9670548909870763 0.9373977302422759
Ni 1.891668087516459 2.0757610773928934 6.486334909972818 0.6381496044033719 1.0460602631477016 1.3694806153574348
Ni 3.2845150134091585 7.336476673669934 8.311249896185013 0.5537006926296723 0.19541823843543119 0.16087392480165844
Ni 0.23754051753428496 6.2398439479058565 3.9287470202703756 2.9267754315507983 1.3797526867074044 1.3013242700961718
Ni 7.784344693817081 9.098668454873666 11.835112899168363 -1.0145601356568914 1.1240132827844125 0.7993212629511073
Ni 5.315023869409947 1.5189120259253541 4.256743382581594 1.5145096027070368 0.39095937560197186 0.057360025976707675
Ni 8.320576975274092 1.0068759446302942 7.609365699459355 0.6262983614917407 0.6177072773886201 -0.5120004846774086
Ni 6.2636569714719625 7.275719818802095 2.12670300394475 -0.5391883579461101 -1.4515543420307389 -0.2623034302937547
Ni 1.4865008933793353 7.287458106713802 6.07736211803502 2.8758930428786345 -0.3555833100955231 -0.32362398358010713
Ni 5.616621233421643 6.329834373305399 8.94660155179328 0.9890730471293804 0.04154568465227038 0.03592653869328006
Ni 0.9688760412473324 2.33306883438741 13.400889291919556 0.8397701149947732 0.6960585609050141 -0.7559830051747883
Ni 1.0241749660670534 0.8277978952741002 1.4717495290164069 -0.023610183219772242 -1.090763005371715 0.15501952290341042
Ni 5.822620709655594 0.12123800950208372 13.634421408430487 -1.4850421893755392 -0.9116311628011332 -0.405671742111482
Ni 7.406448458379289 6.285189627004266 5.178604590095938 -1.5804260028941879 -0.9815242882478452 -1.1372670624705252
Ni 5.441724481845464 2.3286202475673683 1.4784111943217133 -1.3085305580366238 -1.5687385392539306 0.8479953311180427
Ni 5.48064961652083 4.953286471392012 6.269722376611053 0.000444029515954074 0.4048564452990382 -1.6566155028725726
Ni 8.54962312188246 4.192484667458566 4.073492446638953 -2.309961612510725 0.1681257212680653 -2.7055608008775534
P 7.018421407578209 8.085465423526632 10.057020223814172 -0.21503164179098452 0.10932947706546332 1.2229804427789452
P 0.6645702729069626 0.5474051502455809 12.141428942771318 -0.13387322784309846 -1.3535842558421527 -0.09363366359676131
P 1.7555936671387107 5.454453421443987 13.660588631618378 -2.1933176040617193 -1.8037376253057773 -1.3056054139700288
P 3.558645157538287 6.48358164594512 5.8574393127159885 -0.496781353734809 -0.5268825439955636 1.1837199546164259
P 8.949323040200834 2.8202825488882874 1.323991960773671 0.8292602166023847 0.5215487904874759 2.031961854527636
P 4.976006039794368 5.353808817525857 10.879425609434566 1.811151144161029 0.5766632149631166 0.9827345065058624
P 1.6287528681437382 6.0736200714746325 10.287940197433924 0.2475221582195221 0.3071604387074452 -0.8189662908755444
P 4.379904751679401 5.5820699194012775 1.9820117830458284 -0.1960579289019591 0.7177614997997445 0.812821097209755
Ni 5.092005744858147 3.967831033046457 8.24548370825931 -2.133718404341848 0.9842635415558791 1.8806755734144127
Ni 4.331858144868824 9.122902038118138 3.323761642594208 -0.8574330794921748 -0.5146996287761264 -1.0001503879894649
Ni 2.1158637791676815 7.750055061374365 11.795773746854074 1.3095484577781769 0.22262050988183593 -2.2193435958118357
Ni 5.076258121346024 3.048403464204253 12.551660610013023 1.0794925746642183 0.06784061379305736 1.4652364675035217
Ni 2.1092095904788795 9.368200479852666 8.276957460011106 -0.1746864052047185 -0.6238285597950095 -1.4841572156674248
Ni 1.5464820492848566 6.394544489149872 1.7335011999456504 -3.110826565799868 -1.3811089436249828 1.8099095584444445
Ni 3.069207149627389 5.538219563603723 11.888309025596257 0.43558524184146274 -1.0352467174719653 -0.33783961295885684
Ni 4.049513068355627 3.3928418407854277 4.536467905010044 -0.2927725454168893 -0.18609027616628596 -1.565586109667878
Ni 8.425128111315704 9.20607939672816 3.14356116618531 2.2252429920154064 0.9752682800358041 0.6818858689490579
Ni 8.788071113744952 6.146825492822084 7.021245699462698 -0.25737616819546644 -0.7984352608017281 -1.4857926943883186
Ni 3.2828140831544372 9.385677070931402 6.128505913232492 0.033456222775916575 -1.5853167553275858 0.4526064589898076
Ni 8.89779046094514 2.779020971555337 5.765218986444047 -1.1067053876335844 -3.49648021291821 -0.3361419135414598
Ni 8.25896030950826 3.836607067625855 9.733893942578424 0.6692622666477763 0.7816431289450538 -0.17747836612755885
Ni 9.404088239073172 2.4750871648860544 11.056287776574306 -2.156840335071292 -2.8682620086959374 1.6007526302666817
Ni 7.603401228643071 1.2590435277781242 0.730608422758007 1.9554075150106647 -0.509406241587671 0.6246919362365694
Ni 9.370350007097644 0.2273863377444207 9.401027499191736 0.2983847493973442 -1.4303252574486334 2.093583483994175
Ni 9.111266553683365 6.453675179928032 9.23995033864664 -0.5959377469220124 -0.1747126304569636 1.1353958135897413
Ni 8.781659915092538 7.998035739279802 5.688606097124773 -2.361572137598165 1.3411588855946064 -1.108988013020174
Ni 4.505754898987559 1.465594404479265 8.857827945729808 -0.22363249608611807 -0.12676412760214298 -1.9297746449339088
Ni 3.157291037818342 5.480593541897047 4.020557067211645 -0.45610727305421445 -1.209384706372382 -0.32920379166072977
Ni 5.129837424369763 7.044907321544592 4.474408249716335 0.49283213927907377 0.39779876712130846 -1.8003509682217316
Ni 3.467804267011384 5.049678749673338 9.478064686497627 -1.8058790971288123 3.0550516249220934 -0.5085978867537628
Ni 8.387016058685177 5.886480360372707 0.2784226565796436 0.465189952081773 0.4115312862160525 0.548525833296952
Ni 6.357656732471921 0.2093761031626928 2.4388732382705505 -0.9936280134899147 0.17088528629107344 -0.5997944016639413
P 0.31305714795862005 8.005054413023188 7.701517801605694 0.43051836884151656 1.7972964976661239 1.4436800814889847
P 6.543740371492618 3.2520291146980975 5.098325354958382 0.12846928321870776 0.18853822348614627 0.3279321240371578
P 5.280397789224537 0.2639600765291927 6.991919605801755 0.9556106537058768 0.8980002022812598 1.2734470840699292
P 3.1636835449294947 9.299107197582565 1.2933976460381902 -0.3448723514359222 -0.04451736568608462 0.7910217419464765
P 0.618765716470604 2.202115896315088 8.454121495542207 -0.04100061078207778 -1.2280167196512723 0.971906562652423
P 3.4699537942563623 8.76301510268501 10.273317804705696 -0.32193065503808427 -0.06389756998490931 -0.9224092272532436
P 6.914468400856939 1.7683039151959727 12.444572097245276 -0.5215562466866437 0.6724674038486353 -1.3797022930854432
P 3.166001296045819 2.1992093616490522 12.047745068818667 -1.4820432546482154 -0.5842266291326713 1.3850049362452792
Ni 6.870524587353081 3.1309826934939355 7.673244041717727 2.2212516114678262 -4.861553700346886 -2.365050840175385
Ni 7.697905661257068 4.35400762126273 12.44868890920794 -0.11389215673548127 -2.6948385293640427 -2.15450140252547
Ni 2.961599946589656 7.388411121062734 2.964208351172584 0.2712246440427845 2.032195310694681 -0.2942920673852093
Ni 2.7587406492874993 4.1760921857729505 6.215651486052159 0.017516411617208544 2.315698772104818 -0.881870643709249
Ni 0.5715060235471013 5.096547789384492 11.880361382252218 -1.3437063346068083 0.33284061708236873 0.9524672229808888
Ni 7.423093275871925 6.208722531706825 11.33527398312296 -1.8388303552438527 0.797065119927079 -0.4912218573691604
Ni 5.113744007344317 0.7517653783109703 10.856199500264045 0.4702894780918675 -0.4202699516406311 2.4116543989665367
Ni 1.7044629560201214 3.616916037418456 10.553289055478785 1.5061108371203804 2.2487295051731206 -1.1299360760267507
Ni 1.7215376789617525 5.605051169381283 7.865125796837487 0.3371464435465742 0.3392146389295126 0.707991050676542
Ni 3.980690813433805 3.1515714261925742 10.476840651722606 0.16128632974872867 -0.9636240109286567 -1.1618892318945797
Ni 0.5261837088752682 1.8573878008443725 3.5177088130232725 0.021819152757620485 0.15295929794027205 0.3358454653469635
Ni 4.917538898730963 7.428289524342394 12.050234782114588 -1.278471019647082 -0.005627373489106437 -1.460548575109549
Ni 6.918225400650336 3.557308712338149 0.6255759795289326 2.246773152777698 -0.020973774038189685 1.1687589624312196
Ni 3.345299905588889 6.66231950925037 0.2196200023506083 2.942784662494861 1.609824767771279 1.0939956533764
Ni 0.7389887752822327 0.4105634420990818 5.711846224951239 0.300469914061147 0.5969656739658945 -0.21204427702788642
Ni 8.519221330021965 8.043587025332078 1.2297660321244583 -0.7702490281754992 -0.07111337100705818 -0.6983735821914361
Ni 9.253826938878568 7.50160709493741 11.319803928998558 1.1289528861778753 0.3996147372841247 0.3040046666872829
Ni 5.184510182557251 7.5143360345359325 6.7235333723020325 0.7181852176007244 0.14030689928358417 1.245559870741358
Ni 6.11976014107662 3.588093680794488 10.437582807612799 1.6643666075729013 -0.03204443003005449 0.2713758249086681
Ni 7.3007010636969945 2.1306768256167703 3.271851494205048 1.3658985544331315 1.3040221286433091 -0.5795199676856213
Ni 4.469325085070493 2.2927792172000148 6.554289877380145 0.3287728747708983 -0.470156552058429 0.213221070944807
Ni 5.779723622462335 4.71947398176217 3.437922099997935 0.8966346893923011 0.26064198343093176 -0.04143821254012864
Ni 1.2892864415379037 7.956671358469918 0.133152932478704 -0.7431627134816685 1.847660809051289 0.34872360686121234
Ni 7.036094259840182 1.1106700732508485 5.84545710019083 -0.8137122415654566 -0.7765294618675723 -1.1484153657778609
P 8.100932673919843 6.120133971901834 2.576956999333822 -1.0871881435362631 -0.4783146623891891 -1.6455193929594114
P 7.057589532289963 8.430165481685457 4.4923820357926045 -2.82675000549508 -0.27435573347259845 0.2361511973784191
P 6.45965647313145 7.28657960427455 13.366077230898604 2.6098869669223115 1.3157440450659275 1.2365669232141283
P 7.4044671550056576 4.945407986750635 8.104061637926883 -0.3231190189192306 3.4130335171567805 0.5979259809966349
P 0.9765676104761021 8.569417464077521 3.9570880697068813 0.958168387130724 -1.0176685993788859 -0.5723805284273626
P 0.6886496509360333 4.51706328145027 5.454361832891809 1.654538565738886 1.3524411433766448 -0.10230599455977867
P 3.235094578315922 1.2686322884448529 4.468636301775037 -1.682331162471122 1.9111881401809732 -0.7775820715018028
P 3.0079549689161422 3.4831967512395536 8.178924064407093 0.06737524412086461 -1.8241580979436585 0.1210691340998947
