# total energy = -340866.15259449766 ev
CRYSTAL
PRIMVEC
9.26300812388079 0.00000000000000 0.00000000000000

0.00000000000000 9.26300812388079 0.00000000000000

0.00000000000000 0.00000000000000 13.55734870851130

PRIMCOORD
 96 1
Ni 9.221574410043768 3.8920009538369627 0.3525686045632975 0.7544699109643715 0.30999559416339517 0.5591684006124629
Ni 4.793588033321879 2.2489378854529276 2.5791094633499014 0.12099045834315936 1.404953097232432 -0.47586825773122554
Ni 6.608933784598898 8.203440165864002 5.801243963028365 -1.1168928696895475 -1.9402215512988457 0.174363474647661
Ni 7.320036370777113 3.5229256692954247 2.140027144424778 1.0879188510547007 -2.014676585084627 -1.852247914201339
Ni 4.406838929813739 4.877872141695622 4.879181004703998 0.8733255823527152 -0.3889685704241882 0.18714340002114865
Ni 7.249322568895021 5.658817807018583 1.6701166090936033 0.47918009571327796 1.436301015416094 -0.5627082954449212
Ni 4.096593008090275 8.13409728914284 8.629442191412428 -0.7146527789674337 0.3315769198785967 0.12796149034435383
Ni 4.179941552671761 0.2813620106638971 1.2987440986067205 0.38657770159450844 -1.5393611145330781 -1.3666220628627173
Ni 1.9809405425065418 7.246951238886924 2.6571317784210136 -0.30755793125618003 -0.5560424533889714 0.09342231891690363
Ni 0.15617431225204131 5.03638999493223 6.89800632299225 -1.8436264910809155 0.766847715803434 -1.890585890549589
Ni 0.0786003267605855 1.1983275357716388 6.408829657646068 0.37856665836457387 -0.9553373454398323 -0.4246379988013396
Ni 7.056318537454716 5.799467318123861 6.603024911895128 -1.814162163073211 -1.3966826296935237 0.4552626656657321
Ni 6.486439768868116 7.140695275906902 8.634322870245501 -0.3134210749051764 1.8232291583714857 -0.4292130197665318
Ni 2.6469878585309057 7.0288444561890255 11.483901047034603 -1.7985172574471024 0.5398632725259476 -0.7198116974605538
Ni 2.881416061050162 4.777146194398547 2.709205629618362 0.11745647704797191 -0.9774472899649941 0.18519167561141656
Ni 4.591571095249235 7.128458842544806 12.660231718078784 0.18557014199675784 -0.20639350650001229 0.703330411976079
Ni 8.60624206196602 8.888680434141405 12.75751923686412 -1.3625468643520793 0.5307494831501376 0.7263078467078589
Ni 2.524141848502046 0.8593218272937171 5.574876429935071 -1.313003506206313 3.1212624164212115 -0.055960574526019755
Ni 4.49297563975631 5.738201784242781 8.109558655062955 2.156053063283306 -2.244141885802438 1.4089473059934896
Ni 8.569134452542432 8.906002258809927 4.676458225433633 0.5934185800445845 0.27665532814005256 0.7281287019666816
Ni 3.468561076258222 4.807843802393996 11.726956815059882 0.46482485543287044 -1.0581907278626483 0.12438919961206318
Ni 5.023644096138705 6.688123238658371 1.9517296472700763 -0.07946534251617927 0.8379335760066665 1.2537169526308538
Ni 4.990871574386172 3.769358729980674 9.337324956064023 -0.6008452115259587 0.29844157077720856 -0.0768243053489064
Ni 6.973359039202683 3.7145495125669536 8.19934869529925 1.3082832179125081 2.500960895942854 0.12045284067213449
P 3.034505791690108 7.3138672075529225 0.7353420251047361 1.7919720001294173 1.0031652635563884 -0.1282340272794501
P 7.790226648945181 2.8105447880347194 10.020778390128294 -2.0943075066443932 -0.528684887311625 0.4041524772534781
P 1.3447015857245899 9.089650652327661 11.711691378132755 -0.0847121927374154 -0.14563551058534918 1.1814036477784233
P 5.230264749109883 0.7974912499341457 12.897769512331315 -0.009256485601261478 -1.0324473003499575 1.6495969054628945
P 5.4737521733006975 3.5340690677319135 6.836130356894243 -0.9362723583885811 0.7033239842181758 -0.6575377791219966
P 6.494600478778795 9.256032799223934 9.578781928935408 -0.5931882092013333 -0.7299449292398138 -1.5426009616266145
P 8.591977029886058 7.218384122695626 0.8550376861658069 0.5764811808592974 0.9875283283500798 -0.024948956635853805
P 5.384734667918604 8.460247795334677 3.1936637187687436 0.8630473403551587 0.06928788776254517 -1.5457749884792218
Ni 2.9603090988586223 0.93776838812409 12.57458965275509 -0.47787037576291896 0.7147229700837369 0.11165992497085288
Ni 6.443098155165429 7.92491078299884 0.44139343938223435 0.45985362747052416 0.7989615656188434 -0.32689648368379187
Ni 9.289314786407894 1.0928126134191474 10.465526890951672 -0.8966899681102686 0.8789159319562992 0.6747294604099348
Ni 8.163914911393096 3.113241358365218 6.062073590504962 -0.7308440440153154 0.8752253704785894 -0.6833372566836039
Ni 1.3244248615537881 8.763666880277018 0.4612209076725958 0.7936126426021042 -0.104274174029743 0.5194829090973828
Ni 6.588499589294746 6.044112618295193 4.3178658868692965 -0.10766648754074361 0.745251220579581 -0.536043127448909
Ni 6.7357628880007345 0.9503568157842635 11.437561923993554 0.7379598291244903 8.947439001274914e-05 -0.5563805534546805
Ni 1.6252595673076164 8.387301608562149 7.147881517392379 -1.4608519652825809 2.05976319301062 0.27608068658350515
Ni 4.5910894188413405 1.3135593533526229 9.25187370870192 0.9564210654223141 -0.10641924539720382 0.9045796552709905
Ni 3.87504038647436 5.253866893096727 0.7052205761971924 -0.48392660925932796 -1.5566700381251706 -2.227177232923642
Ni 2.0294509145862536 5.114690200238664 4.865406912039776 -0.94142870577854 0.8949565303589297 0.680184569987235
Ni 1.3007393504963463 6.197165296903763 0.38791902139885304 -0.9880363783347499 -1.2275670337083633 -0.25373291501592427
Ni 2.3199573665938766 0.4729089709703198 9.900484338760494 0.23075959404920257 0.2730632399134201 -0.6493776119087075
Ni 1.4096260077041012 7.205036128392233 9.230913374552221 -0.2874503618730275 0.0017100407125712484 -1.0290889254006859
Ni 6.655230297803863 2.76430385287682 4.07487773880128 -2.005494661475043 0.1742133222230419 2.7373080113821633
Ni 1.5397990569376678 3.0260857175597935 11.153074574483048 0.9630545115784318 0.2858141118211852 0.287867137695472
Ni 1.2272744352845468 3.078292029769313 4.0792702571209665 1.9529359135417204 -2.8508222159529355 -0.39041327329051473
Ni 5.226253866713374 0.546243277771517 7.118719716097487 3.3117688193773227 0.3599567565728704 -0.12183300884911276
Ni 8.77908052532965 7.250461918859849 6.588858067698315 0.7384799632940184 2.3746713939842845 1.3484171098189164
Ni 5.965969884122107 3.4555928652764396 11.499709296221395 0.1301530986790339 -0.8276607333257487 0.27270919900811097
Ni 4.3424147102578114 9.01701014481399 11.215749938158003 1.4832552726784456 -1.0595590689650847 -1.6161509670996228
Ni 8.553943119678058 1.7614998866790887 3.646696127507128 -0.20734635733158485 0.21101300754989466 0.8017998063985868
Ni 7.506232091451982 2.0794063158896496 13.317762624691255 0.7646692200948766 -0.6460488046457906 0.5853584287442694
Ni 2.446147322454467 6.312193328312175 6.957793480821406 0.09998737372893102 -1.169273697284109 0.032455806535860235
P 8.990934777732763 4.345221401634583 4.366239166432915 -2.222663147103372 1.6768575409510602 2.1240402578221356
P 7.07908701073559 0.9827958692544088 5.753534841127171 0.9118702753951328 1.579004439956313 -0.05406181484141012
P 1.8139099850611795 8.324674412527981 4.634023460198886 -1.202846905253864 -0.5116968373940607 0.04122969607374835
P 5.6735459894907505 4.688878992651827 2.9343115410432854 -1.387723877838339 -0.12176538883597093 0.6730621000098408
P 8.468315875166915 6.261709935561664 8.545685148185015 0.43450409296214204 0.22893693901816703 0.6691969606274798
P 2.3403452468588077 3.50943872987437 0.632541164050575 -1.6785968922396703 1.5168395363917941 0.5506220537043485
P 1.7222247334199752 4.30791926904627 7.809832731348068 3.9238839473901455 1.4287057195673396 -1.6871247272050234
P 4.686340928502536 6.675933120335495 6.458245951892936 2.8218978196091014 -0.2684725352189441 -3.6655621274519583
Ni 3.223656411867254 0.41337654585687705 3.4144178691084948 -0.25472356106396776 -1.652400950570593 -0.029276637476930222
Ni 8.292902295622614 6.152499073079365 12.557616117181507 2.245481173439152 -0.838142349583363 0.2310637555531827
Ni 7.492708099999551 1.5862252522524503 8.075109528890632 0.12479543391154638 -1.7556569677484666 -0.12805173606531495
Ni 2.599644625439555 3.1236344531663325 9.193129565556012 0.6726180704938868 -3.0157158034369482 -1.3884044488451315
Ni 5.162857841028145 0.6787218896574879 4.636029827697924 0.3169941369684154 1.0281494443055519 0.7861564434343751
Ni 3.7104923151312246 8.350629360507236 6.158045762176431 -0.1057031931667857 1.4533736546276648 0.9844761717873175
Ni 7.630587971759435 7.867572764443672 2.689669019774306 -0.34049839073794264 0.2866337795090031 0.6490413116152112
Ni 2.840723667590897 5.350220700691374 9.411565185032378 -1.2761701394280471 0.7964040893043123 2.0513919382277894
Ni 0.13744728929356256 3.442837703475072 8.725089231508568 -1.0861730720081872 -1.6952735815644029 0.7091444475546949
Ni 8.487990503827849 8.731014777626458 8.875019350172881 0.2876614494425691 -1.2744703831281212 -0.89945596089118
Ni 8.951113107010844 6.617381647752746 4.4960639265715425 0.8612501392454199 -1.4310706202550902 -1.4906973307787874
Ni 8.575488875923506 3.7649124862154912 11.651618919661999 -0.3137180373203049 0.7535651397619152 0.3987819569701842
Ni 6.514858676933908 0.89301138682282 1.7986806738646444 1.0923763726054219 -0.6716060842896046 0.3451510590186056
Ni 6.250853690368343 5.420934502573465 12.969190081711915 -1.369418651771248 2.1430548512514256 -1.1945170452319298
Ni 3.3570529878305786 3.191217358397109 6.399421220578785 -0.48093358806927494 -0.36733273732196736 0.130865037144394
Ni 0.050161040077535836 7.60911631957674 10.99462989900841 -0.49491576128097997 -1.025776316087685 -0.7557240950864469
Ni 0.6575938950658106 1.8706644341221674 12.92840968967813 0.2657965310486777 -1.5073768483169974 1.1628626515514426
Ni 4.151050231205918 2.6376136945926456 0.10039433161625588 1.9310879644286936 0.679618670181436 -0.33903080505348065
Ni 0.6982029214544789 9.416125363794043 2.8675150651784755 0.7005021984986646 -0.6354926263964991 -0.822006620363765
Ni 2.2649906780468054 1.732071310758286 1.8794550285662475 -0.7206488486498686 1.17130718277437 -1.027999806101565
Ni 0.281032247584646 4.861634088944862 2.448674270994346 0.5278053129201491 1.116551941410361 -0.09367171592354835
Ni 3.836552588881997 7.284160741396796 4.299537173248115 0.29244987197014793 -1.6598124125433156 -1.920425856729157
Ni 6.8352383292388526 7.542719079350013 11.531026599441617 -1.324408919829777 1.0939514304020255 -1.3085318435882045
Ni 6.856737770445079 5.443851183979845 10.131907621535113 0.24074832983079827 -0.9153029552257655 0.7885092599372677
P 0.7706072222681255 1.0234048956430772 8.385531447763135 -0.3456809633801466 -0.10964469431303699 0.1992684654194568
P 3.2995667611499044 0.9478187516349718 7.593782336391567 -2.122385752937848 0.294453532663738 0.3453490339620246
P 4.678374741756582 6.706417679150529 10.139174451188833 0.2757477287241186 -0.34620418287346827 1.8497236051175885
P 3.3701230918986465 2.5834714137437027 4.02992158283136 -0.8904396163251825 0.38092847372853106 1.7304017927261037
P 1.1680282371134878 5.050719868067099 11.921341960969746 -0.1907966805030198 0.9023597648015363 0.03252856875532462
P 6.278031355383023 3.6550995282233236 0.22562093466105698 -1.2942156840758485 -1.0522964738654006 0.7515172560939509
P 8.884623236705675 1.7735603228921468 1.589097710984915 0.25486420040689006 -0.37777398725994943 -1.5906700492196992
P 3.870742350834683 2.567316728063539 10.840089581340072 -0.27068599793049514 0.3746570388975225 2.0192660042275223
