# total energy = -340890.84344461147 ev
CRYSTAL
PRIMVEC
9.11479584803476 0.00000000000000 0.00000000000000

0.00000000000000 9.11479584803476 0.00000000000000

0.00000000000000 0.00000000000000 13.34042506128054

PRIMCOORD
 96 1
Ni 6.317463591108056 1.898579540284072 11.339168402040302 0.3026242413999885 0.379824699141391 0.7907695167263542
Ni 4.375208744172491 0.2838659241609604 5.918616847194598 1.0169247792343261 0.023947769064849078 -0.22874282072948995
Ni 2.89963062237713 1.7645802910266277 4.719333537871669 -0.388326308854499 -0.24749027654032216 0.28151445600456676
Ni 3.673013517140956 4.195286061229604 5.063786485597577 -0.12551045770069996 0.2848795158220577 -1.4759104022776002
Ni 5.241517244682363 4.607581681221966 2.6822947543757043 0.32404307339539673 0.5604688645914412 0.29874753205340165
Ni 7.411367758720259 6.36409409700579 2.733931875438157 -0.30997425400715645 -1.9093258901612538 1.496339102445597
Ni 4.812850183466964 4.8614568655477655 11.200322988620158 0.2578068279749818 -1.1189271265107568 0.7365629487769637
Ni 5.470853397230333 7.740038492066705 12.495982053483978 -0.37858748430018024 -0.47086669075157617 -0.4019104752968368
Ni 1.9889578730601998 6.578962464286888 0.46673927383590663 0.41146058087911713 -1.0855017569727758 -0.3070434535136067
Ni 2.6902919223972788 1.5241394787343496 0.34090489562474685 0.45932166622645404 -0.19235579746002357 0.16241118738179125
Ni 0.5738326124100186 9.048511881024037 4.389196082936139 0.08603785352737442 -0.5752002572643449 0.4260526197606791
Ni 8.890245550839643 2.6126862145841967 1.2027035445241754 -0.694696390450165 -2.5115289012666877 1.0575093855249078
Ni 6.841286255046726 0.7052492350869295 4.502686612025808 0.904484781564339 -1.4191360736010332 1.1023190856404306
Ni 0.5843407932880614 7.129508831838801 2.3136943840972335 1.2714413664938102 0.744215323115899 0.36177684050074466
Ni 7.451380793913221 4.162108057422119 3.995016015623799 0.5428123278519426 -0.8825550713707833 -0.23123550524435663
Ni 7.666729607697543 3.756982874864654 12.552290383661731 0.4509414125825588 -0.2830218937880287 0.4192996173075617
Ni 8.063524029189686 8.663148460297261 7.27367541690785 -0.18566630125498992 0.44975716246647063 -0.5470628755981803
Ni 6.845492428207019 0.2533204045900035 0.2415802863574696 0.06299357011340118 1.136876511900326 -0.019768440876178857
Ni 1.5435114443454414 6.84844762745326 9.140357841892087 2.4420522945321044 -0.6410503229899346 1.2374213007946238
Ni 9.31195973530085 4.882723422086663 1.2592992361010258 -0.7426040127647211 0.42833833047106235 0.4638588919751753
Ni 6.551459168234453 1.5419250643819686 6.840355276633876 -0.44367316105591975 0.644546251958335 0.43023040528745254
Ni 3.4126387074790983 4.281603261299241 0.30459039200376714 0.8337509053838866 -0.7525228145403298 0.2516976297534504
Ni 6.095297875994983 5.844187525319806 5.011166715460607 -0.5849300829575991 -0.7167610835596882 0.26245923914532865
Ni 5.051187909179095 2.8841384889052746 9.316524883584307 2.0069313939215694 -0.8814420408122627 0.034183587860244356
P 0.27422345349155547 5.842075373711297 12.626641746292602 -0.16502188553176098 -0.5254213860690048 -2.2786275782841336
P 3.945889000914977 6.089405607559227 12.69065807008716 0.10473414438529703 1.718263614701673 0.20332643753891433
P 2.4630769864861812 8.420758666907002 1.5492822414011367 -0.8731841716788445 1.0930091210934143 -0.3246943338261505
P 6.626000896460943 7.835937427115717 5.759697834968089 -1.3630587709914912 0.9408787468123408 0.4813171966609388
P 4.73235273160618 0.946624651803402 12.683692502293262 0.24151271880064856 -0.25568901030103064 -1.0359254887065448
P 3.9352194625320784 6.314408676549825 8.288884260297774 -0.015620223035760198 0.23208396928758096 0.22191011407837266
P 4.818724321845994 1.0930701850028346 3.4916839417961776 0.016277654114101 -0.8756460029557758 2.163145965574346
P 0.18180820884232884 5.588463075208014 3.7304468173385197 -0.1436614175781139 -0.9513277100598068 -0.4887392001566228
Ni 1.651231176379416 1.260854794968065 2.6815378245074184 0.5120483071962084 0.16346585389855076 -1.3815897399161432
Ni 1.7884213156205309 6.417514309147185 4.867638308388292 1.0580691146831198 -0.7275016099056439 -0.053460948032617604
Ni 5.946241614627093 5.79664145155744 9.229104469562929 -0.14331149043786287 -0.01877265262181283 0.07111028568326462
Ni 8.55490295661825 2.4736014844152767 10.375410846631397 0.6337741010434956 0.6194384011471139 -0.07458256050258123
Ni 2.6003940361243743 5.078192628671582 6.930694629788046 -1.9614658053896028 0.49147382547896645 1.3911401026087395
Ni 0.6760689087873953 0.140062846729255 9.083944357385327 0.9082825580438745 -1.0340861215049608 0.7134988678686487
Ni 1.429382737259037 1.1535611192671378 11.557791504069233 -0.24886658806255846 0.41239132022350267 -0.6289329709011104
Ni 4.2455969686425945 6.931075360979278 1.6170668974860687 -0.7068510235348279 -0.7998120865445968 0.08008009328204273
Ni 5.608206706981976 7.97251114442817 7.96546036536766 -0.16361343522000854 0.6074835427780828 0.12679318106786552
Ni 5.411522786596456 2.6263744074118747 4.90582202085766 0.22808461832020072 0.7779309702007893 0.17476071008607968
Ni 0.8641818448559826 7.225054230781668 6.974795992772585 -0.10068877067132981 0.27113131299802984 -0.375947732684488
Ni 4.944474395293381 4.5986073031428925 7.117170421734328 1.846015817248698 0.5064037073159214 0.22262308098499725
Ni 8.301879884958543 7.150748193292609 9.432045979027222 -0.6504291931016734 -0.02176773069439477 -0.7497768763640764
Ni 4.597519499739368 0.3719988494116472 10.322764787912176 0.5095936750081289 -0.9039271092886563 0.3033876019285743
Ni 8.471939817042811 7.06473013915894 5.0091633441924515 -0.5255093177971207 0.6195001076229847 0.41599266442151583
Ni 7.290113939340772 6.304672836088285 7.279777994001621 0.37190621562526266 -1.5622426471169417 -0.6550263255540526
Ni 2.185215737112674 5.207686558832764 2.545624947762608 2.121361425438392 0.3993226599650026 0.17204973891281983
Ni 2.187726749969142 5.448535297401363 11.420100975262496 0.7672878886646464 -0.4250550317341002 0.4246225721823719
Ni 1.0442006170995142 3.6158403832574013 3.764624693774411 -0.41207918829972257 -1.872594596178491 0.6329904287999357
Ni 3.880657056816982 2.7383365727195934 2.5438210071184306 -0.8363387207157209 0.24578332115154444 -0.6674146719160764
Ni 1.1830949816728171 3.4394983865177813 8.419158689400986 -0.4425750428957345 -0.21074586993143704 -0.3996785006425245
Ni 3.604753853569818 2.732625604851092 7.304549090505537 -0.470184577082887 0.12934371540386114 -1.5385185640271246
Ni 3.97452542551275 6.872497147699505 6.155058168973252 0.711838192336774 0.06760072986810937 -1.0291722291431114
Ni 0.6522723028324692 7.643378094635226 11.328965712618084 0.6213299617428719 -0.7334292882439885 0.6059151698496984
P 0.19253304389824025 5.4807252131173145 8.149998960752834 -0.38344609794406226 -0.3035765780109288 0.2503467721525108
P 8.698710566564136 1.6506782096492911 8.160772746961905 -1.1904017375119755 1.4694942143386112 -1.346494438874907
P 1.842340104321876 3.225871928122372 10.566902318770763 0.5729479708950583 0.2089561250208659 -0.4169776540426044
P 3.84265645792054 6.037762140976921 3.891608517581961 0.7949570724451406 -0.3143299598726909 -0.22195073750832095
P 6.731336526035528 4.032677582459476 10.579771939537288 0.3447589657865095 -0.6111440223488056 -0.8504381362315806
P 6.462812255875602 7.883383785566094 10.250244561010568 -1.585895253538875 -0.29179681176718136 0.47488789609582727
P 2.324400182593583 8.386465664610904 5.730761357931511 0.039362560958022534 0.5123177588075113 0.16933671085703095
P 7.293440804749883 3.9851224436687467 1.7767954167453672 -2.0661611261171644 0.5974937785552226 -0.9784312511448181
Ni 5.465033649021479 2.798546491104653 0.3640932381765357 0.29605790103638047 0.07327952542044154 0.6475179329921493
Ni 1.2045065786655165 0.8550488287805614 6.712243763298006 0.11651725306315416 1.4425781066740575 0.2819011499200242
Ni 6.914848960210043 0.8765347590058351 9.152537614000211 -1.6518597333551424 0.34902776836519245 -0.9857049019880959
Ni 2.850933290012701 1.5466660742156613 9.101828751842099 -1.5881593669827037 0.018529940483387443 1.8484154278291263
Ni 6.662596415961167 1.855303094880538 2.5147911602897173 0.19152121737387018 1.442546996325806 -1.3843549613661061
Ni 3.875471860593517 6.951816145873138 10.53456917560668 0.3428949159945772 1.001344922518198 -0.8383822335083109
Ni 7.839382137893543 6.879712910276215 0.4491739683775011 0.7167734248548624 1.0672860052956974 -0.6665965468901552
Ni 7.599312991764137 3.87494608894848 8.467466225545818 0.028701481699750567 -0.31912815259228267 -0.6237740524079902
Ni 2.9799920988124735 8.388106434744554 12.606753074064839 1.3077646264048768 0.138639024662858 -1.053124883303967
Ni 9.22711106982597 4.973083624806065 10.46640016231917 -1.0824745401106777 -0.6352853954816995 -0.4275731701702637
Ni 8.477224728578266 2.5075228205485036 5.720797078755231 0.6076676337644309 -0.7343029490981934 -0.24369584249489648
Ni 3.9278949196150164 2.6082262206297475 11.557765215486981 -1.3345372665130306 0.22790104155448496 -0.3861719815156575
Ni 1.1546489226706615 3.4342678651525027 12.655352504122948 -0.21455547348551438 0.3045376563726175 -0.9963672667979486
Ni 3.0566006535056585 8.477940865818919 7.884713625226903 0.12846696922586262 -0.3793153636051403 0.6427495650692285
Ni 5.276517319190751 7.794773133320693 3.9007496921829086 0.6447288002827865 0.8671189393213712 -0.7032630490732533
Ni 2.917987304811599 8.10938400767659 3.6198879184213473 0.008928669948197526 1.0371238798900202 -0.14830328722549943
Ni 3.466484975953542 4.415430275017795 9.299714694988515 -1.8407478839815394 0.9297047324733924 0.01005969822884719
Ni 7.06338851496126 6.011981200313399 11.439298892329024 0.8063563154210177 0.6652662581145058 0.2521609425431141
Ni 0.6830426351068211 -0.3150405567002887 0.24578555301492658 -0.7764245608585919 0.5655336807088582 0.47788940192631246
Ni 4.6182149594914135 0.34962726591533766 1.4963180001863843 0.05728263577155296 -0.7310739006379345 0.18894471489594555
Ni 6.0546774839017194 5.291429290847394 0.33310625172431535 -1.1638561258129634 0.15124154391821693 0.5565597593450221
Ni 8.04641832066927 9.247054132223914 10.910001857762119 0.6210047171929692 -0.9193069341788361 1.7963076513902936
Ni 9.281229289151295 4.783697052252518 5.954638550399462 -0.3327323736392786 0.24112062556855252 0.5917743595729421
Ni 8.105567630735893 8.807681272512164 2.226035559829916 -0.20205939790103267 1.036649511356763 0.7650865101379533
P 8.726585528779442 1.6661612780927841 3.372208680981452 -1.097027755334504 0.18879867623638452 1.2714570502230942
P 1.9327003070412783 3.1912163246917666 1.4349423191538817 0.020670640975474077 0.7540613626720434 1.7524993959560913
P 4.7228888419955215 1.0517608507540068 8.063441537431585 0.9784209667321729 -0.5676633254573513 -0.10257493195044914
P 8.471812906645733 1.4230553474618721 12.638462543277566 0.3347715155564944 0.710262363209222 -0.6084852445697198
P 6.2364947577724115 7.646079473087311 1.685368260187675 -0.6786131117350571 1.6616648923710222 -0.9470401384280465
P 1.8406358789896882 3.2251104657399052 6.04238983795608 -0.5220205879175719 -0.9821228410637926 -0.6660676709698787
P 6.915265951514728 4.060425634277703 6.225867825022818 -0.3287433070845435 -0.0892267927783173 -0.10537640595498625
P 2.433253043172895 8.663511061431768 10.37797171714386 0.12984456629967958 -0.12686080108100733 -0.6008022741031653
