# total energy = -340868.9924356074 ev
CRYSTAL
PRIMVEC
9.34137165559599 0.00000000000000 0.00000000000000

0.00000000000000 9.34137165559599 0.00000000000000

0.00000000000000 0.00000000000000 13.67204165828422

PRIMCOORD
 96 1
Ni 3.4200723043168963 5.62358976362872 6.930139382437505 0.6491313002258563 0.02208680459671035 -0.020737489657667512
Ni 8.938627685897771 1.65004119318457 12.06889888313328 0.3865126526845279 0.3698904707468146 0.05743715907154625
Ni 2.1447975975586435 3.9706714279974467 5.673199919816882 -0.5173859173590379 -1.127387084352652 -0.44162604871890393
Ni 2.0522899947998554 2.6448692423618545 12.210555178324167 -0.0836698675158301 -2.1430913609163156 -0.7743807909556857
Ni 7.154425714078271 8.537630628074233 6.9476665979334475 1.0776948593338471 0.6894518542217739 0.9022908592368137
Ni 5.0574559390102864 3.5724487575332304 6.830565966215449 1.0647966632149404 1.7488710551748847 0.3222024206422322
Ni 2.0755313272914098 4.6663794178049285 13.275306196190774 -1.7291558361341446 1.3363501513520533 -0.7102981015431638
Ni 6.087566348646011 5.7172463550918735 4.288549895637462 -0.7492387444724193 -0.5372199213658296 -0.48449610860955267
Ni 4.383943048077375 6.781742353514341 10.678630023948365 -0.7898796579222331 -1.6789984985534634 0.7692411557362752
Ni 3.2020353502632894 8.787418904128963 12.312384535782844 -2.1612670033840775 -1.2467510628359821 -0.5155259813321638
Ni 4.66282035523287 1.2204969038119204 3.03203453128658 1.8059747421664123 -0.20116439689058904 0.03626078210424723
Ni 8.9751898142627 7.438730358121865 8.83615844448585 -1.1348219433641422 0.41672954258754036 0.7778381533766668
Ni 4.470098518161623 2.3951276731650255 11.42593040899333 -0.5361655119593862 0.29373490933015867 -1.4959578078467786
Ni 9.106211892046682 6.869504539510383 11.409127149794854 0.4560828475741822 -0.360185841864541 0.6059776476565177
Ni 6.5204641904159555 1.6526100703691269 6.621889066485209 -0.7085163270523926 -0.05517484539993078 1.392444680352776
Ni 3.031181664061307 0.9989102285578347 10.243408048929266 -1.2256407632199278 -0.31170820597912774 -1.222612003695933
Ni 6.984599578750111 3.3098347782988764 10.776262303156054 -1.7486286001467755 1.0302821743778385 -0.34383902507540137
Ni 0.19817065911398127 7.1449161978096205 0.18289938485465917 -0.15831027783954027 -0.63812980690903 -0.2910275377013246
Ni 2.4372012107622774 4.540065391297372 10.842065726978504 0.9144827733173153 0.9371809862457794 -0.4661859974464551
Ni 3.9482054293470488 1.947601243500478 5.513414824800287 -0.07210478838605001 -0.8972075311766355 -0.991573444953731
Ni 4.322551554052256 8.726970888633446 1.3771713220923072 0.4571570544749675 0.11864612648069887 0.8972970055666483
Ni 2.0237894701086443 7.819008253780504 10.108000197188378 0.4990274694565083 -0.701445022027908 0.0671610712275295
Ni 1.8801471993198045 7.357581863204608 7.835091293230146 -1.1988575815888127 0.2812565743574898 -1.1806713975980894
Ni 7.727658981097662 5.5791808831364165 10.229311919214734 -1.0041271132490255 0.21647480199541427 -1.1712858426181312
P 8.77870340444463 8.10832921436267 3.10195376342727 0.49687339922798296 -0.38319027317951426 -0.3233822998829463
P 5.072103209648051 4.476609454153027 11.410863710771613 -0.2587087709639609 0.710796124225505 -0.099797369205312
P 4.436777845735025 4.628948541883039 5.121943163577086 -0.25970224522548174 -0.35871465663565316 -0.6038706286158438
P 2.3437314467307275 0.8221985682379045 0.2917151541181722 1.2015371853035048 -0.6614386568382996 -1.353813084023507
P 8.664168847499715 4.858223165947636 12.815706977895967 0.008522178538398225 1.3349409297093524 0.7650931950061727
P 0.23595837543023387 3.9953980385702534 6.835624318926131 -0.511403731633674 0.5368144583972949 0.350678416594738
P 7.253453594200043 7.243645154040826 0.5237763093251439 -0.390797653213127 -1.0967511046343497 -0.1545677800779725
P 5.273222939769902 -0.28753115378739763 5.921115250869781 -0.23860660089744715 0.19130627314958665 -0.17722716934870122
Ni 8.172588509462912 1.775028744927737 9.293583925613945 -0.7581159923573911 0.9070710542342765 1.8954887271678453
Ni 1.7855097638407293 1.5972998092427224 6.552162266599072 -1.3055784173868352 0.1917302480608827 1.9809480824839303
Ni 4.506053457373839 0.9030836364765993 13.334779906630477 1.7699908678726355 1.26375479648283 0.3326598685301303
Ni 3.3817539980948883 7.82559392074455 5.974695489979531 0.19715450440024757 1.5590123131051021 -0.6539927420832157
Ni 0.014357688118777863 5.3030219151107625 3.8893809442321703 0.4458642551699676 1.0126405500366753 1.254557189143962
Ni 8.926567975187725 6.141475404035385 6.567952921118253 0.012801008419410212 0.0011505686646754378 1.1674176179119764
Ni 1.2476055641376806 2.556238308808852 0.8355791488893928 -1.5170462530859616 0.8843430165091414 -1.4442979175786417
Ni 3.4538133384646033 3.309610585380951 3.4302329141846877 -0.5167354282592327 1.287808494997924 0.1255215134442935
Ni 8.368168806237701 2.5353696846986704 5.096417865734171 1.5930521762986305 -1.6957641480475765 0.2496327768046217
Ni 7.1961536209270545 5.835171829920404 2.1978351029795835 0.9301996698319399 0.3385240406203912 -0.35592243860249667
Ni 2.964559001951272 7.073697580882124 0.5981439026123282 -0.7928104584157829 -0.4869103744780002 -1.9448904175294246
Ni 9.22091459368004 9.434411641145667 5.476022248501876 0.03542645912840996 -0.5609910556434984 2.3962583761264407
Ni 5.874592417988876 7.975747127524794 3.39286742786386 -1.26673804748087 -0.8815862796996107 0.2635553004229848
Ni 1.5258850235120414 6.942918378759229 2.4224941553463992 -0.5451574310453514 -0.6857733769289222 0.5897799548507326
Ni 7.091502235113998 0.2682197363196361 2.4426472303935376 -1.1963034477083914 0.4244248543492691 -3.4796739399941488
Ni 4.704053169387903 6.055674906071186 1.9307381995238884 -0.3274364153476619 1.5584129889582063 1.1735116466248565
Ni 6.483743258734163 8.005462030521432 10.842243213038529 1.3030487089864464 -0.3089877217241711 -0.8811203958067858
Ni 7.698569949996898 4.2491470561749916 8.303522778354038 -0.5559972019733328 -0.723081112240445 -1.197004330430158
Ni 6.9477478678661955 0.37708968553831435 4.685859914098291 -0.6589539427432328 0.2507203534418456 0.5385376117359887
Ni 6.790868873548202 1.1293344585606822 11.443020448299318 -1.4935389139926407 -0.8941965122644535 -0.5381761146315118
Ni 2.85604962967559 5.988837392414807 4.438409783350088 -0.4119696593050518 0.40041126504349106 -0.83064655542695
Ni 7.757093642946893 7.349445528558248 4.831276111350213 0.2035130996284237 -0.22694099163406078 -0.10032573090495624
Ni 0.5765998973368973 3.0251845035068143 2.9351682445484673 -0.07777227108447252 0.41852391548380175 1.649503831528456
Ni 5.167796220115689 7.714599743628532 12.821339824958832 0.529298609636224 -0.26047743282860947 1.5252059060786185
P 8.417425858580133 -0.23932313747342435 10.814229373806647 -1.4156010638645815 0.08662920725447015 -1.7725380597745217
P 1.7504235721854724 1.8273871326347961 4.560036309598696 -0.08473224734207342 0.0850736898418922 -2.8504270373970457
P 7.798008850468199 3.945636552162492 3.3876035649784138 -0.8706850594060748 -0.24550692756170622 -0.2913694944217757
P 2.756423901772684 4.968554105681458 1.5535812561101967 0.1037650956038084 -0.13963404158627563 1.7029791777387766
P 8.720179711494636 1.3597300472149028 0.4733114176373926 -0.3753964881667083 -0.21729909766892255 1.2831319154578613
P 3.6633122788939017 7.963537954869464 3.3235507141900937 -0.40057632986644565 -0.3478545739926977 -0.1664061674737973
P 5.852500074201688 2.659665974944902 8.827913749929161 0.7841044460013529 0.5968602587362818 0.013822764815705229
P 8.462628755656754 1.0943883874791285 7.408865993179944 1.1811215977616303 -1.4418342865294973 -2.052046798202969
Ni 4.2302961683261335 7.692881054704552 8.534020187958484 0.04181153671914735 0.5771082729203352 -0.8497945891103106
Ni 5.360620812274318 5.192840437322223 8.646773345343053 -0.5545674115053416 0.06575339224672547 0.6746777812363929
Ni 3.6904863288207235 2.995731158914422 0.6759911568131396 -0.17296659430013436 -0.47368153449255196 0.9541978325187502
Ni 0.8624514725141738 9.12514685223976 1.5671580055648693 -0.8848346114335794 0.020739032319564282 -0.6066265940944262
Ni -0.12160223868250014 3.779677744668538 11.072398728443138 -0.26253405824732207 1.4528018412845947 0.3810521437905889
Ni 4.404260531264325 5.069936011441443 13.503752240596206 1.1205636336729152 0.615605657664585 -1.1969271973353193
Ni 3.948934056330305 1.9451631455180438 7.865306893743483 0.17800621360657085 -1.8448379948905131 1.3910801959050816
Ni 1.6226149262250829 8.77870340444463 4.063959969420339 1.2006344709835775 0.006125396171447515 -0.06300668273952374
Ni 7.71267542108301 3.515933459472979 0.5957207508244227 1.0853348923776085 -0.23214773264598085 1.3135704344533763
Ni 7.015444787707954 -0.17298351892226965 13.49623243647414 0.40711773052938915 1.2347216424752736 0.2915926661761752
Ni 0.5035896053403169 5.068086419868561 8.945958794313919 1.1289001785630686 0.05257083211818043 -0.2661364308865998
Ni 7.504344152101238 4.4323500356060075 5.69332497074928 -0.7183834496544597 1.5700983957159347 0.9096722393025495
Ni 2.5428801474491562 3.703396104344569 8.090868322604948 -1.2286270995417616 0.5622807209891993 1.1466618734218639
Ni 0.2365253966851524 4.9988014668581675 1.5359447465667662 0.4337936971586787 -0.0542181379136163 -1.105034941909697
Ni 0.7826864347279459 0.4723287053471548 8.96853128460033 -0.6637752753912762 0.007087502974400697 0.2754337970281257
Ni 2.470447152216233 1.3286793280822955 2.382544845646487 0.09855655481967543 -0.33209705404812484 1.6793224575517853
Ni 6.569805315102608 5.856862494729644 12.284698578693426 0.7633666992333692 -0.33859988816364905 0.611389048480076
Ni 5.54182473818717 3.9260663787019587 2.2565017189147563 1.0890843321177115 -0.831974015989122 0.45992484702809183
Ni 0.8399490425146136 8.937544086794468 11.70132618696088 1.8563693925688804 0.9581920412798078 1.9716489165701911
Ni 5.858002142062429 2.9979263812357706 13.028225049619989 0.2996852133763226 0.675441913095927 -0.13172918491690216
Ni 5.617938233822695 6.841050721677073 6.466739160046712 -0.3117971661485082 -0.8052571688195681 -0.33328078994358085
Ni 5.9976182817002 2.7322577734946893 4.549823388050056 -0.0063182289085439575 1.0253088895329632 -1.0424298654839659
Ni 8.914564312707158 0.9065931897792829 3.422071357835061 2.147556338666204 1.094343523634122 -0.9306714672620359
Ni 5.680394644207958 0.47140577783503035 9.040445833710551 0.1592926963574676 0.009866351271118491 -0.27188053245922855
P 1.271295282465085 2.8348914230464213 9.97908646697005 1.9843594221583247 -1.9328396570124777 -1.535494175378504
P 2.6340239099572345 9.56948787419546 7.9973789416930785 1.3409074317054326 -1.8181512296279463 0.4835131758709931
P 5.949547583548457 2.05430773106118 1.2427274998984967 -0.6976565015197532 -1.3800874443390039 0.7001841530376134
P 4.8144214746080465 9.365285491452136 10.981124186732938 0.320188475535997 -0.1619897835736565 0.7563352463078845
P 2.0518416089640055 6.7639563820256265 12.067873200533773 -0.3358796610190087 0.12469053290256592 0.7534954628662442
P 1.1925475200439417 7.132912535329055 5.596540888081074 0.5476848254528954 0.27492523282282333 -0.11783802875710674
P 6.899948069490277 6.668151275099025 8.225606398003533 1.0249162820802349 -0.21206638851507348 0.5168986933099743
P 2.8681840713582787 5.825727703252815 9.102995657811617 0.5502106771985427 0.1037769226783503 -0.5245217570728709
