# total energy = -340867.5191297869 ev
CRYSTAL
PRIMVEC
9.22915476809560 0.00000000000000 0.00000000000000
0.00000000000000 9.22915476809560 0.00000000000000
0.00000000000000 0.00000000000000 13.50780090036889
PRIMCOORD
 96 1
Ni 8.186057257839568 5.742776964355222 9.715809968518835 1.1560667116755314 -0.252986523768203 -1.1456673707190785
Ni 8.891893787068378 8.883919797329318 8.18934745152241 -0.8462539229469038 0.501240160837111 0.16194273238580498
Ni 3.0468854750978958 7.105637023125464 5.259492273746471 -1.0207654931366548 -0.6728960067456218 0.040659682502891266
Ni 7.592567229876494 7.938688221987637 10.342909809482766 -0.8462942892665359 1.0750245115905357 0.32845894307490525
Ni 4.257427563204395 6.698649755170441 9.236998649237078 0.29201818374936805 -1.4376048218291824 0.44677365435811445
Ni 1.9091337308247047 2.0369390663646643 5.751081357835786 -1.7229057414593747 -0.3300293728858187 0.9786572511126952
Ni 8.896471447844506 5.390832375571223 2.59203857914536 -0.78429059387023 0.20927082804780733 0.39971295342488583
Ni 2.163646132484545 4.278303911340688 13.336562442664071 1.1857809509105126 -1.2802749056250404 -1.695201333565571
Ni 3.6279622898676385 2.072812791035651 10.115640949849242 0.6016170566949768 -2.5196810980601766e-05 -0.13608797610623016
Ni 8.984009981033163 0.6932894932910167 5.374862246121602 -0.7683446120639348 -0.5545586697545933 0.48883715918706777
Ni 4.360950992490338 1.086566851804631 7.630408610348832 0.6765739698178412 -0.4912815069625023 0.16183011806734066
Ni 7.094654328924673 8.624737443345442 6.089640903427006 -0.0025235377528021056 0.11672114154384412 0.360329823641573
Ni 0.42059104211633747 3.1321259487436977 3.481351628526392 0.7766011956457722 0.5654416352156842 -0.06517155160132647
Ni 2.652385253574529 0.16400761812149098 11.31755193239559 -0.38443031623420243 0.8104207152983786 -0.6734701340815369
Ni 6.2337587700593176 5.773270091783299 3.1397529222626335 1.1166115910037027 -0.5061975048423862 -0.047891681474956226
Ni 5.21244204262409 8.125504773258568 4.769861616303716 -0.2950816531660402 0.7526053469518071 -1.3886168219662536
Ni 1.6971400452850693 4.3372782104524985 7.570811343288658 -1.1907701765949879 -0.6762852349328289 -0.6314426246968416
Ni 1.1959507943825918 5.316749950067233 5.481803231426497 -1.0503406356906104 2.2032109519160317 -0.3971217956589419
Ni 1.659235906560155 2.5278931846043884 11.743344526151898 1.0382461664199216 0.04684318560578384 -0.6791391594418562
Ni 6.275677591118135 3.642978124711913 5.8515388619002975 0.5507981742708965 -0.7393603090164428 0.022548317614161168
Ni 5.92938124506597 5.056395493424955 7.66049011747325 -0.9841079898146213 -1.3628330281339303 2.0462669582963984
Ni 6.769566580581262 0.25246906678920567 3.4461645529718243 -0.7241455489492173 0.7403530119470153 0.046252088989004216
Ni 4.193727936839808 6.573225541566451 1.5548560117096468 0.321488168184027 1.1394077629626118 -0.6184300144872575
Ni 5.077493341276222 9.11210142037163 10.255649073853307 2.393580315073646 -1.680587440307138 -1.2727174049927565
P 6.2103074877364515 6.198420336366184 10.196107181721876 -0.7122302855688701 1.291341447851847 -0.546816049694697
P 1.2198819927545672 5.4273059953035965 1.0906249111660493 -1.9240889074030414 2.325793951557291 1.1860784275462737
P 1.4373854837041793 0.3234680316776629 9.332810196780011 -0.6658712386883565 0.9944371396547713 1.1403256467911909
P 6.495756016254318 1.754683825404339 0.5742057090281557 -0.7738105202745125 -0.40257664812592603 0.08168626142689804
P 9.224309484315508 2.4312916214113813 7.374272800361329 0.6610982427797454 0.5466160178687489 0.8784274223556549
P 3.7315041774631617 3.2052300838398864 12.041826467065022 0.7479935592114086 0.25986885271033305 -0.8849122587490502
P 7.941180093781093 4.926938139177481 4.551763767785591 -0.7694309031495781 -0.40122039120834774 0.4844634555994043
P 9.31129426821673 6.70482405972534 7.799822667346645 -2.6294404635742072 -0.7520412469182209 2.4267112932996593
Ni 1.743968776692475 8.980549047986695 13.563318161291242 -0.14276178858197994 1.5004839778519061 -0.32430584013848013
Ni 3.8123608025834383 1.7913512573873156 4.005549162321787 -1.75193632436377 -0.6410084140084057 2.6789465407241346
Ni 5.6262681142789335 4.205910421163375 10.289149059912155 -0.5549124535495863 -0.8927019299967981 0.1877992884375927
Ni 1.991420874937521 9.069601162561007 7.252581779870129 -0.793174269513105 0.5517733936999724 -1.6301465100477666
Ni 1.6552027659166713 0.3383149729892699 4.139452200431883 0.166269641895933 -0.25694319442310587 -1.2490385733185778
Ni 7.090279709553937 1.6115396346024344 7.197551098600335 1.1137674366866883 0.11167226626602704 1.4848735250081588
Ni 9.033035251280728 1.8188910552824082 9.919507566817218 0.6748227914546895 0.21127783117550708 -0.12867240036844937
Ni 7.756495477266786 3.6123834765811385 8.604658494183056 0.491560985876134 0.14097281500235723 -0.272715112545382
Ni 6.948196871552949 4.677077231532094 1.2005432218063845 2.268391245268106 -1.4708756680671702 1.3398077708833507
Ni 0.8223490709670163 7.64082648027644 10.13911715089004 0.35320503967133365 -0.47772279444146115 -0.5734907307724059
Ni 3.336081040460738 8.128162769838255 3.038688139812902 0.8078984630971571 0.5222633000559974 0.749056196147968
Ni 8.389975432937446 7.044272372922893 0.662056187648734 1.2721502196353767 -0.7438810797049318 -0.549481512342002
Ni 8.44791606671271 5.099781750095474 6.756966938461162 -1.3340425862647993 -0.6830423511510043 -0.10712604165624132
Ni 6.458433314281211 8.094660937948449 12.976161179345464 0.38553589059355536 -0.8101633478719337 0.25531234368790223
Ni 6.9381186345216355 7.08046911801155 7.844534230645092 0.7523742047776075 0.5039930409918998 0.8109081964577584
Ni 5.18905536438476 2.07136381373353 2.391745616049223 0.25438031879193607 -0.26111789462608576 -2.125242505660353
Ni 4.831757865822224 1.1792367950568503 11.895266566075124 0.04299321573207434 2.288050928480563 3.559260381469225
Ni 6.961985228810077 3.1189744031671207 3.004067734362476 1.0422840839347212 0.9203006655506731 2.4707141812431708
Ni 7.992438819487978 0.1606961973826307 1.2956238202899037 0.2920269255001164 -0.5553420848878371 -0.6524940460505021
Ni 3.2293458653076734 4.19106071110533 9.232001061917979 0.727281780585354 1.1837490080821484 0.4782472994863634
Ni 0.7278185301090156 4.473417472768352 10.691924141620756 -0.41802023637450586 -0.9256866124529348 -0.09356013004634856
Ni 4.133581535069594 5.500114797446487 12.009097115431187 0.2829977254183126 -0.4109679575134148 -0.31144723900825716
Ni 5.901472280979254 5.945947577915062 5.561107512710997 -0.09352439171240667 0.686602814808753 -0.27138508088004876
Ni 7.142812058621922 5.331055139992633 12.053685930970918 0.21670363017676875 0.9347656919360676 -1.2747529473655466
P 4.247109368148526 6.0037866909876305 3.6420948945984546 -1.4597834148087503 1.158125393976773 0.7661797432021321
P 2.950846890347114 1.0245284733023483 2.2120918118112605 0.06251328804287298 -2.472588772558064 0.27447271866643697
P 3.9298940888414817 5.801114451786482 7.165334887972854 0.6317658123642153 -0.6623902221182913 -0.5429365121346326
P 5.716067790391282 5.703377702554234 13.610190269726163 -1.5307278643381121 3.2091342378335312 -1.1959558345609853
P 7.74925059075618 2.9262788802945887 11.541214038336957 0.7341260572006969 1.531649090600801 -0.3796431792582042
P 6.153003665641737 9.141413215986514 8.249551996967805 0.6410315539368573 -0.8302794018955185 0.1650131437810126
P 2.3615192111945924 5.827380626320474 10.605892729409401 0.13534055641724432 0.13730359368088613 -0.6665029587350844
P 5.137916617690153 2.967819306006992 8.45277613962543 -0.15781894002541855 0.9127670761777894 -0.5587935337715473
Ni 2.36593074718449 7.328410361460497 12.163315369066309 1.9015218207358024 -1.316490693423965 0.37226951250195245
Ni 7.685135652426017 7.478411814271802 4.082463092515527 1.6312801094315776 -1.5494809765758992 1.137182730286835
Ni 5.84433458367077 3.6057754017510826 12.946483909200872 -0.519975275352769 -2.7463346403608053 -1.7052021535320245
Ni 2.6050304603440604 3.2204766475539253 2.1102970032175943 -1.2006483549406484 -0.17895623622466597 1.4069192198198672
Ni 4.797739201264144 9.061073423534511 1.2177906662790217 0.4160340591824125 0.18126200153970717 -0.3355865552586221
Ni 8.43011302712168 2.8027558725774586 5.422072141621859 -0.5891909151164821 2.0717252504685026 0.07853228917894862
Ni 4.589723281439248 7.960487485602988 7.008589691756072 0.14657859122490888 -0.19378301682485335 0.6562242025168957
Ni 4.761699351806927 3.9442915703147876 4.185202966559749 -0.8350300292066264 0.20755615934954577 -0.8744154729827843
Ni 5.774460652751285 1.288426925384209 5.470686714481242 -1.448501671247344 -0.08103140145171851 -1.2088265198760666
Ni 8.883236839874813 4.399279672335618 13.246722158270645 0.979448636665739 -1.3637771372147545 0.15490845124684288
Ni 8.422305162168849 2.4256987536082897 1.443389971810931 1.3752123756348897 0.9627866026290257 -1.3795472555648176
Ni 3.349961689265771 8.778818182574184 8.981404590635782 -0.6175838644368783 -0.42262173970225925 0.9930747120896058
Ni 3.892635990951908 2.889233052965199 6.486634842574787 0.7700518245630287 2.7693835517604692 -0.5966941654720627
Ni 6.542418622875494 1.9622752041088678 9.784834817197588 -0.7336627444110333 -0.5189931139451579 -0.7134302194142422
Ni 7.141483060332078 0.8919433584963471 11.681951265569477 0.5704455161881788 -1.3493658468854308 1.3492228935496635
Ni 2.0593105375770318 5.234656618205018 3.1460204412809167 0.7932190067081113 2.1584791562262957 -0.01389886946927929
Ni 0.3130584679893671 6.376312294954624 12.109082086770421 -0.8497135993607301 0.28297587104144173 0.026892453515469813
Ni 3.6517642800725456 2.055821917066192 0.4931617320656306 0.9255886534224897 -0.5198397782161691 -2.3943429042712827
Ni 0.3597173829486262 7.815128297651343 6.081238680905662 -0.3484353861968322 -0.34724085166809876 -0.31844501048232904
Ni 4.340997559833102 4.40358045846803 1.0654440852354292 -0.20070159832155757 -1.3593422413718526 0.8196556036330853
Ni 0.06219804288015959 1.3014215753293465 12.694442152278471 -1.5152423671080033 1.5241044454843236 0.798020798972129
Ni 1.314065517392442 8.23298750994967 2.0747712176822124 -1.5400967071475218 -0.7752796486208712 0.6884992605005176
Ni 2.0901820603515238 6.702147604836071 7.7270433984990845 1.7003412258952975 0.5078149858411511 0.36757056436438634
Ni 2.163673819948917 2.1048194998493845 8.336245139577644 -1.187530843722084 0.17168232827107208 -0.7930367154939761
P 4.482969647976603 8.263923636807695 12.224586804805494 -1.2248763742500777 -0.1402117684666166 0.4935026829835373
P 8.966649940872081 8.708519710534333 11.950553817848098 -0.3890395328714397 -3.4766819472453605 -0.08936074725302029
P 0.8170183111599769 7.497433102295189 4.117218243625896 0.4343685958255422 -1.2773960414153485 -1.7386835731189219
P 8.695903455935609 1.1852172873611466 3.253137703442311 0.333169204066381 -0.025700747200213803 0.15472204626764965
P 1.36077426978757 2.0408337696862895 0.6651433399261831 -0.07874491941038697 0.839600165075812 0.11040702640035825
P 6.97095596726652 7.578428164737324 2.0854558101832676 -1.172893296314567 0.9097964235852396 -0.34046728038969104
P 2.265379105741115 3.8042576046773084 4.69639200667782 2.0775505989010288 -1.6891906085951167 -0.5113710786235258
P 3.310857760418081 0.15327041943812952 5.5879071323918845 1.86099172183224 0.2965394686584893 -0.4044728367073744
