# total energy = -340890.0840151606 ev
CRYSTAL
PRIMVEC
9.05669615130008 0.00000000000000 0.00000000000000

0.00000000000000 9.05669615130008 0.00000000000000

0.00000000000000 0.00000000000000 13.25539028230751

PRIMCOORD
 96 1
Ni 6.526544907465319 2.2853847664822178 11.683711955030299 -0.5553654819266048 -1.171849171320769 -0.9663082426290389
Ni 4.889012771543106 0.8016271765673201 6.113836707570989 -0.862419991183805 -1.331692597975384 -0.13586763256530793
Ni 3.0032909401255767 1.7214695938791025 4.7015808264199945 -0.780745556831449 1.3115593175606188 1.733615928788027
Ni 3.2993452736552196 4.805663998822211 4.88928990643882 0.9981480128474552 0.7295929452170338 -1.238819466693731
Ni 3.9623859833038835 2.968839268775986 2.912222239786809 0.40924094751997914 1.1774410635862496 -1.1786561669402735
Ni 5.057657506611645 5.24776661105414 2.668071830680011 -0.3385222408481783 -1.0080912401030961 -0.282586606022823
Ni 5.460218584376615 3.2339740423720063 0.6054872182994585 -0.4388274029278442 -0.04318604846917079 -0.11929198759481392
Ni 5.68790392026744 8.02511110090906 12.719872235287454 -1.4332617143691382 1.7745010970381636 0.33092463100657843
Ni 1.9991569480457148 5.676021535196289 11.567779907331904 0.2137728296832189 -0.175975042109155 -0.6045409152099911
Ni 0.6080547915979887 7.73874743203348 11.232272794955497 0.20850129687163443 -0.23786200942193872 0.5161404749877111
Ni 0.9264728244082691 0.3949670382206401 4.717699028181525 -0.8018185754516642 -0.21419577615325047 0.8952465507955227
Ni 8.789324160885345 2.740230149899445 1.593019381054679 -0.16638379887629412 0.9492841972672167 -0.20008376223190058
Ni 1.5085738424556474 1.5712371216532859 2.741452803851126 0.3504339046840997 -0.3640119004788505 -0.04985240474575286
Ni 1.7411316807613215 6.896737353946526 0.391410473725639 -0.5105123301676563 -0.08084088270746723 0.8802981570158066
Ni 7.737524778081799 4.273302354868405 3.8383101546176968 -0.9166473850688021 -0.9538605037839895 0.4563908657329043
Ni 7.586431919741836 4.054374843949991 12.62585195774237 1.4357204603222757 1.1568156740264142 1.5170981893698194
Ni 8.188339931806448 9.167368762745124 6.950092161058699 -0.44461367059231816 0.4841744636040758 0.6124982223838548
Ni 7.048763051968141 1.141071234668139 0.5370557294586671 -0.059736496628684216 -0.5082590153571053 0.2381353176879834
Ni 1.9565361369597074 6.747383381226732 9.34050290199032 -0.08250747177661273 -0.33795068461542443 -0.3093710732055189
Ni 0.05369081053148715 5.48816754804245 1.7963041667483275 0.34610622384302325 -1.7761738567548957 -0.2736746482451738
Ni 6.673408288802059 2.2656049425528 7.097678266731322 -0.19805361917574923 -0.12713359512641975 0.10315471571331912
Ni 3.33307240932974 4.645967279340789 0.4439320648114815 0.9828556054647588 -0.7193820661223029 0.08511791281626631
Ni 5.772638367466907 5.91480132361163 4.937420811333737 0.9528559737788751 -1.5880087003374521 0.4482378976084668
Ni 5.439324786846776 2.970460417348956 9.481076407997854 0.07234518653163025 -0.6755725251365204 0.8976911556812733
P -0.03438284046045879 5.854103347432618 12.983813336358796 0.41517891027096887 0.024522667731712605 -2.5865886585160034
P 3.8755956661264057 6.277920490564962 12.534045136684624 0.646051375748952 1.5649009106753953 -0.18679604398405894
P 2.513106329156798 8.844570006109452 1.647710956487357 -0.19778956688108515 0.6082438179828751 -2.553554353768854
P 6.4867769555999 7.7864762196287325 6.016143939822892 -0.3700264821040466 2.2523087378839466 -0.5158375990353116
P 4.885643680654028 1.2200727933386117 12.712767257323796 -0.03038478293944444 0.8646072286431109 1.508327128045409
P 4.395105858543653 6.1802077980858 8.331821542879798 -1.525686959480095 1.4439371918051132 0.8515779062629787
P 4.955199105460773 1.2900448261585213 3.8325048125211962 1.4379058980093689 -0.019758156463533714 0.7182893472787566
P 0.4359377193066751 6.0416131801408 3.912249020258616 0.2367662052545987 -0.285701754613037 0.16177149691526335
Ni 1.028188576492194 7.809063619299048 2.712636208714394 -0.508042528470925 -0.275096468293365 0.43897626980088267
Ni 2.000615076091794 7.163674410034283 5.113160562000401 0.29150396311711085 -1.91101767604138 -1.1800124238578515
Ni 6.3511529339226875 5.9725830436984815 9.819645589271028 -0.04168272445076692 0.5603919886069187 -2.5291329875016957
Ni 8.859948275812817 2.694439495235005 10.512134145763328 0.5580432858690841 0.22802239762369764 -0.9470110849623237
Ni 2.372944902814458 5.497287640852397 7.046313215716809 0.28445862623455526 0.24024747893497983 0.9905871697810616
Ni 0.7916430749648522 0.2470865899300202 9.148883140665303 -0.03190224802523538 0.48656173288932975 1.4848791814351137
Ni 1.6695475560643807 1.5650785684151887 11.827108433161829 -0.2267427595803256 -0.6889571739735426 -1.697639253583102
Ni 4.080168313982492 7.332337258494699 1.4311318468257637 0.7052564253541983 -0.28286042850949994 0.6041783896642497
Ni 5.692812649466042 8.168043876208543 8.180617287179793 0.7104860491842538 0.027052633242417926 0.40316928740460245
Ni 6.953133399554806 0.9470043541005724 4.983575545174899 0.3357076542175186 0.01781980179024028 -0.6369550698746386
Ni 1.0717603406517313 7.908614821053701 7.251547002376397 -0.10868104484818701 -1.5333694157260171 -0.6221547716370124
Ni 5.514794234101282 4.526002284941033 7.806045928212381 0.34006258875210466 -0.269995913842006 -1.0405958975990206
Ni 8.29889501912623 7.504785805857357 9.069523842505264 -0.5279220410036715 0.29987984588563193 0.3135419167537568
Ni 4.603672509308564 0.7097913740825719 10.742167882910975 0.27270688501526585 -0.10238338476493335 -1.5498635567262986
Ni 8.449571269453028 7.61650920695319 5.067349982604896 0.008263782670688993 -0.12819957449708888 0.3900484337519282
Ni 7.188607493952639 6.203827661093091 7.113704090194282 0.7571366591632573 -0.8275365490430587 0.6903645958440304
Ni 2.434222507533524 5.598034326470915 2.4713613005680317 0.16985813057813973 -0.2440591393715861 1.1592996167905325
Ni 3.584051567174075 4.594950911119905 9.72310664458548 0.028173634220738576 0.5005716740151767 -1.078885794318155
Ni 0.9997324378538098 3.8890991997705275 3.9366785518827974 1.5271193210512475 -1.0988136435903333 -1.162195964501721
Ni 0.5917011157420593 0.5051145742231951 0.6880725115527473 -0.2117079767343902 -0.922729843817456 -0.15942845060438351
Ni 1.4026195566725617 3.4858860398979945 8.372846564141463 -0.4899576459447562 0.5974323291896678 -0.22221658957519796
Ni 5.10883689535942 3.2414367598252296 5.021592837715429 1.0187937141222647 -0.11315990655514704 0.5791337879907962
Ni 4.309411401574719 7.1646615898915655 6.3711501185546275 -0.6755087617781205 0.2536961482407179 -0.4439001894650613
Ni 8.06055900881187 7.612533317436243 0.5343296639812153 1.7647820699781864 0.6077216269308179 0.8635173380130419
P 0.24552159287186845 5.921965170098886 8.025515935217504 0.8997801769998182 -0.790565114025032 0.06578501681560929
P 8.737456463246254 1.964288668682959 8.152688248245022 0.9881685330372402 -0.4350206275872444 -0.47608114507298005
P 1.9671415279035482 3.6009241917072736 10.718241903580969 -1.749247464677697 0.050220329608132865 -0.32602539393274815
P 3.978479731986382 6.639400395553449 3.8630448968950013 -0.524979927656212 0.5261808899428486 0.15526866279973905
P 7.126369879464103 4.048750635772258 10.514479830011368 -1.5242376286280783 -0.2610834418437245 -1.0200545831125594
P 6.5438250833157445 8.141788514683185 10.400642596083516 -1.1401389847016816 -0.4715295211465557 -0.983187534882881
P 2.7873702522587034 8.912114844417877 5.8575304011757 0.07237758243146244 0.5874348516573238 1.3999654142098534
P 6.888821801696383 4.539741292679552 1.7632454152340593 1.4127445682523927 -1.39753957837718 0.45360404701638657
Ni 2.8481769087889743 1.6567413880075141 0.4667558442457883 1.0082938430322053 0.5327821973094502 1.2578448587562983
Ni 1.7642171987082473 1.1539498562925128 7.22584409930328 -0.5770275402810707 2.284061090594879 -1.064903878216766
Ni 7.289906638023398 0.9344336601381035 9.356582159959316 -1.209069746235124 -0.1664737874869391 0.011464548996173803
Ni 2.79012348782397 1.9363125349293089 9.482336194402883 0.6248996813720012 -1.0743097449116983 0.44683356106177247
Ni 6.620471901042238 2.206464718075191 2.6348265112294125 0.3653172495538353 0.902679095814168 1.2272669859694412
Ni 4.3076996860423655 7.431888460249351 10.299000203236693 -0.1804546751470634 -1.3210526017630344 0.30809117805183067
Ni 7.2859850886820805 6.712859256309634 11.877664721229042 1.3273294359106818 -2.3388222454961594 -1.4338548678684466
Ni 8.041956555354442 3.987146989999409 8.01126612982806 0.012864514667493974 1.4267784206376397 0.9837858305885122
Ni 3.1428002843603533 -0.6986308076777086 12.568919755734537 0.7081566297201288 1.4122941109785354 -0.33102259003702345
Ni -0.28239502471538125 5.303121136629508 10.308929058993938 1.568753451652266 0.5862480304380742 -0.33182220312018335
Ni 8.748777333169226 2.712761191118344 5.8743251381238295 0.5212662262500506 -1.1721898424896393 -0.13172532826216024
Ni 3.7324817569081543 3.0031550896865005 11.724087611193184 1.0166830955371653 -0.3149333977846447 0.433214427616441
Ni 1.1484705552497942 3.967856227650664 12.994656012736222 -0.6085099271600681 -1.4088051239886703 0.3020416294236411
Ni 3.1921683339204523 8.579516742776876 8.212270439484424 1.0245272741719322 0.37954264912459795 0.4500960338631281
Ni 5.861457384534582 8.046955851512427 3.907039608754861 -1.0167594573010554 1.0893558406115433 -0.6148582379755992
Ni 3.3781838117988015 8.77192624798772 3.5462009178388114 0.3508026008774281 -0.8613015613086458 0.7353529876292626
Ni 3.7170853738129117 2.9120628419382935 7.411088852357273 -0.19949960759365643 0.12272595297702736 -0.4706054666703895
Ni 5.220578409847128 4.9058310559006735 11.465673811653033 -0.09916436360700341 -0.7188174518680847 0.754540873411623
Ni 8.004860328790846 -0.1268535173304873 2.7698591306618487 0.22498155391484478 1.4748678199456986 0.311372934126896
Ni 4.897344931806413 0.9023122766534577 1.686058818429638 -0.6290939219590068 -1.713898652864758 -0.40578564198152695
Ni 5.866565361043827 5.779285982285677 0.3839287372109448 -0.2913054739530596 0.44553695373753593 0.17477073738840868
Ni 7.795714049485879 9.128424970210098 11.752599901346384 0.7421766954193153 0.4245544379485979 0.20434613705268032
Ni 0.19247924176956918 4.993164774834454 5.882556769062221 -0.12332733400645213 1.5100042586375155 0.7777705333635251
Ni 7.519484823365345 6.491450210704103 3.0994286731810545 -1.4487690659761177 0.6276147663103191 -0.8078406132760281
P 8.55286288663023 1.9032737081461055 3.809108649903584 0.2600344317539199 0.3154082805385342 -0.8093552501483415
P 2.2090187063298132 3.380112888033676 1.8299334901067132 -1.9127765677140152 1.0264787414713483 -0.5062013614971282
P 5.1047613821871485 1.271261238782325 8.171550628875883 -0.8667612988716363 -0.08299238183283127 1.6847500563252598
P 8.742618779931128 1.901489539046245 12.535728776459568 -0.8227126452918542 1.0101429804258022 1.4349619848896966
P 6.409749756643995 8.059454091907389 1.6362451794293702 -1.9642073726904818 0.21466423114923677 0.5777165959282954
P 2.0963896356401426 3.4991269293599028 5.9137063690726785 -1.1916734051355478 -1.0416778178092898 1.6277597549831448
P 6.903557045988125 4.208981700314044 6.002822445767133 0.06601281655569921 0.20360283112875258 -0.1993520262721986
P 2.447789438049215 8.777604796341084 10.565447292074184 -0.05823960036818357 0.27423180630022453 -1.266318186334632
