# total energy = -340861.33222859656 ev
CRYSTAL
PRIMVEC
9.31972836163743 0.00000000000000 0.00000000000000

0.00000000000000 9.31972836163743 0.00000000000000

0.00000000000000 0.00000000000000 13.64036450983570

PRIMCOORD
 96 1
Ni 8.755884674325845 1.4864686938807339 13.591804980637939 -0.07441929545183958 0.6147435667746057 -0.13952451259160487
Ni 4.910052220590953 7.172695840849419 2.6643723696610744 -0.06407703298556706 0.5185177169706361 -1.1005997889564787
Ni 0.3514245842954862 0.928406163243981 8.532498244378159 -1.4615824156907022 0.5495393621631309 -0.1792927936284783
Ni 9.348805784470189 7.120989988616146 9.019486663569097 -1.9653373725298668 1.3870111680420305 0.5437916610460765
Ni 6.431563092625455 3.6575180250713184 2.879412982976659 0.632423243442556 0.24885758920149398 -0.534087289274119
Ni 2.5236798883193416 7.525540751727521 6.256016691640249 -0.4015438359860375 -0.4023501339374167 0.5445257109986235
Ni 2.438851721948172 4.724850581156995 10.202951421185702 -0.2479972980837277 -1.586794625424693 3.1002940416996605
Ni 7.145333118759136 4.527365539912754 6.853682475427698 1.7649353077265988 -1.3219285766100848 0.5747135474359134
Ni 2.9784267076903426 7.203012916789367 4.003023649966417 -0.9503090389873053 -1.492893567099158 -0.5164572348971814
Ni 3.797491023393511 7.166004275978566 8.178544285840404 -0.32667639725318576 1.4411704276932535 0.023676003460701162
Ni 5.044135150670279 7.338344690451832 5.288450894309431 -1.4952936919002182 -0.6162432912485839 0.2432245592854327
Ni 8.864627263341315 1.4414916854312432 10.960674217636134 1.0323187451918932 -0.32695587616681754 1.8861494520447903
Ni 2.8901875207861196 3.386258015139517 7.611473305894227 0.801578177306084 -0.7524227986273558 0.6341795640120304
Ni 7.563369528622772 9.174154077395292 9.713249097133495 0.11585133734438113 0.2828956526228095 0.4395326565249849
Ni 8.9434162458179 1.2889556934517954 4.202514296726267 -0.6344101919655978 -0.6782269320402319 -1.6646969943291268
Ni 5.612983402790371 7.063999850475111 13.543831679561734 -0.16443824511414906 -0.0832813738281598 0.2803024379743366
Ni 9.332775851910487 8.53087847561137 1.0817352640960047 1.1992990400016055 0.09345471481673583 0.4635477884926597
Ni 5.675817010533111 2.645330300936665 6.642666120762857 -0.820749350917896 -0.7164294112518823 0.012953217726558336
Ni 5.0704820223832305 5.095710526708297 11.951223396760836 0.2563484982619004 0.7159023351038187 0.47132357578333667
Ni 6.696560245185093 8.751765354447132 4.884273852300175 0.2995905967799873 1.7874234615267863 0.21981337945034404
Ni 4.378305806563986 2.7046690105922613 4.001919262170879 1.4997524990025204 0.35193080094460033 -1.71588225895369
Ni 5.771027354155157 1.6894523747820822 10.29121856727462 -1.1626057983456302 0.8413253752970349 -0.260140618314481
Ni 8.367317245133012 8.508688202690061 7.31422243786795 -0.006990572385220219 -0.5760968009366851 -0.5013854281657236
Ni 3.4734440727534794 1.5049310755090888 5.829577614802294 -2.1680138351896083 2.0891632434392924 -0.44091642424638905
P 2.0987468795637407 0.7827788858032003 9.674755823615273 1.5308456208628989 1.9392905548441441 2.24976823085028
P 2.308645798813519 6.575273301968833 1.9382136287880836 -0.8829973011145243 3.6820521546871814 -0.25520795689955406
P 4.989092835729811 0.31823144022302324 5.8891316101800575 2.2950687545592925 -1.903978252696095 -0.09812383815763101
P 4.302471177937068 3.9760756557824752 1.423604331034826 -0.3394043863428155 -0.8173722069155471 2.0689826547263594
P 8.45112024139862 7.921386888669847 4.274140136083441 1.5859114514887913 0.4654583752518113 -0.39496078345188107
P 4.072870353204028 7.214485502243434 11.679698706547235 0.9296957336123279 -0.9226779075335981 0.13893521574703813
P 1.4353033858849393 1.0729430324815725 0.6784333445677697 -2.970907903093638 -0.47798941783928645 1.393802222821935
P 8.368575408444384 2.211841781663735 2.042876040783415 -1.5434208864247485 -2.094130871857213 0.9981690958933777
Ni 8.266822615603203 3.5582908785811136 5.005249516593474 1.0268800906748252 -0.5246932496537285 -0.34042999939385243
Ni 9.157182852284118 4.909716710374587 8.919352707521881 -1.865892244457651 -1.8668738916446297 -0.2027116867730509
Ni 3.3892776070868096 1.408388010749811 11.5244441498424 -0.7061411419519968 -0.6761271120884097 -1.9393113807797502
Ni 4.397653562374417 5.833115383639307 9.922682961944476 0.9723989289078092 0.4530941972595035 -0.6349688926825451
Ni 5.738827693112267 8.56014242226106 7.731440575592782 -0.5963311257056891 -0.1866050110191754 -3.085628983488318
Ni 5.590094150251633 1.709601627220499 12.902201941783654 -1.1522956746688737 2.6629311391324846 1.7722184716515734
Ni 4.525315199701629 8.983491077217156 9.715581825110059 -0.7341394269371356 -0.16327610648524782 0.4870276167821548
Ni 3.306313386362117 5.608966599922212 0.3117477052917529 1.063604185568736 -1.9077593170050824 -0.9635106252792437
Ni 5.297389445657112 1.853507550856758 1.7895881947749446 -0.2976437574662616 -0.6562280591716376 -0.39660243282036217
Ni 3.391644818057835 3.4495389698374117 12.303253763391428 -0.19228226390961078 0.9850770385961097 0.8263980645632413
Ni 6.273314107239555 7.24338597949206 9.357698669149531 0.05933926119026556 -2.0141898752561955 1.8912201816994783
Ni 3.337953863711064 7.844816001512571 0.42112403582702496 0.3121810318504882 0.3639077708008184 -0.5231143352023829
Ni 4.606499352333936 5.230259443199242 3.880874631888661 -0.28539065113052137 -0.2836836957417437 0.11090376353111867
Ni 5.264835634941391 5.812145995116441 7.156826207615313 1.5837190718231628 -0.1671042219820864 0.6579938928228086
Ni 1.6652304011061134 3.8045553773936587 0.5154601889408739 -0.9490759379111524 0.5905322596357249 -1.9893995556853934
Ni 2.9646521493628777 3.875758101089082 5.23286617118584 -2.0030307733155825 0.7365575494603251 -0.23939824356080705
Ni 6.752720927513447 5.139895358258035 1.1680489951474162 0.41485032328695653 1.0645333822512246 -0.8007315130350726
Ni 7.839606273430668 1.3494500494082073 6.443353480812245 0.09020329775897368 0.8786624211845965 0.46529176776695996
Ni 9.03985679356662 4.100391510674261 2.0403802175627823 0.6211031904440465 1.3515080900394143 1.0268227550743285
Ni 1.0215260918235036 4.4436464212012385 6.735748770429451 -0.468942991366302 -1.2526088071683397 -1.02105937022799
Ni 1.8605905443133708 5.824848784697181 8.535485217276639 1.0202299323481592 1.1216882341956618 -2.663021641963762
Ni 1.012122486037027 1.8498355779331983 5.919304230332405 0.3705088210571038 1.0783651459279944 1.3074021008591354
Ni 2.5176220649682914 4.742353030777415 2.6524505733062074 -0.4452926989372137 -2.2520958505421924 1.5976261688225584
Ni 3.1474399791846475 0.5837160145692163 7.854135729744956 0.07698242819332549 -0.9142757995128319 0.15918625268659037
P 1.194528207001269 9.181535302155341 6.940926315356703 0.1620769439708241 -0.9420115748652034 -1.680743506269028
P 2.5525710458397355 1.7360696554004729 3.8225349970995763 -1.6584206744021115 -1.390433306349702 0.4956685802866045
P 3.3248037271751687 5.445498566726177 6.634373426581681 -1.763071772155299 0.5387312158040335 0.06077342253363082
P 4.144725457875717 3.6336781602528774 9.34145345086766 -0.8496981727417624 -0.579627439797763 1.0201648834381787
P 0.7947444848807597 4.385314242194739 4.270006836612377 0.5537809110483043 0.9276499068268927 0.2212873928927092
P 0.4126402872170848 8.272106901510965 11.161514361044034 -0.8236225587006331 -0.993679178442824 -0.19694161705849308
P 6.332839211459799 4.556005064770874 4.828771142785029 0.29601084984852893 0.4337877836214078 0.8495487916480916
P 6.918975559450965 0.734083305788988 11.810550486848392 3.16397178236428 -2.2213922508107484 -0.5688907701065493
Ni 8.779118756809181 4.334186213111875 13.350437999011511 0.4264192590714785 0.5708406947440685 -0.6149605678814184
Ni 0.28346419405211043 6.376147988555693 6.012494988846494 1.2324978953510775 1.771299045161098 -0.9655199423997888
Ni 2.123705111770068 6.608982758985371 11.864170611260596 1.2575496961133825 0.40931602373228865 -2.4032319792307963
Ni 1.9381866015762097 8.038824784126133 9.566696370679237 1.6144478683655872 -0.20835037311606697 0.3512103778388081
Ni 1.0889450058565777 2.944484257467996 9.720151287862398 -0.09881726468022982 -1.103047993386655 -0.68930401579
Ni 7.294840199063058 0.2913682555659963 2.5107273300219726 -0.13722646058604754 0.23998676907442543 0.23556987095365237
Ni 7.319537478878879 7.507180887109722 11.920287490866256 0.6630301696951356 0.06688184942421385 -1.091700686694636
Ni 4.850899905500005 9.06099393719767 12.115698892578793 0.9483485728268247 -0.7437473823405448 0.45594477933442124
Ni 2.1858676990800774 8.840824677435803 2.298974716826773 -0.6079769374747336 0.5126882547730526 -0.11079217765391888
Ni 1.0375653441114385 6.508394932173238 13.627269342480632 -1.2877370183300403 -0.4893166699266476 2.814653479341862
Ni 6.103778930964237 3.8685819103501453 8.823270037337283 -0.8310669307938204 1.6830279314278305 0.3345439729267206
Ni 7.331960676612649 8.856388623583888 0.203024687705571 -2.276372206591054 0.3852864935869107 -0.6463210844705707
Ni 1.7732274118629923 9.32783639594732 12.61175820325831 -1.9620106221494789 -2.12362888131633 -2.3108177898634334
Ni 3.3676185586747462 0.7769549876307829 0.2602664585088806 4.567357792219908 1.0093523662037067 -0.0005448167598764811
Ni 6.541983232722754 1.899966396095198 4.382539759099958 0.0503339723678617 -1.0981814093229734 0.40589697074841063
Ni 7.4478142182694285 3.6888229922039004 11.52107413611357 -0.8306046464454212 -0.7511141071182613 -0.406189562288165
Ni 2.6595988048604466 2.3268751872360647 1.7823048271613355 1.5573878901278018 0.5868072453756539 2.1081377276592663
Ni 9.321592178031624 5.944868244873837 11.231121547266072 -1.0659665151533255 -0.5585446509855349 -0.02654124082363816
Ni 1.7184274098565677 9.172523124954624 4.716197213493226 -0.43739375580511125 0.11971776227832286 -0.19767335301819502
Ni 9.156222920276182 6.24007995636287 3.186866157498929 3.6986995334358745 -0.173655649947359 -0.20157397362418186
Ni 4.08018633986645 9.22885156239116 3.6514303785899247 1.4453106751138722 1.5694527917121357 0.8463459684400779
Ni 7.445130136538502 6.566596634984483 5.800851416471613 -2.1758803824218784 0.6046715272505844 -1.8879255701086066
Ni 7.774983277867309 2.6029907755769393 9.313313463442796 1.561793218284349 -0.9591387214637933 -0.49529371344568895
Ni 7.042611074181787 6.270508869041607 3.1965241918661498 -2.2884152537985165 -0.16835943454542618 1.1260963905656864
P 5.264220532878053 8.937488898662103 1.4885181021190352 0.24569898896785428 0.3646243372518688 -0.8175092467140437
P 8.971291552960965 3.025612491730908 7.602020305548119 0.2950754825184531 -0.10282484317772614 -0.5630775058588818
P 7.53694809908396 6.428571459862859 7.879710927960267 0.936328151327181 -0.09014133417278669 0.5627247505051535
P 1.245628276899437 3.2580278743901294 11.843273916617942 -0.8174699088356759 0.8792445189403115 0.7319789289507072
P 5.761539870814589 3.8307717729113584 13.472765023898505 1.1659299776228564 -0.9830412391130038 -1.2462772085233567
P 6.426446561825875 1.086093169017468 8.23021379113357 0.6035847219443089 1.8417760681357376 0.42592175060976967
P 8.330793230190295 6.5640057505358795 0.6400099690112923 -1.1352664871007287 0.04641638248101038 0.06750817015430309
P 6.91231195376481 5.59653408246021 10.773473496496331 0.4233966701950708 0.4583762715940493 0.019242136059063636
