# total energy = -340889.1356904056 ev
CRYSTAL
PRIMVEC
9.11058054923495 0.00000000000000 0.00000000000000

0.00000000000000 9.11058054923495 0.00000000000000

0.00000000000000 0.00000000000000 13.33425554540054

PRIMCOORD
 96 1
Ni 6.305523846304683 2.3700446235791897 11.063644754321317 -0.6667811520971355 0.25646188391131314 1.731565731127218
Ni 4.923084366397916 0.5280692870848295 5.62870884512605 -1.1476975137752297 -0.5564299186353772 1.008818605187424
Ni 2.969229279665312 1.669650529096571 4.434813739020644 -2.042011525454154 -0.15547460816295805 1.5930645175938047
Ni 3.589131395731058 4.465678563523268 4.984465080171317 0.0472537907806412 -0.02369811494788822 -1.828812308886218
Ni 3.793080850042333 2.691557008223382 2.36995078460039 0.017654994077601852 -0.2939349411561067 0.06401121274463815
Ni 5.173935088948021 4.547646455975628 2.4271142106760917 1.192398199116714 0.863101847742178 0.5021742426156061
Ni 4.939282978466416 4.69900052925684 11.256178651308728 0.527439444940298 0.39068683866687554 0.11978615362241307
Ni 5.572741638265531 7.669897045147426 12.276955418457758 0.12516592987708766 1.1084573373276845 0.2762087275209372
Ni 1.7796516776427311 6.7402443038190585 0.2688149651129108 1.8856195476832491 -0.38161110161785244 1.135107335815045
Ni 2.943619437975462 1.7078420824099307 0.1335301336575822 -0.5109123938195523 -0.1922825210199269 0.8118188811974858
Ni 8.104763271949256 0.13653115886307376 6.87418168042347 -0.4812750305690937 -0.7334776249834207 -0.1130416358097279
Ni 8.75247999017762 2.014057802451754 1.2230963386149434 -1.1438603994173269 2.315776162309973 -2.493603684246834
Ni 7.0564269988906565 1.1505296541454204 4.760516079621137 0.18486514550993324 -0.3088069731719327 0.5349727772028658
Ni 1.0217971521612197 7.585186867974807 2.6996535810834925 -0.3940007335314569 -0.4862665702464141 -0.41559645742436163
Ni 7.672329570131841 4.006004226112592 3.83586504696859 -0.14685292793221805 -0.07083723452753607 -0.29850867656971813
Ni 7.845722137560242 3.806509845649178 12.841754921749205 -0.12193893829935774 -0.39683537476677466 -1.337557027175961
Ni 8.172218009719321 7.521276146006006 9.181274926156924 -0.04647088986802964 -0.9750263392283273 -1.178607573090525
Ni 6.932104017851987 0.5356347131037735 -0.008041909377314508 -0.9794123841111649 0.5497219104875822 -0.8891136984249074
Ni 1.8767613548295388 6.710170277700881 9.156260005371502 0.38366078505802953 -0.10769836921994355 -0.9796358129758806
Ni 0.39965292224279797 4.7686144745973404 1.2671851706639272 -0.4469765143975399 -0.2198077230233892 1.571624602552474
Ni 6.370764713021517 2.261619605453643 7.0174182265095 1.1492121506475435 -0.6685570130506356 -0.40548122336723075
Ni 3.5154176891808695 4.22116880497748 0.5030051691648907 0.2202296410521562 0.8419005310742146 -1.8442882930346303
Ni 6.2459133183158215 6.211447992413044 4.594650673773724 -0.6222025941558122 -1.431522105970212 -0.6193592111697462
Ni 5.341615322424257 3.2833074306492707 8.83481139479057 -0.047499074022227875 -0.32258062991725733 2.035014268200715
P 0.26131695738941496 5.419365016120872 12.586123877628605 0.49558013433785625 0.0335454400556132 -2.126361192645828
P 3.9221868858256386 6.132131278876281 12.5454679122992 2.0818517973795436 1.9250666979352782 2.053152115452006
P 2.503295973474513 8.600633945551243 1.2573748976181673 0.6296037717158899 -0.14569773128185232 0.1247373269801013
P 6.633969382683481 8.210555332320137 5.571465245942247 -0.07951702168972112 -0.5057879281087935 0.46941633145829476
P 4.9121334486778165 1.362122885467647 12.636047125407998 0.8342003342164794 -0.27149126744060986 -0.9261704940678888
P 4.263405456017732 6.289662325713424 8.112707698115585 -1.1548616356238368 0.6578378268609186 -0.768888914603179
P 4.740690545469133 1.1385036879303359 3.508802496704526 1.7463871124107666 -0.6127113668359254 -0.5983718102848017
P 0.34169778672460294 5.592639146003216 3.6045155219059004 1.5155560416936802 -0.30255559294558215 0.02855390037829276
Ni 0.6060485674091869 0.057885895106653665 4.65297478780079 0.1474198561792816 0.5043717644875572 0.022626479150264257
Ni 2.2041682850352164 6.775274485710725 4.791318041118546 -0.10287369413779059 -0.551834585955211 -0.010234790354130762
Ni 5.975001097579644 5.8811074552973235 9.224478209784616 0.7529748144760838 0.5298909918045842 -0.3481224829421037
Ni 8.569539534420876 2.602391757202903 10.407092595157053 0.9109181958945087 0.9144760884490961 -1.1763838259663288
Ni 2.738877363163647 5.192575336581402 6.983003008799287 0.19005748834415007 1.1760896917646777 1.0606962678933216
Ni 0.36718827981034924 0.2577273886858215 8.999742055082177 0.9605836814404359 0.5983113893605114 0.7166433270349013
Ni 1.6560211007194752 1.3980276830840472 11.226002586689331 -0.3026368398054788 -0.4713359170785108 -0.9832345860707326
Ni 4.221278131943072 7.094718768589143 1.5469865847607551 0.29266044531905727 -1.4567045187731105 -1.3647096763313529
Ni 5.883521759120806 8.171780701856955 7.931255000148938 -0.6177674412025941 0.36397076282826996 0.05360955779533993
Ni 5.425869970573577 2.86145111275285 4.894738617394133 -0.35605485041530294 0.8015316403388648 -0.9302402932618882
Ni 1.0021000771937856 7.754279241423269 6.919892195795397 -1.0136018855086801 -0.5569084009336924 0.3436276803955437
Ni 5.1857059589100585 4.489876265240892 6.863994229346419 0.13691072911784163 1.7368927997670862 -0.21547747107915147
Ni 1.2793897042561448 7.2587365487180575 11.422509607817952 -0.14743374013635252 0.7070736810685953 -0.4971207393520986
Ni 4.586357312375548 0.44714364503777626 10.379877469189099 -0.012656512421745945 0.1785713420814215 -0.5245942621820191
Ni 8.467501033201977 7.0585406535587625 4.967249727322814 1.0775753030368473 0.734897902369715 -0.5658201016010256
Ni 7.260740876420571 6.443795126036758 6.884796417724376 0.17758558112938447 -0.4886461262221843 1.2523221291658562
Ni 2.570085638870562 4.945997476269838 2.4869716353955824 -0.42145497308766766 1.4283573350889853 1.4825219940568468
Ni 2.4552467720969706 5.170782828106795 11.657232780827192 -1.9673428329956697 -1.432495782737391 -1.1696830169073855
Ni 0.9739210518125306 3.2834896422585906 3.4201702146413058 -0.3447350545271095 -0.09851027496277229 1.0458784861541988
Ni 1.2655325113673996 0.9868216337523487 2.237261557519817 2.1503213030058514 -0.39690685143465837 1.6230561788598887
Ni 1.1487804226959537 3.6412165842550266 8.063704618963255 -0.44125503853273046 -0.012874799080139119 0.33982424748905343
Ni 3.6727483032477597 2.6999478528325436 6.8513806306912794 1.6181132330323165 -0.689915938342386 0.4240222195942117
Ni 4.518037069461215 7.146138884739095 5.924543058726897 -0.8480696359994039 -0.1045366836625103 0.48396183337263743
Ni 0.9530213802235883 9.21854084449494 -0.1507145105325008 -0.8697941721606892 -0.44380557286872596 0.04661384320379714
P 0.17857830982963308 6.014331473451249 7.981298507590481 -0.29270132585932174 -1.1995391810368696 -0.27201294427203476
P 8.48806361331368 1.9866622869905732 7.922094311490402 -0.25643411599717125 0.20329944095572086 1.1074597493011056
P 1.731383822334005 3.468370651654584 10.219773594428366 0.672924545990712 -2.3228484957757223 0.6843217320840602
P 4.212067335091973 6.160556289930118 3.5476317906505037 -0.4866964586949812 0.5328282200560371 1.3619912489589252
P 6.899233043530756 4.378790957619282 10.43849494390717 1.329419228560175 -0.9853153798591613 -0.13558738232072778
P 6.3233623628570585 8.094368099637581 10.189971063608075 -0.10576001454665011 -0.3399546024193307 0.5211682672196056
P 2.5428267821163706 8.754538981362929 5.885113377528212 1.0388002391511788 0.2865383915817194 -2.1076839279512987
P 7.28834593523247 4.335415484020784 1.502237235627988 -1.2773567035369806 -0.12936197023630625 0.9451503776045013
Ni 5.6140490100982525 3.1979321811026367 0.44380006200676414 0.005940533854151059 -0.5238576411263107 -1.3333897831721488
Ni 1.2832890326955815 1.2328164169140898 6.9123176591959865 1.2220589594059406 -0.4122632792860706 -0.3129189384577772
Ni 6.918738796308405 0.9540235440748454 9.291402711771562 0.0008132399299147284 -0.36095537304071384 -0.8133846830227088
Ni 2.764122781634858 1.6286711381606238 8.767699214846026 -0.31240034695014585 0.20484930194134396 2.027955047361088
Ni 6.418977904847448 2.1325682331531333 2.372284004257726 0.025933432036310176 -0.2922177013546839 0.7471684922069519
Ni 4.0600299682758125 7.077354002220997 10.406652554120546 -0.3741906407840652 -0.05285776723097994 -0.39154944377748696
Ni 8.533461635775623 7.067186594420971 0.2214117038904059 -1.325180250778163 0.8271125741317626 -0.05805525227151937
Ni 7.800961855730916 4.15114488351601 8.091866334241624 0.0051643178097588475 0.18795098352410855 0.35230026846887713
Ni 3.4332858062801215 8.77008163163788 12.399083660662175 -1.109321485100193 -0.9499164315345768 -0.022105830760103865
Ni 9.525476300393576 5.1409730088221295 10.261842610788044 -1.5591856054581728 -8.767461779984901e-05 -0.11918425837235604
Ni 8.857707194559609 2.5879605977448015 5.818882190714727 -0.7666255724902991 1.3218874389595041 -1.010911997381343
Ni 3.7942834466638415 2.7136319446924353 11.306461767016527 -0.8813584799595208 0.09170713599800981 -0.4596939619642083
Ni 1.1963376527283336 3.2869334416747282 12.676409730046398 -0.4756535706172582 0.08233237965132917 -0.32156041618285913
Ni 3.312843932519956 8.489985945792 7.914800380769343 0.4865753597360846 -0.49852816122258653 0.32093101012897635
Ni 6.265637725024653 8.363148444544722 3.3367910932747664 -1.2785437818665464 0.45230255459614366 -0.3028137317029752
Ni 3.286113489432791 8.361964069084145 3.388087305530382 0.6359855068725176 1.0035303602052912 0.3438984175584271
Ni 3.304708184163842 4.59569565735317 9.3780352214225 0.7733034987311069 0.2567737587247771 -0.6464997761402802
Ni 7.42441245449178 6.436251565410932 11.274633043100602 -0.09869925104512679 -2.3864120794599804 0.2609371460738474
Ni 8.169685268349781 8.90017161011151 1.74721436695168 0.8222868706083452 -0.25156856037475384 1.6641406076050242
Ni 4.801858982717677 0.3215424495597305 1.2930865509286886 -0.18766044886688327 0.1044675209874717 0.6005703605980173
Ni 6.154807513656089 5.705828997712466 -0.017003076323645706 -0.1820122494421704 -0.6544552835419309 1.4391158591570699
Ni 8.375602608041707 8.45052802179387 11.336810932664775 0.09481354283747542 2.8339064140342036 0.6046411882332813
Ni 0.6936504428217053 5.126651176329621 5.843457070463643 -1.1648583418252325 -0.5837067520734592 -0.06686513725366548
Ni 7.7196134827502405 6.464703908206166 2.5956727041092478 -0.05148376970158876 -0.9170939856879172 -0.6079059750274821
P 8.358547601409406 1.6115705786259922 3.2632787305528757 1.7831824268622452 0.048061888504233354 0.6350876776485965
P 1.8677327695877595 3.0652092448743393 1.4431797198734102 -0.4478499181414287 0.013530687496583147 0.024236503949861484
P 4.835085269677082 1.1426307808814218 8.15196336722737 0.0700641038069374 0.24305203826331043 -0.00240243879390554
P 8.511824007168936 1.5132947471395397 12.233739380017415 0.731055131584857 0.020332283799448854 0.1923815084916364
P 6.453033254629254 7.656285837931262 1.1449348466812663 -0.3157034431814498 0.23771211410763576 -0.53553302058171
P 1.9313975058839798 3.186143089979667 5.972599548568812 -1.51317982815202 0.7264148045993682 -1.8934323588594486
P 7.101998122381455 4.471891979401061 5.9572655305865325 0.1720515386850327 -0.7560259425975818 -1.0357593954423259
P 2.290964785134543 8.66028091586197 10.041521443379414 0.6186321031957346 1.1889518924393265 0.2693827057380393
