# total energy = -340890.68032161705 ev
CRYSTAL
PRIMVEC
9.08135214242611 0.00000000000000 0.00000000000000

0.00000000000000 9.08135214242611 0.00000000000000

0.00000000000000 0.00000000000000 13.29147681758715

PRIMCOORD
 96 1
Ni 6.616500442859467 2.033641617297428 11.642509261779233 -0.3254939469093104 -0.32920636276389115 0.2479852138988697
Ni 4.7972604623813755 0.7039201048026684 6.1166047140690925 -0.27805529381137273 -1.3770689692276543 -1.1679709193122854
Ni 2.704299454525096 1.6031855376144022 5.035077456919165 1.2015891215873629 -1.286732488324926 -1.216719035250266
Ni 3.212001513401874 4.485788255187948 4.939910337901648 0.345753725599611 0.18129979675617808 -0.5626645866911794
Ni 4.983046759388872 4.266973081349077 2.8034251348323567 0.2596531371551012 0.7225938881913814 -0.35827705487760225
Ni 7.140567097845713 5.876915144771162 2.5965028994313095 0.3009226853278495 0.2813113388548252 0.138934958636722
Ni 5.165927023790913 5.1262051906151 11.337416704289971 0.32582433366553565 -0.23610234641835467 0.5106763665493463
Ni 5.790769440723205 7.784498516455086 12.42753037965383 -0.7997305825743841 0.7043444550628902 0.17969799948669696
Ni 1.8259692622300983 6.738799008789663 0.46899370457211637 -0.1668638238365062 -1.2568593549145772 -1.1894252325313193
Ni 2.5668895190465335 1.568912515573817 0.1984429771394426 1.3496149867817595 -0.7051556381102758 0.9142698859755609
Ni 0.4475571734309396 9.33862659114865 4.643324282729665 -0.22209600483693365 -0.5175959764873151 0.8922195910437408
Ni 8.678112623984399 2.3956969545295563 1.4361576810751178 0.6761880472333323 -0.020805881001757717 -0.1748434996078731
Ni 6.9334214611881215 0.6455233795960497 4.665933216400106 -0.1542638756843085 0.44291854227808236 0.3657972745140474
Ni 1.0001383652230238 7.650875504715507 2.5569209190746336 -1.0416868166703546 -0.4799977065185668 0.7392034717236043
Ni 7.808718481951176 3.856604952051259 3.8349096023811584 0.029544289316020083 0.21035274825807643 0.3967009060714394
Ni 7.8903235100531095 3.964119077101203 12.740212222919276 -0.5387409859960465 -0.007556472191019243 -0.8781152904318749
Ni 7.749026755964751 8.941008679907267 7.223505268405399 0.8145658478150035 -0.31483698141609645 -0.41043805315187376
Ni 6.913188209172641 0.6720145912003399 0.5915955876555071 0.16715950070005403 0.7314901622397467 -2.1132629647009735
Ni 2.0685321712666727 6.06803219533929 9.434715467383212 -1.8475433096368183 0.138523067910284 -1.5299351932334877
Ni 0.14100615082781315 4.814415136105452 1.258935098901821 0.2827663261337969 0.8283104510946057 0.5801378037752783
Ni 6.433720073328238 2.0923434759276196 6.9836876520457905 0.659987783324386 0.2522470744990172 0.7070484842576146
Ni 3.6480426244985082 4.461468394821047 0.5803283543630445 -0.9900690924940626 0.38897474107177527 -0.41435898547283473
Ni 5.8010949378244625 5.5092021253102885 4.727937962713435 0.20666372944226344 0.16546385816518602 1.0106492306382595
Ni 5.4817582798925235 3.0411994470162544 9.222862057904782 0.7241224090207659 -1.3366651114893109 -0.06491238440266885
P 0.28881241795239104 5.809949255919207 12.39509905577695 0.15565664226677708 -1.1792236094079693 0.240227938550954
P 4.0072554985884254 6.419771116822053 12.708764409452305 -0.3830488625056435 -2.007040408695608 -0.0023530736132088507
P 2.534369197921113 8.655808823737532 1.386567142798217 -0.09432991833283753 0.9822493393393277 -0.2742282067557987
P 6.345167811028887 8.023937440440797 5.918907315919988 -0.4429370542208436 -1.2056293530950075 -0.8408646336105324
P 4.735897767646813 1.171340011091893 12.550795201425338 0.23830758159978957 -0.6028637846178844 1.5606609044521187
P 3.9513325336372005 6.268857211080017 7.9299872225768135 1.4471502994257721 0.2199406490568277 0.5553266582688694
P 4.725726653527721 1.4100070201667794 3.7911946987784124 -0.25225890157355907 -1.8733312172341996 1.854504571446
P 0.19023706756978895 5.803165486055849 3.4568202302484323 -0.08244216575631608 -1.3233321418258304 -0.260372531819629
Ni 1.4562492640010825 1.0010283377084443 2.628044250822767 -0.12111695661869464 0.34446174626106485 -1.0136610208813897
Ni 1.756687628645672 6.682794311671409 4.835585583636192 0.9021227090900656 0.125458521416842 -1.0507391566806097
Ni 6.133944647371767 5.725020453024784 9.176143043096147 -0.09145748188104895 -0.11837384665591873 -0.11317739005664379
Ni 8.780931690106154 2.3605067159478748 10.554535152921142 -0.17456016403949937 0.21178665249112558 -1.243016278383898
Ni 2.3846540306288273 5.16054178211893 7.159785962854851 -1.0257264366863559 -0.28168157771005037 -1.4862454656550212
Ni 0.5224946729737326 -0.2628860664357862 9.04110152419103 0.4061692505731908 0.9274167077701642 -0.0666854171426916
Ni 1.2936204143183054 0.8530776770887829 11.367681217605407 0.8953617362171483 -0.7244114010160944 0.3349607487491651
Ni 3.852554669107406 6.900392584356747 1.7408379451884823 1.315802666218005 0.12412566153803138 -1.1391915331867477
Ni 5.414964936726518 8.031484043863088 7.9861699141921525 0.13255039526661688 -0.03659785372869181 0.3701334399955561
Ni 5.196985247261714 3.1686653021730256 5.064252208007556 0.2596847617239851 -1.0261483547151231 -0.06641622264170498
Ni 0.5885061117418328 7.274408062030701 6.773270004301494 -0.32627247694654776 1.435029090682206 0.7510521435320743
Ni 4.976135850599023 4.516129051859277 7.2285962742760805 1.109002411197877 0.29041947180368044 -1.1616488337489994
Ni 8.060380905583582 7.162970792963392 8.956846557606996 -0.692779118822794 -0.3381656288397079 0.21140612922325527
Ni 4.5610090929097735 0.5172093261725613 10.498724796733379 -0.5263043028945903 -0.8727213731098131 -0.28222588024929457
Ni 8.235959763064416 7.345769325198405 4.4897813256148815 -0.9124390034144093 0.16718521173166692 0.6291283747413682
Ni 7.2471095182432075 6.08533217069364 6.825970905601421 -0.24686009915549095 0.9386781396165964 0.24406351024696032
Ni 2.275523424942099 5.225001217848678 2.655915827914648 -0.4952716019585019 0.5420937045183631 0.3290032456141495
Ni 2.4274453607441524 5.160369236432981 11.57916229165626 -0.04856351073100024 -0.2933893530652818 0.5246269151921675
Ni 1.2856379060051961 3.044632198031448 3.769223276010794 -0.9495073690216164 1.2797455154841315 0.10684167764660309
Ni 3.5526702669282315 2.423031823724618 2.399390340344052 -0.004004493173702781 -0.1465377106846444 -0.226599549134242
Ni 1.3754433948656486 3.4499874210848565 8.497918623472025 -0.5035322993053973 -0.37654217173537735 0.06322548361854917
Ni 3.6480971126098605 2.524561337877703 7.1535652368088 -0.8492340886211505 1.2286895773485806 0.15766261695321232
Ni 3.991208749795179 7.224033803085516 5.880906398927717 0.40116845492448977 0.15027120958514764 -0.048001467579943134
Ni 0.5739968358239094 7.283643796904912 10.830440245429369 -0.35488345581502106 -0.2080194721392095 1.1570843543067686
P 0.2793569143623918 5.564598371851775 7.970978628747136 -0.33304270579084577 -0.7597915802876012 1.0477085973844023
P 8.474862887288497 1.5640449109596797 8.330937989962578 0.7258648456331692 1.647648266376956 -0.38188903786958744
P 2.3578822052510726 3.08718741299758 10.503628726755084 -1.173453025472779 0.029432960549136408 0.37754644463017556
P 3.923189424123747 6.308016000438523 3.7525826068038066 -0.06964655665354456 -1.1238232782607935 1.4618346409108245
P 7.037439265759627 3.86645821885413 10.447552286956883 0.14286874647348943 1.2713220673071266 0.6190532498935531
P 6.201655207078869 7.972319036286402 10.24019233039464 0.9699108723786328 -1.9742925248406256 0.23501914065650492
P 2.162660383627739 8.692960634327896 5.802753192679949 0.8082558464365759 -0.5217189975167531 0.8765767423001612
P 6.997899059621655 3.8426378328412905 1.624882703554881 -0.11371166529355901 1.2279668402499433 -0.27560014740266087
Ni 5.331625370413202 2.8018876619570325 0.669592594650731 -0.2528381711157968 -0.4750056526206142 -0.9349466975986221
Ni 1.3262860370739984 1.2559055599106344 7.21741803823216 0.41033135237068047 -1.0241292674025653 -0.8131908218443479
Ni 6.783806188766648 0.7548328879150513 9.44687721383704 0.26790329297903537 0.47067257246289906 -0.4398396462424425
Ni 2.49424778526205 1.2760843238147628 9.195907697353997 1.0865525668347933 0.18989499462435683 0.8567854186058471
Ni 6.38736885327123 2.028964721073024 2.7097464493899457 0.9739133086698066 -0.06792057510137335 -0.3215832990009946
Ni 4.108267375683664 6.81310262997039 10.037045212975118 1.289245998775399 1.8764108846007879 1.1797576275345683
Ni 8.049446957905557 7.095777870314136 0.40003445897985784 0.03994465871373766 -0.69810567324203 0.14978115732260655
Ni 7.655833922848565 3.881415205420331 8.192042345314478 1.0789534143312967 -0.07511195064348998 0.18217371472069918
Ni 3.2299735087962347 8.412483081142026 12.566347016540469 0.38062148401107354 0.7594107999094147 -0.8084239965833239
Ni 0.04398007907799422 4.778598284243218 10.124489550343638 -0.21115236134123633 0.6581977813034986 0.7640889221113744
Ni 8.800738118582709 2.3388476916853422 5.99912108091206 -1.297523665403159 1.2852965272093477 -0.9945934627269775
Ni 4.310282048522248 2.9802999012281877 11.449596827942049 -0.9045436598267325 -0.05788041725655193 0.2296771596183012
Ni 1.1797675056477126 3.113832099448846 12.578773938469546 -0.13689633094013842 1.476337719623006 -0.3871016924187785
Ni 2.801170235157561 8.105914803970304 8.06575979030924 -0.06769714623665761 0.7408230096048983 -0.9379762284535653
Ni 5.693644382237762 7.6839770323620185 3.7635347171856153 -0.08317981525328899 1.108906251939645 -0.6381799434206751
Ni 3.1085013458882145 8.451996043224323 3.598202349044576 1.0002079807002775 0.6939592551738242 0.674278231805129
Ni 3.766499778578369 4.4225820460193015 9.242999047590207 -1.2066598512420508 0.037532963948451493 0.9476078380060583
Ni 7.348357510487639 6.255816389763038 11.476286013017585 0.6181248245420129 -0.5322535784994898 -0.9531902171898422
Ni 0.4229648725072764 8.815667861093235 0.4137118830644697 1.25959603711945 1.649445724597011 -0.07593393232415309
Ni 4.863363622803585 0.1269200659080591 1.4459264913053926 -1.627401600312778 0.5280274562332842 0.4563124470864851
Ni 5.987407953241697 5.436487740710669 0.44624673435291723 -0.40204031600648177 0.31506786647998 -0.4539465179574699
Ni 8.043017360765987 8.832023375850811 11.761959915756083 -0.7189406077095102 -0.34842818710798057 -1.2196302953597897
Ni 0.15830885058773025 5.138156249705034 5.655231171869593 -0.3694631534014089 -1.624908401577279 -0.05896208035650491
Ni 7.965853113739264 8.821470844952252 2.3195089528312285 -0.023625609838739955 -0.34486669500896733 1.8936100220878933
P 8.501789095648416 1.7834322099677502 3.521071703019854 -0.17601952219384523 -0.9654075851916405 0.6896526573786703
P 1.8563736283646715 3.3970068141466543 1.6308246320978472 -0.7084417650607153 -0.5906800980674989 -1.8712421959156544
P 4.73246501663162 1.13942814054324 8.311811754742738 0.04087848338191669 -0.3966075750266847 0.5154290507429833
P 8.674380188356768 1.5875474496562973 12.669834470161478 -0.5131695652848453 -0.0388290570520557 -0.251948826532308
P 6.169779661937785 7.47573255212549 1.3422792058910822 0.3586372664304985 0.5315964045314651 1.4013571523510575
P 1.768865721532907 3.221573258296091 5.97382769962233 -0.7751912026721229 0.9925018703052713 1.6195083136076303
P 6.981525382160294 4.088497272614678 6.066881588054568 0.19459934207856164 -0.5991991912821034 -0.8672361816255258
P 2.4208613806224184 8.239401595431502 10.279561807117043 -0.14702981982971453 1.195719293070147 0.09077588243299205
