# total energy = -340868.3429996043 ev
CRYSTAL
PRIMVEC
9.27156748601897 0.00000000000000 0.00000000000000
0.00000000000000 9.27156748601897 0.00000000000000
0.00000000000000 0.00000000000000 13.56987620019096
PRIMCOORD
 96 1
Ni 0.011223232199068314 6.946953577824793 10.603812696076613 1.3446478725844713 -0.0905892203434827 0.010120890484085796
Ni 4.440227745552589 6.616746708952576 10.957675041720991 -0.1960234761195979 -1.0034437140287558 0.001493039605758719
Ni 6.609014221836489 6.823103982025409 1.2532229154700913 0.5558390791289137 -1.299454820987601 0.3511479000319888
Ni 8.073977482345361 7.447812914153475 5.373711391615765 0.7257632870582985 2.2842248698662533 -0.18491091114620412
Ni 8.170948804584151 0.3512449821996893 6.255468963793273 0.7382956151973542 0.43112566340821235 0.1719306968364523
Ni 5.600990883425002 3.7444986080177785 10.996824234583913 0.5463753626128526 -1.0160436621809534 -0.5443380204678496
Ni 6.517531667430701 3.4677145098444733 8.681667525564206 -1.4521621508180669 0.9160354625164159 1.2277675797549434
Ni 3.003394420187851 1.0574037057739307 4.979506602398825 3.157155787883711 0.5674630365210872 2.8035869371150555
Ni 7.477073980506435 5.801034219176426 3.8010310623842383 0.6979228678072625 -0.5638807184864676 -1.2353155673055305
Ni 4.583992667881175 1.0764011471418704 7.098266483080484 -2.205584594354531 0.3897645839629223 -1.0030156253524016
Ni 4.7694240135906885 0.8812977024401485 3.4226074078439055 0.6701806646969877 0.03271085996945979 -0.09804773350405695
Ni 1.4502400116595355 1.149757787504554 7.286113999224593 -0.254524043458652 -0.8450994976274865 -1.2546302084737424
Ni 7.89651041293407 7.638714484561419 8.615310918502058 0.4160831672527931 -0.5728266148258456 -0.283322455747583
Ni 3.0583933573252926 6.518412466322821 6.100745048933255 0.4738046903339776 -0.7787352112696395 -0.3683712058888108
Ni 1.2397568911446664 5.49832681887293 12.373283895255819 0.07194460865910189 -0.004873783152533542 -2.1518544518209266
Ni 6.499609727867877 2.240186815949349 6.691088916917706 1.8204932474975615 -1.0450122814991616 0.6287828184764913
Ni 8.84854275650857 3.765489436352096 3.885951201465367 0.1766892945673602 -0.5041984721344865 0.0602309197665995
Ni 3.3796995216034524 0.3574866012962716 9.01358685291405 -0.3789893477242892 0.28022093400412385 0.5492750527581508
Ni 6.847432574582497 2.378360983204793 0.5657222939011413 0.02282136876988973 -1.6681003635837206 -0.8730584447342576
Ni 0.5776121517880353 2.1007239008412237 9.204799947982787 -0.9121050171137581 -0.19494695522596747 2.0801425279979204
Ni 5.330149859881686 0.1481614995353585 1.0765550551588092 -0.07585011436109518 0.5935144821925004 0.37670517967580286
Ni 0.17965145066374813 9.195744408215063 3.2461991514166164 -0.3688854265210679 0.19809552815727818 -0.7599479033598073
Ni 1.6424025152183044 0.46738712411465755 11.511217277679203 0.5848382945747411 -0.21010103725858653 -1.0709747670011942
Ni 9.429554792020188 1.6028963670148926 13.326690285102025 -0.08638700933667703 1.1061333171801984 -1.4537930015532703
P 1.9042964763311359 5.346532719275122 7.7194271864083985 0.9102440526456195 -0.971440935869914 -0.9206868452454983
P 0.33197124812664247 6.485025552527823 3.985119885150815 0.2132007592298328 0.24447411542181766 0.4107388722217442
P 8.18811974719685 5.334043918141587 1.4582052151144875 -0.4821378927900212 -1.2229894416400098 0.2862799957140102
P 6.069761325378653 6.77313950592398 5.330531848453848 -0.9019098217483112 0.24407096644612805 0.39875933126236485
P 2.0203950418798624 4.346751804180423 2.389098385278103 0.9801271507900025 2.1598654950508607 0.3974012745725737
P 5.240030225866863 2.38609347032088 1.9484309909234574 -1.2988084456528537 0.14694445920475982 -0.6910053147518228
P 4.320318565849531 2.516358990681813 8.77677897140553 1.1323521416674112 0.5730433588223421 0.9642549596444361
P 8.626460905319572 2.5098596220146945 5.762922514692749 -0.9541248131889696 0.8248682581822762 0.3167244282467965
Ni 2.241466292234745 6.887300313910042 2.7314259740626214 -1.487979417626992 -0.11143701032676936 0.12705594781094895
Ni 0.03490930514327304 8.635407967750055 12.64924096962726 0.09322871484885879 -1.304050410778083 -1.0341604263863222
Ni 7.101482789771816 7.04895008953231 11.086466382883533 -2.724916579696346 -0.8486627894987125 -0.2362841234118576
Ni 4.890455052935288 7.878217610679826 7.175099034018492 -2.3340559344557676 -1.1581243655355087 -0.2842107718898073
Ni 7.681539853853032 9.094897570850943 0.44601708867836465 -1.2862054121768625 0.7591500900488602 0.9472869643315298
Ni 2.9792698021110433 2.4540169722542746 11.116442287074205 -0.5782169326034816 0.5555040643869981 -1.3739635908294532
Ni 6.327019502848747 0.02845814862603906 8.058416083813418 0.868294447686711 0.27988849036536956 0.5328950687382306
Ni 3.567522931672619 4.518201626423439 10.013034918743202 -0.38182090363581334 0.05875844898613106 0.24115970633660405
Ni 6.003590149662212 1.286837909820312 9.956475576831615 -1.2663996903048447 0.6750948141691535 0.5921885642922252
Ni 7.275686267498618 1.6901974445749315 4.010658417238658 -0.17401431883835838 0.4962018270822551 0.6518116752714967
Ni 5.907675786093967 8.952504840480609 5.422142350488175 0.5097402278883222 0.8513555058395275 -1.1926535096606297
Ni 8.179877323880063 3.9999210151653486 12.983982562058802 -0.5257972813511849 -0.8336969122174996 0.6628363085167747
Ni 2.9892552800775007 7.062375318961679 8.712308201129247 0.7380922409372965 -0.2892439634383406 1.4111990781421435
Ni 8.352041056804062 6.3127505607964 13.064343871505663 -0.30260470101596276 1.4493789316459746 0.06326636415881362
Ni 3.645821317398461 3.9527380092495625 5.955845286768927 0.28888555165765734 -1.0326375619838926 -1.6067584701411295
Ni 0.9090641921466911 4.0954737876094605 0.6009486866455774 -1.172355678643542 -0.7483090335692983 0.9063133501326456
Ni 3.6075853739131594 3.293891166376375 3.510459216500702 0.7223439769641042 -1.5051888395267432 0.36885225929028737
Ni 1.2067593831756585 7.378359603617976 7.258241813650995 -2.1693783196373024 0.12309773449414929 0.29740490198257813
Ni 2.705869825996936 5.8690689799172455 0.6655566761176863 -0.03610882990741523 0.35245222066570914 -0.7602793185572971
Ni 1.2746550704071968 8.225864297616022 5.097551269920773 0.48227878924325973 0.1347332618505486 -0.8198895740207622
Ni 1.1245205813534893 4.87403510727271 9.694305323013676 -0.24938672223208663 -0.33279485144609783 -0.05916134085150456
Ni 1.324628818075911 3.505125283841368 6.102088499032921 -1.569381572154568 -0.6123650392401002 1.1803574659020963
Ni 1.7582414768830377 0.3504847136822803 0.9352276278695749 -0.760807166036309 -0.46833646813055474 1.4530952041552976
Ni 4.961753405360596 5.3573897245664135 4.27247542434302 -0.6103747482829488 -0.2890670715408441 1.5272440195545698
P 8.724461371527049 2.5139669263221607 1.505265836342105 -0.04030615581821446 0.2890953536756183 1.4603259175757817
P 4.409631573510518 7.328033536392414 1.5020903245468296 0.2442424590269858 -0.41518790913203335 0.9442636041241739
P 3.3925684569956926 4.856066809873458 12.44307376368378 0.31854348373340624 -0.7014360231668436 -1.5342034815915382
P 1.2149832633578754 7.267276955970692 0.15007885964999487 -0.38743053651310694 0.8088996506681617 0.9156166298114425
P 7.326670616001449 9.101322766979779 2.950308207381403 -0.9651851847681894 -0.6453047273909144 -0.9464492989215829
P 6.515297219714901 0.27609800219418035 11.975007960843826 -0.4822088552372728 0.29881155252211766 0.6016540805804993
P 8.352708609648616 0.4956932190372148 8.431642097733512 0.941488869592514 1.5890546251034632 0.20068334348911246
P 2.3585476439157316 0.4458362931162979 3.181308379142301 0.26414125483344186 -1.492831603512971 -2.403519685674545
Ni 4.216171050531783 8.815359817193851 11.41762544171597 -0.21904950470112597 1.686505605563786 -0.7245960062230746
Ni 8.554708246097274 3.5201730375456948 7.789474804406896 1.0256495607018334 0.4600328333608658 -0.8219408001228361
Ni 1.801966188201341 4.759827941450221 4.439520324968707 0.4236622651516317 2.2580554105597366 -1.1749720332204667
Ni 3.1881767561873815 3.4932947639851006 0.7698803512138587 1.9006656433830944 -1.7448159112689048 -0.8975260908583189
Ni 8.184030986023956 4.8502164509163235 10.822803406732634 -1.3109149991084006 -0.30199457823578957 -0.6029620007586454
Ni 6.600308220155428 3.9004741844613364 2.675409945993963 0.36983544913916305 0.03811197638037307 -0.06500622966805579
Ni 2.3513065498657753 3.141503686472297 8.116794507226416 1.1753679831073047 0.907385757261218 0.8939764258338474
Ni 5.737867031260479 4.453133767213971 0.438245660979679 -0.3271569364340301 -0.26677714979439215 0.6474356576909882
Ni 5.894417444875736 7.431828732153314 3.27217159285342 0.04966240022213383 1.928437414179724 0.14150400491547888
Ni 4.4125150309363015 4.785565812234702 7.794400788105669 0.2592278766922245 0.7138968746380157 1.2363224113034903
Ni 7.849420122691139 2.1788183120867854 11.17540389206946 0.25320583886786074 0.2651676392154272 0.2556291035973726
Ni 4.2203061695411055 5.158375532783679 2.216259682255722 0.7540081408366047 1.017348754145622 -0.6077123709594373
Ni 5.764643317580933 7.686166365928483 13.005843990561225 -0.48068033440788827 0.2579415537806332 -1.5813850243733476
Ni 8.972021489616536 7.373213883774537 1.8323537499794873 0.2545217294658068 -0.4432782396103463 0.015488839664218487
Ni 4.883009984405051 1.8620737589130796 12.281104118990163 0.6066857294671358 -0.9332381995479476 1.2722535779824604
Ni 3.799933308817638 7.814846448283601 4.081031467248875 -0.5534885766188661 0.8857838627207261 0.9827435053669268
Ni 6.698679549054324 4.121554706383504 5.4627981730349875 -0.3037077042721543 0.03879794670380415 -0.6346292499549393
Ni 3.3528490627447147 8.31021701677928 13.559060794507715 -0.2681876569886736 -0.36581784333933776 -0.723205039412819
Ni 6.485776549477946 6.122442370694725 7.286778770598962 -0.2120982701942734 -1.063616783974226 0.8513603909355338
Ni 8.579055381788933 5.4565120504154345 6.089494929189059 1.617388696161466 -1.606399029919182 0.8863155668544801
Ni 1.3871933541183008 2.366103971253394 2.5695508993553156 -0.751687463123228 -0.8676311030710993 -0.412791898096031
Ni 0.9457740356568035 1.4296942185549213 4.803573050216553 -2.838798194908866 1.2737646153103481 0.16362603362549885
Ni 0.9079896174983044 8.903671495588007 9.106526897697115 1.0652003264112622 -0.709664581724223 1.0074201821780007
Ni 8.088784175300265 9.029607194026624 10.54956104726238 0.27455576529854653 1.8251040067966955 0.14690434999544377
P 5.550961506352576 7.3147010226359 9.199683897154662 0.1609826824653808 0.3746650093173225 -0.5578046874957168
P 7.9940102145081315 5.543293920207487 8.757835305127847 0.8637428237602867 -1.9230126436197268 0.1796182952886971
P 2.5854970679296057 1.7132372892793386 13.069079788075085 0.5943760588618473 -0.43588220425659124 0.6034931906717671
P 5.0048291069689155 2.2762161264207075 5.192662715762096 -0.22516178824645094 0.2856999548408241 -0.6350131156569192
P 5.868623944687544 5.377388495201186 12.202751958174064 1.4316527180108052 2.4476506145554877 -1.0026194183552475
P 2.040264010572637 7.563698233654636 10.813467865632887 1.5076923226748873 0.7625210634036222 -0.8374352962140093
P 0.4370848607555374 3.3955075438251887 11.389807031232626 0.41622766325045735 -0.5785761157151132 -0.19725503453385382
P 2.8318055244355524 8.861828912428656 6.597673240732895 0.8489877769382992 -1.119787160518207 1.2167169783677367
