# total energy = -340854.89949704334 ev
CRYSTAL
PRIMVEC
9.43343462464899 0.00000000000000 0.00000000000000
0.00000000000000 9.43343462464899 0.00000000000000
0.00000000000000 0.00000000000000 13.80678511935853
PRIMCOORD
 96 1
Ni 0.7821373874383515 7.6504306049848045 12.74639653300665 -1.279267033185816 0.46214293772533316 -1.0438383157957185
Ni 7.034898993690402 6.495919704628247 2.5851544699288453 0.5020017215934839 0.36783924464474066 0.034907353400146335
Ni 8.771499979486363 0.21938489969998076 7.173978007508573 1.287077016148538 -1.4301635350597885 0.41791250715204803
Ni 6.931640617947436 7.722039807457384 8.964069397833617 1.5327837184258761 0.0016110532408617417 0.5012728138472593
Ni 7.877483943716528 9.313950772501874 4.997821417205817 1.1495186261443686 -0.5546728267349543 -0.9985141379376222
Ni 9.260378297091286 7.841655758893598 2.2950329604619517 -0.6478645176982907 -0.5234020416461309 1.7378315095312715
Ni 5.182417696581944 9.325761432691001 0.9855420488313175 2.8855814738109915 2.2863732836678237 1.3176356056616856
Ni 9.307686971890387 6.644420832980683 10.226257294725942 0.7107920104604468 1.5540703957187945 0.7581910685697006
Ni 2.3736313946710523 8.094924612533937 7.415583362540415 -1.6810119294390664 0.8529871279056793 -0.6867285417533399
Ni 0.31176180856742036 4.719349256195437 8.897492932749936 -0.5739280754201406 -0.9273082072167579 -0.6802604175304929
Ni 5.89511368483163 3.6130337734956304 7.058263724646019 2.632221882974086 1.3419086192764373 4.196514727751837
Ni 6.559302952080921 4.5384820135387685 5.147597945923724 2.0456033565704708 0.5529602149192219 1.3467492351981902
Ni 2.8423787627203834 8.658119528357668 12.638427099996552 0.7034653948920466 1.8304920105814861 -0.5516111570904951
Ni 5.2331884418997445 2.9261382290297013 9.884718849667323 0.17866081647143423 -1.0247383617414738 0.10634211230236523
Ni 3.8382664593387745 4.277987148952047 8.3471539016752 -0.8980606232055501 -0.2538614701739886 0.018236063392052467
Ni 9.063106311568088 2.222498338049633 5.595421012562909 1.2351402180699311 0.1897399571037313 -0.15147037209957137
Ni 1.8438402709636974 2.5163120938408277 9.9408025053833 0.5592085098217789 0.3374963706868252 1.602896416082562
Ni 4.932705247806862 8.031918702467497 10.488117177307368 0.23948926061271658 -0.8093403377500061 -0.260660495373693
Ni 2.7586192964110654 5.254064632793146 12.563567135941563 -0.212327355485944 -1.4654902353855408 2.4970813583827898
Ni 2.134390058363967 4.4513265107533435 10.651879716246041 -0.204233522734216 2.289967685887301 -0.7459346197998509
Ni 3.170983025522364 0.6425593449268863 0.9894814511436015 -1.3323186615951572 1.0962371411124088 -0.5042478373151832
Ni 4.351105700969562 8.55106891188305 8.305084556483958 0.2434446457160388 1.2198172145596153 1.7410001370672403
Ni 6.155523648506451 7.555558552650892 4.689198112348399 0.1832147543907038 -0.14854831335676996 0.730614958723645
Ni 1.4069590451818377 0.3275326246250752 3.4150391868777965 0.379284767477521 -0.10824781396551035 1.1102972187499005
P 8.565615268122373 6.924027836180163 4.46307113689988 -0.7555839699641568 -0.19171353589033432 -0.23673432357539873
P 1.012075470487835 0.8594453277865316 1.434138657112281 -2.1158530940256526 1.3051361876430942 -0.20901397484199488
P 4.557716786802052 7.665042995266721 6.516760991813422 0.009276797316235635 -1.3662885907826985 -2.6429323274130545
P 8.582001144119591 8.892578113294237 11.820527561777862 1.7703765333468284 1.4089254516166185 0.39722772510918686
P 5.891576146835686 2.856415713488292 12.384162075656553 1.1342886965684917 -0.37160025434906974 -2.2092180773420593
P 7.479411868108847 5.493730473659745 0.08101622351139594 0.38647742857121825 0.20687507412212114 0.32736930955515237
P 6.297242137341329 4.56372588467783 9.048593915693525 0.33099173679908805 0.24945279958333166 0.9895751835767795
P 2.370461760626686 0.9775396662127573 8.899176800836004 0.9440473743483097 -3.828936192967651 -2.491084774479723
Ni 6.652382651830223 0.8737049076123189 12.929005187700788 0.048187101228187985 -1.022675308564858 0.7618338075286105
Ni 6.534634520455867 8.977809195409867 6.967304661007354 -1.1741983882792357 -0.06236622094204744 0.049006511805689795
Ni 6.631666829325969 7.726841425697213 0.2525207822721297 0.08569795368945242 -2.328156281141881 0.5075897572042226
Ni 0.29035640198982454 5.4743070317033435 12.498467946724988 -0.41983389254447695 -0.6988613204611319 -0.8329489783078816
Ni 1.5270938355241244 3.2832880651002925 2.146154494723281 0.1093184213218698 -1.3416209128326892 -2.6104724071121366
Ni 3.0098222278617723 5.67910689808191 6.3940461570927605 -1.3026075076839696 0.989606036814715 1.3575044168321653
Ni 2.6423427808430224 4.502616094977216 3.605697391363774 0.7950462897248373 0.7753074165350131 1.1315365877446513
Ni 0.7865843085351205 7.032597235634373 5.942495940421049 -0.8828913716642796 0.7519831399867759 0.518351623706417
Ni 2.7922872246978043 8.111838760871882 4.911239467247468 0.6462231254401257 0.24304509628477497 0.34240460662172
Ni 4.9137346107139415 2.3951773594250203 0.34173843387332414 -0.2064935224129863 -0.7515409102430347 0.8284642030636507
Ni 1.3541412445437173 3.042178908731348 13.29641765733348 0.591374295921046 2.2870553973365126 -0.2469850547691295
Ni 7.663694014110934 5.240527654061998 10.928056722604655 -1.1585755941403142 -1.0001038510222453 -0.604832735418797
Ni 4.444468403758538 2.8940362508958337 5.778691894369888 -2.345670892986876 2.159933372174319 -1.3474940837840148
Ni 4.549368197131622 0.9055493529800815 11.147073718353056 0.4095286539637269 -1.215179458677288 -0.25167911781068913
Ni 4.196463406656165 6.846654805132858 12.37758980173182 1.2016395152093242 -0.5133505709473998 0.12735959509429678
Ni 3.803749521933009 2.427317071297511 2.333346855316698 -0.40316594497049274 1.4987248290689545 -0.8390928864220905
Ni 4.575413910216432 0.5956723446569006 5.668154680446466 0.26521674728580774 -2.283080986069797 -0.5144240065172366
Ni 4.418837761798586 5.770281044030729 4.786619078726323 1.3610833924326753 0.5176134599888118 -1.6771578458002985
Ni 2.045244100866157 1.3198695764390036 6.400493909680035 3.587781371727053 1.2594769950430824 -0.27447528976959823
Ni 8.326383365249944 9.192023629574974 0.6006956486111423 1.0228162050180967 1.1713665752573956 -0.2887955630470123
Ni 4.212321010312654 1.66988773590977 7.718365484658929 -1.1521403800379317 0.5683307838380213 1.1868330463241108
Ni 7.467431406095914 6.575217156345346 6.757289048607566 0.7571844816820573 -0.30105818246444926 -0.4644772422854646
Ni 8.513382340432916 4.886811588206137 3.525686771986692 -0.8676444728075379 0.628104304352228 -0.734617909235451
Ni 9.208522706788061 0.873429451320368 9.66617163896478 -0.24513257494142301 -1.1793637345302592 -0.5008447251709051
P 3.7040381176206436 1.8643674247748334 4.223260964483047 -0.8363716308361854 -1.4692106216599212 -0.3274909227346811
P 6.754848619062097 9.455320224254486 3.1378131825854534 0.9396762418638075 1.0973954230865681 -0.7389671873430822
P 5.143004806589791 8.703805652395964 12.613091724541327 0.4424107494037284 0.6919746206436277 0.12628821640698895
P 0.8782489930860433 9.409115261310118 5.597256758946938 -1.7501437512397215 -2.6643483311949856 -1.777386131895442
P 0.3829332996719682 3.296721276050227 3.8020024498347453 -0.518775598617713 -1.0481300011925367 0.6544267442968408
P 5.66211728226672 4.5016067174690395 3.3908499737332582 -0.5356461491208064 -0.2057080503972135 -2.4795932289003555
P 2.0972789264278413 6.770423219678911 11.083659340566015 0.08991533420490967 -0.07410947752090462 0.5630355968773529
P 2.3591982396475975 3.6704645236804634 6.465717620234068 0.587773208833349 -0.7406849413651372 0.9602152423574238
Ni 3.219376545306889 6.90358558328093 2.6808774180687163 -0.6360132747866594 -0.7463796777570694 2.2539437023842086
Ni 6.936479969925888 0.12383081004044992 10.437004941655024 -0.4702110594454483 -1.1685311626911294 -0.5099171197858186
Ni 1.6103061626234028 8.84584487800914 10.36576175644709 0.37826661062565176 -0.31254432872717786 -0.4029836537563576
Ni 8.226917230238632 3.5945536750048146 12.693709857110246 -0.14116693329103427 0.9006286410430424 0.6165762491079704
Ni 5.252979787807723 5.4867119982757915 1.4933145927084464 -0.616101880574713 0.2732041363666585 1.9924547975719495
Ni 0.7253679210228943 2.153294661414296 7.909949109084645 -0.8049013281420461 1.8396898750306705 0.21035351958902482
Ni 4.943327295229351 5.295420810324406 10.814150829165627 0.14430702158191278 -0.6756429733631396 -0.79587958425941
Ni 9.011958228864055 2.3635847867625692 0.7135374506209892 -0.34257789897479063 -1.2623106078371358 0.647808981870007
Ni 5.400179102177653 4.6434855746930666 13.331569464891585 0.19748926203184697 0.8167379157656579 -2.3513825986596726
Ni 6.975590990009055 3.490399122969543 1.2662725740983096 -0.0005874970723538269 0.6571354014772554 0.5406549151893075
Ni 1.6845944605382446 8.38628567531461 0.8996345894508617 0.2560901023941912 -1.1106566589718485 0.5189458056469901
Ni 8.422689299651546 1.5921373674762302 2.9551356638183273 0.6533463667484684 -0.042667199851223296 0.10560549124665682
Ni 6.051982269723808 2.276806621363378 3.508400946323307 -0.24336417018709058 0.01657050276417146 0.423151129843168
Ni 0.27344885705613936 1.5715347461878473 11.724997999048435 0.8425271089146199 -0.9397502896348526 2.5670904405820756
Ni 2.1826986772365897 6.333824996936726 8.913274125585712 0.17731458685618495 -0.009250057843358262 0.3882139516463508
Ni 7.4527058145981275 2.098392071717232 11.135227211112236 0.016348102340720233 2.046004191553315 -1.717927828628809
Ni 3.7723739182676423 2.828709715904053 11.960680100459868 -1.095467867046552 2.6753359405547408 -0.30687016116053606
Ni 0.2597920737048611 4.8584358167613315 0.9110631955364276 -1.4597641315350407 -0.23237424683449012 0.3213246460229692
Ni 0.7344928823655008 4.724179174739232 5.380007588853042 -0.12518881269522308 -0.3720208868262561 0.6574639884612676
Ni 4.191473119723219 7.443244079638307 0.891706730966083 -0.5968057513492626 -0.2665130974997281 -1.898639871202317
Ni 5.326843581163051 6.2625365312424455 8.345041755655757 -1.3513851913083048 0.15288370750733027 -0.8945886054965496
Ni 7.05328475783466 7.525984735004793 11.794100737932954 -0.4766624714977468 -1.329729303601426 -0.8299297318655837
Ni 7.727879103509356 1.9623619439798334 8.218695991936055 -1.6975754902247022 1.4829415980927687 1.141827171037382
Ni 6.9074155577512055 1.7801551536020346 6.070816122014219 -1.518450846742972 -0.20235610320584502 -0.9465009780951248
P 5.6698338318152075 0.7107074202242333 8.79925786096121 2.0424141602092116 0.3060381521775439 0.8851662837413852
P 1.3769418561069138 6.450403382413755 1.6754949694692087 -0.1315342952972767 -0.2799717941077952 0.38091870353651813
P 9.36163678468721 7.511061041379233 8.287384603039182 -0.25270627352362285 0.1823542061626214 -1.3170074851593836
P 4.7840154507613075 8.5534084036777 3.2242706112063453 -1.705626899774269 -0.8113321713690544 -0.17005070620492005
P 2.5054070433786615 1.422137441543105 12.852059491243391 0.4726140124599861 -1.8142326112998304 -0.7311767447643859
P 3.5027286220647422 4.252686677205048 0.7187824402896434 -0.5127718156257943 -0.7831924757100447 0.1905197726925493
P 9.282084630234403 3.139786657115458 10.310934634227275 -1.2932083258572566 0.9038787725492239 -0.21209518487047987
P 8.296488810825545 4.043887034532401 6.782514052877317 -0.1927255220946165 -0.18403673607136695 0.22040936116313006
