# total energy = -381176.9472819039 ev
CRYSTAL
PRIMVEC
9.14783638829938 0.00000000000000 0.00000000000000

0.00000000000000 9.14783638829938 0.00000000000000

0.00000000000000 0.00000000000000 13.38878323175303

PRIMCOORD
 96 1
Ni 1.7969094508141417 4.901538667609472 7.408026556492169 0.7114478988768909 -0.8644591331010207 -0.28169340478459226
Ni 5.722200194575757 6.990200056084945 7.299578044399583 0.27194532425889295 0.3466548972576417 -0.38730738067168136
Ni 0.20041994174966674 2.638382304973841 11.625332695595631 -1.0402557406507826 1.932472503481046 0.49102336820510917
Ni 0.04275058258152894 0.18495735434086386 7.729505302438212 -0.11061374309452562 0.5893618934767075 1.114900521849867
Ni 4.6362239763608715 3.7650480982903978 9.947370728399298 0.12085958919224993 0.40955179389217855 0.10606571871252701
Ni 9.145905935549662 3.6502336070356596 9.423319554862442 -2.1808153578296503 -0.4308209876836 0.12836052555498537
Ni 7.533160721684001 3.4687771295813534 13.099157040439483 0.41903865033669124 -0.2877573515904851 0.13276585371153263
Ni 0.9955681537522469 2.0182504937907693 0.5333316532896992 -0.41846478011109217 -1.1154399392931047 -2.7376021455838147
Ni 6.534189572891777 8.404967800447375 11.00679809660068 -3.3995323973465514 -0.8661077244480373 0.44906322172323954
Ni 4.4659004154755255 0.3301655311341148 7.180604946840613 1.3722910882230366 0.6854062233974906 -0.012968130124893796
Ni 1.874473953351703 7.473178360186327 4.459388070935311 0.15445927952456626 0.3695405436065636 0.6101114673192332
Ni 1.5500916842183246 0.9910582705406633 4.035365741117934 -0.579397326064828 1.2096824401184585 0.5081371450672603
Ni 1.114599797462442 7.522732188496973 6.85158929870791 -0.3263015304122703 -1.6342314787504175 0.4186815241075886
Ni 1.6724439924433367 5.262201254830356 3.704770261685757 0.4280030586188306 -0.21338176489238733 0.003109492163259161
Ni 3.744291658113758 6.1929478417727015 0.11966375918670707 0.039783193435208905 0.4148477521837952 -0.08979654923885826
Ni 2.0745645730007265 0.4616876302948094 6.418194095992788 0.23287201240651506 0.04626982960081709 -0.2687985510997951
Ni 5.774287973494129 1.4769455865310577 11.817528732665352 0.3628829290807299 -0.4440932793124739 0.10838279688147787
Ni 8.362375475430877 7.691427434551361 1.1632553082652228 -0.4030548733139252 -1.3340006772832702 0.3307701077065852
Ni 7.25520372090516 3.3618846644143052 2.1409065101752636 0.5207216666004902 0.046988710044712625 0.07947974069388249
Ni 5.788613484872101 5.628974596585396 11.695302664578918 -0.13512844040643823 0.8033152146018487 0.008138055726102114
Ni 2.1028313866392527 7.703539169586121 11.901262535888291 0.5996491343353285 -1.4020534070871338 -1.3135282683615315
Ni 3.5804173216993385 1.5400290644764545 13.200991667010822 0.6350087447815451 -1.2242572526088398 -0.779815845928328
Ni 6.724821329983443 8.6428847224897 2.9292112259697594 -0.6412285004390118 -1.1158808834852654 -0.21553326401775139
Ni 7.73677325824268 7.577216700481135 9.324081998968119 0.4768478480356755 -0.4653604162213663 -3.402788185279688
P 6.911318265144812 3.3106933734365733 4.240629462097891 -0.30963512550018285 0.3589596827669237 1.0176634571725636
Ni 3.209646375555939 6.773405487664418 2.383484254725302 -0.10636165268639103 0.3607733389368948 -0.026916107664553646
P 3.791979327854094 1.976307665139429 10.89929912989828 0.9753266440775656 0.6338900577960696 -0.1659359127055981
Ni 0.24827318732393672 3.49650422088827 4.590183831907364 -0.49003760725307216 -0.3424231185644812 0.3692168417185577
P 0.7429049198700162 4.06712794294134 0.10493482823544785 -1.3216964059946206 1.7936822979523046 -0.4599418163089563
P 5.764207058080001 8.569171458962437 8.835873876951803 -0.5646836740037372 -0.11232352669678075 0.3337901254798316
P 7.821582846994388 0.11229334761759363 12.604334118118308 -1.9654199049413443 0.9996497942039623 1.0767062701683328
Ni 5.104483412130736 3.6373351580938076 12.40780017715623 -0.6212970516224074 -1.2060515282340907 0.5024506362054444
Ni 2.5074859178043676 1.2599772092240789 1.961657405578879 2.4645075382118264 0.9207585790236982 0.38471545157478904
Ni 7.747695774580674 1.330195999350075 3.963026482577242 -0.26520286332873677 0.10776984588782731 -1.4195379370251424
Ni 3.869607865244558 3.138750645556399 6.848335413396835 -1.603891947226612 -1.020239959650488 -0.4360413555422748
Ni 2.1432282309847968 3.4040927803133862 9.660328096777162 2.1033513620142164 0.6587166299214462 1.0969323674072207
Ni 9.098730544632549 5.433860399790532 2.011021873681655 -0.6801763424571189 -0.6848585784241366 0.14723036587629482
Ni 6.858809685764509 5.403745723253954 3.5300063411434075 0.32860009663845985 0.8156439113705308 0.0816572079611755
Ni 7.970244331926326 5.8129650246474265 13.088391866882908 0.35183515590700054 -0.6286167252122723 -0.23105809912622788
Ni 1.8684638250149674 1.2885184579464743 11.329387389852778 0.930693835859539 -1.7381192159750192 0.5282722252542386
Ni 4.622209491411286 4.68914420836698 2.5155378431650894 -1.2148886669097463 -0.30588902819418934 0.9966410892846256
Ni 8.759665998512169 7.780902419728846 11.374347174859453 0.7524886188682847 -1.3482908686536972 0.25957780383247553
Ni 7.195212211571357 7.381782329421759 5.197672418776581 0.17880299847625336 -0.5246587968713674 0.7842337724903655
Ni 1.1132733612237409 2.450421716031835 7.616128851022947 -0.799846539326958 0.6511791838938205 -1.5540757950354331
Ni 3.4707805056935985 8.916450761926635 3.506214648939175 0.6276787867790351 -0.5860307722209456 0.11186047101743317
Ni 1.205346331861853 8.32200607459372 9.731449778329086 0.05422507989215177 0.2585154240062322 -0.4898442602953434
Ni 0.12400532221351761 5.739425570006613 5.541375832597963 0.4845578150854235 1.1296540260099575 -1.4450628207691243
Ni 4.618083817317119 6.808990570206122 10.021142538077786 1.2015412990685628 0.09974774691429918 -0.961727308126576
Ni 3.0345202007028824 7.870505474612135 8.241210556335405 0.6390104097417705 -0.3237833919761069 -0.983519721411319
Ni 6.366582919336736 7.552416916735489 -0.12307864641365265 -0.8982588552592854 0.322041983804968 0.7529858702196773
Ni 3.6667271555761975 8.917813789509852 10.323126330449375 0.17605577474841938 1.3166760699618936 -0.8877942082825355
Ni 8.595444044324848 4.088671097025071 6.88338717709222 -0.052184909533671414 -0.4297187557583567 1.573270365686013
Ni 0.8260194145870249 9.083984232792645 2.0134716641969943 -0.4564769976888074 -1.6077259762607212 1.4180086448648095
Ni 0.6861755288998037 8.906022228739607 13.011808012378372 0.7013326648197599 1.2742796072735538 1.7316402931188952
Ni 4.2461602438214685 5.217761066915806 7.856309862507195 -0.16256673912304903 0.45861846951184243 1.4589578335836615
Ni 5.6474074863852755 5.056191985205888 0.7337241515309789 3.080607361904011 0.817125895232696 -1.5678607646346676
P 5.595676473075933 6.817424875117035 2.1874863769603805 -0.31786419827819445 0.16017278496957577 -0.5542902465845552
Ni 7.6499237020342115 2.0789921256871495 8.267212365748398 -0.35796312318160933 0.5223463466881069 0.1452956107474272
P 2.2463883790112242 3.599664368914697 5.509297115644494 -0.7850511261853382 0.9016213439736149 0.009490455988938495
Ni 1.3318883490339348 6.465864384844478 0.44525079833827097 0.045597229013824694 0.08034028892196486 -0.32795294997276425
P 2.742576158482842 8.439848499607148 0.8215049574573768 -0.1722798526457549 -0.7216862887754474 -0.21273616088858843
P 2.563992101573033 6.2647400597128815 9.557502759553055 -1.3875300166599782 -0.9950089529978412 -0.05757137065656537
P 0.7388771276224294 1.4782811706058876 9.558305939565177 -0.8311936861796718 -0.21725076092949036 -1.0211262189101833
Ni 8.762209096956022 7.410762674278345 3.5772283860247787 0.7085294396785153 -0.7799055774286568 -1.4416010874727687
Ni 5.443913871696274 1.5359308338906745 9.289231487667571 0.049919510538262414 -0.40890901810185704 0.1199422195843031
Ni 4.990135460518574 1.6396398520848403 3.3038425589595857 2.129582013575971 0.9149594558434179 -1.9618836096533117
Ni 6.44011322614142 4.669320847475496 6.147888345352221 0.14418720817459685 0.9555121804547995 0.7370794834020661
Ni 6.953709337766473 9.170431284211437 6.8647100400676955 0.5731050652982129 -0.2077471923144293 1.3614531170672681
Ni 7.871923389212125 1.0362119896732733 10.618509959053908 1.0146380400826784 0.9402290290434839 -0.9657575123318917
Ni 8.510607012064753 1.7702069171536698 6.0210160912958814 0.4724155232959348 1.2897977575138109 1.0989542829332557
Ni 3.812040532484932 1.5012239436173516 5.081618395726368 -1.491098165761632 0.6385532675996938 1.8998858277942763
Ni 2.453541128151815 4.383908360251542 1.5185151834683361 0.007692740658567397 0.3958858663693117 -0.28967488032817207
Ni 3.41198736289269 5.622278380538987 5.70565633293651 -0.936876053410851 1.300077027952632 -0.22402793175232386
Ni 3.273608045769717 5.402821791804928 11.413937180058424 -0.1982477374644263 0.32264670726850236 -1.1468547061589605
Ni 0.6077493001988936 3.03551731484094 2.3821322045454396 -0.6597568982605024 0.42631667205534324 1.161328474295103
Ni 6.548972476076197 5.198651237242382 8.98446217919471 0.33000134786136076 -0.057874246608964834 -0.960783713266384
Ni 4.158661191247843 8.45622312627801 12.44678825473791 1.4110342704295054 -0.46173876030837896 0.943346234516227
Ni 6.030216984874404 1.8670093190704609 0.8241267272919405 -1.0432240792504872 0.9403169607716 -0.7198579773174569
Ni 5.58804717774437 0.010276679107288128 5.004365834400804 0.25276103802095823 0.6115998789393016 -0.05385844058135241
Ni 9.158081705437324 9.00901771571571 5.20605458102156 -0.5719388129042537 -1.822633947989648 0.5269558204356602
Ni 7.931759385331737 0.812339740439759 1.3418375356078056 0.4901525355643817 1.2137033883523936 -0.38861761484267265
Ni 6.17657321510184 2.1715956708207416 6.048262006422415 -0.7150908949461169 0.34675439894998344 -0.22340855300077006
Ni 0.6118667412405442 5.447399197261412 11.3225585301825 0.5891785738213079 -0.5817010344973401 0.459319352233609
Ni 2.7493089658737655 3.5762276127522687 12.622690166094705 -1.6771208219147762 -0.050428588964197024 -0.37579835159081726
Ni 2.9387789477770516 3.1392629243796213 3.5522987030061013 -0.6890805869252842 -0.6392978590752023 -0.721775248944828
Ni 0.30337334867957905 5.77890763073926 8.85551519590432 -0.4730732114845917 2.075559793723245 0.002885549077911159
Ni 4.950653399785927 7.117720891722827 4.332958572147614 -0.38107554082935663 -1.7009318082914449 -0.3077746752526764
Ni 4.754102992718816 4.167836470885202 4.651799082154061 0.6068279114719549 -1.2744413296623986 0.5183025156360365
P 7.631271264167236 5.954674154121346 10.767446793853328 1.1687283663036 -0.8387745838507232 0.09892422257173931
Ni 4.868240544100011 9.121664169807884 1.3675173411890582 -0.5301601863055708 -1.350283473603694 0.38436835264801544
P 5.577929670985727 3.2876408263915615 7.921673895999545 2.3765220740397783 0.9269598227384036 1.208571209332151
Ni 2.8898014331425315 1.4369969861558332 8.48046855115424 0.7664394246214219 -0.7746849524596658 1.681055381082492
P 4.082752447049626 2.6607213208007927 1.51870271410898 0.8671608483029001 1.6890612821061042 0.5178674849811469
P 3.597130418306972 8.020255552043421 5.930373842228342 -0.4081693117223551 -1.0771078764821256 -0.9949467323013381
P 7.986573219416543 6.464986192576097 7.07057568866494 -0.5453050123668093 -0.17972705295241947 0.9620643797510207
Ni 7.127371858838894 3.546350779955043 10.696084524211212 -0.48138198846060326 -0.08748178506275256 0.11755597874031368
