# total energy = -381170.6428935229 ev
CRYSTAL
PRIMVEC
9.26196419085217 0.00000000000000 0.00000000000000

0.00000000000000 9.26196419085217 0.00000000000000

0.00000000000000 0.00000000000000 13.55582080699448

PRIMCOORD
 96 1
Ni 6.728502162013463 7.845708082577605 8.390050396416688 1.1323043191486113 -0.00908113636566178 -0.2943771708998479
Ni 5.783281656659982 2.855797026463156 3.4142101164769403 -0.02314404221663111 -0.22006534756015003 -0.6018975640498732
Ni 4.30058936259011 5.168000105803209 13.096346212514268 0.28241691321417817 1.6524755125622703 -1.2768044305779367
Ni 0.9428957523125054 2.5074638108533898 1.339073496941266 0.7215073399954219 -1.310340100441537 1.1861339633745571
Ni 4.873793809601656 3.3402996413096684 0.6995533854939231 -0.16215304862439817 -2.0565246314686645 1.0340074457482258
Ni 5.786495558274398 1.2636746241099115 1.3199910718802221 -0.6423808688759002 1.3673597123596901 0.22775680266713677
Ni 0.9631887161084319 6.0253245698863385 0.2601018912315121 0.5185295440451779 -1.1814267877068751 0.29046857987406105
Ni 4.423282603760644 7.87806938586513 8.503512237762756 -1.1652702325516706 -0.8632203755979134 0.18040171042194092
Ni 0.13663434984494113 6.378325815506669 11.528357710554927 0.05231192202983894 -0.7430832663939847 0.18027238393292824
Ni 5.169759879021477 2.9294666905584545 7.908479193273238 -0.3595451229567485 0.508096521637312 -0.8570435573632401
Ni 6.367470793339245 4.53989073438169 1.7666891270161762 1.3366419715608593 0.5004500608356478 -0.8424402056277686
Ni 1.6317358236928967 4.006271922816877 10.942014240977931 -1.7753752721130005 0.2235677042864537 -3.075828966678761
Ni 7.627922253870432 4.520764778088405 12.249094134614648 -0.871571575776086 1.4235912811589095 -0.6694743826585825
Ni 5.7816422889777 5.499022710123799 10.915282359596004 -1.4617953030324569 0.18426607847335363 0.20520565683949823
Ni 8.603494216256891 5.998770518219098 4.666957475097836 -1.5873954922334854 -0.6249050806886399 0.466761410333951
Ni 6.572864113804085 0.9592986910996281 12.759836820538403 -0.1296576470998541 1.0475476463265057 -1.703266112851576
Ni 2.5647675840187927 3.2842647572542805 8.236110066264724 -0.8173814628869277 -0.27354249354268373 -0.00807686347086351
Ni 1.2485961462186435 1.285560645766586 3.5023497474085583 0.556469513624061 -0.012288073338733675 -2.8983598565225823
Ni 6.801912491108175 1.374299525788846 4.852482029731995 -0.1653569002736765 -1.035513855090423 1.692276703719608
Ni 8.269053947107137 2.121536282122827 11.526596084943797 -0.2376244394898359 1.2909303284563576 -0.27698237246216817
Ni 7.916080487379727 5.984303329972072 9.808558204037727 0.07848189555698741 -0.4601529038784978 -0.41734017958834574
Ni 3.8249411856207804 7.414119069815131 12.069181404153902 1.4415661204697754 -1.9283880489990273 0.48514094128240326
Ni 1.4523964088227352 8.12594733660469 1.3458625167780593 0.24357217243283855 0.6597288732360445 0.8293962279596168
Ni 4.4800213971033385 4.639003014427427 5.796347509707409 -0.4487732012866465 -0.8046275056553691 -0.9795584227707259
P 6.423125936858058 0.744387776113248 7.163126320479234 0.34900668531926987 0.5306173284476475 0.7727874783266369
Ni 5.7043419348741855 8.13177311215359 10.585686097778643 -0.3187877385337284 1.02313476469978 -0.6426217812421127
P 7.975959086622385 3.922562289413142 3.988936304224072 0.5096139867231031 0.00888059031908148 -0.548795542018571
Ni 0.517816974261194 7.294556372580255 6.6786005507219555 0.10807503583307194 -1.145374264958692 -0.8452954156883765
P 6.63024198268394 7.365716044348444 4.260906476518159 0.9559541530882245 0.8473607828578374 0.2602246933878551
P 5.861786066123365 1.7453986496644207 10.840874516945464 0.08523258401725967 -1.8016725152466326 -1.9193143688325336
P 8.209295753400466 8.262311237091877 10.978303543327916 -1.0277311258212107 -0.8743761351044168 -0.22633806794273922
Ni 2.9868167735453905 3.1876532075713464 12.339226940265062 2.1738630948815336 -0.6568978315451526 1.9971727718729089
Ni 0.08961784043496332 7.69343212741155 8.996239476913596 -0.11679107554983112 0.34670863331371254 1.2191721247764489
Ni 3.822551598829658 9.165556520207504 2.255715285230069 0.19868996720816748 -0.9845124243418916 2.1595366509565324
Ni 6.591554757774956 7.255406049455937 12.424099876385716 1.7356458147338627 -0.6852020778064845 1.2428175321095305
Ni 8.06067827413555 2.149933464687095 2.5038683163095383 -0.2124129732212148 -0.4092507177119919 1.018740749397142
Ni 0.5804278529743215 0.3840668001013516 10.867444313952024 1.3596289193743358 -0.8779985623483524 -1.3280884255638934
Ni 4.873552998529683 8.760929085541763 6.320157901071453 1.6848539288929756 0.9802803885384149 0.09863343080419787
Ni 5.131989588578854 8.704579294699949 0.07396882554240408 0.37709444469442155 -0.8374466090679191 1.712680978407573
Ni 3.28039325617409 5.989925342306224 9.998163580145407 -0.05287396518089603 0.08719407861900468 -0.21820206909916615
Ni 3.701840418020754 7.216894801868779 1.0005514801215616 -1.6314274336427195 -1.051129707250809 -0.07667158182112602
Ni 7.553743181738267 8.89138385280129 0.6939952807134869 -1.8862875202845515 -1.2525126479101074 1.455635711188964
Ni 8.489507221534632 7.318396668705637 2.175695618406113 0.0813461044786599 -0.7457055345081803 0.9050614800034156
Ni 4.042717752363646 5.169639473485491 7.864721042906348 0.1564670539832144 0.7644056820208448 1.046390392793611
Ni 6.217297304070804 5.220867398065714 3.8763145230406186 -0.9179074827281481 1.6037435945742058 1.1500017364283743
Ni 9.141197554080946 0.12580248258828391 7.407496765335859 -0.5256031630625077 1.812048202054002 1.0082061684144057
Ni 4.466452619394059 7.194119631638664 4.664029768180495 -0.6400054266651881 -0.605216601120777 -0.7617348200569011
Ni 2.070854813436698 0.38018696325328516 8.245572089000424 0.3847257359874342 0.8184171032402938 0.8220094485772425
Ni 1.1170577291352353 4.086554629427142 3.686451664325212 -2.053203794625548 0.7525837496852522 -0.937881868967546
Ni 4.192066926808791 1.3227659563865022 4.633176312682097 0.43906831529405677 -1.2845416513211942 0.26968789568328394
Ni 4.8047551276596945 0.9135149491388689 9.118824353101742 -0.09581318774658339 -0.26895204595852396 -0.01596037998399832
Ni 2.3413504810131616 2.957215535621255 4.915015107944947 1.9605245245222558 -1.0196249517743086 2.1358153960801927
Ni 3.2070570227938315 1.3161066040500025 0.6855705979801348 -0.7731991119427587 0.7715425501759422 -1.925768351987993
Ni 7.453343488653903 2.9839270406817078 0.4129261546845224 -0.6222591584253605 -1.042408011107095 -0.24233341492973104
Ni 6.493581699338941 3.511562623304408 5.586096288963718 0.46137906297611503 0.8472065166681604 1.0325349749677573
Ni 6.888150640767632 3.508978535262846 9.761302735948638 -1.3149405753280257 0.14800246815562898 -0.17240892202445146
P 2.395532972207214 5.630894557922248 11.940712402041727 0.29567917754072304 1.475111046304756 1.622989073067379
Ni 1.5419132938467557 0.7149745560645381 5.574370642151466 0.26186608564602 -1.3233236571853983 2.0243174506085007
P 6.065401089441324 5.68446575947206 8.773110420997904 -1.2201566001769049 -0.05402993316221018 -1.2355212555584336
Ni 3.6429343250302963 2.258520734218561 2.715393983341829 -1.097385395784239 1.438743820529632 -0.5386731088725885
P 9.141716224082122 0.2495589972612232 1.9273397503083274 0.5150094467070614 0.6768066546539376 0.8732870158052961
P 4.373036447396928 5.405495394554987 1.980383019892659 0.5318704841284582 0.2643346017911706 -0.27925857009085453
P 0.656518594539385 2.085618384541539 7.142860216379797 0.8959235222578893 1.3819751482800198 0.48788790789992104
Ni 6.0332991211543865 6.926828603712309 1.3149997993153548 0.8182908620750745 -0.21139815880345528 0.4894457393053442
Ni 6.279352464925532 6.16064186840687 6.263304259371355 -2.839496249417155 1.8346852227272274 -1.668750081352578
Ni 9.01439200075825 0.44961279530326476 12.897427931296223 0.8196113806587111 -0.15146831521704238 1.4435769802522171
Ni 1.099673022131605 7.195916452714158 4.0820097835418565 0.1773364412330559 0.7071682976649304 0.7193836087841998
Ni 5.424908471741779 3.2236081530098613 12.101471390316267 0.7215021977890993 1.2732172274473104 0.7120395097143027
Ni 7.493771962852542 2.6695667101488283 7.5876679046007585 1.4951445679168638 -0.6750572760629987 -0.4718336826505357
Ni 1.8952664941107402 5.925990002697242 2.5006423741415236 -0.7581234485565589 1.053371194986818 -2.160371745263318
Ni 2.7441255228175674 8.448800888406794 10.40506853183416 -0.20770039823689393 0.31365324552064044 -1.1737623291830817
Ni 0.2202735923199453 3.5434330424836795 13.130723845431355 1.7799790894335987 0.945963617534416 -1.4637282583891114
Ni 7.7100110435205 8.282085530886631 6.245532402259705 -2.4402620354009006 -1.034706014477147 -1.7308406800357352
Ni 2.8091815601076573 4.2139436865011595 1.037265906633224 -1.7571960301008125 -0.507382526289423 0.829612714845797
Ni 7.589735175034009 0.9787025063221136 9.570653536463594 -0.8632710263301907 -1.412695460182012 -0.7157015319469222
Ni 1.6142029252603596 7.822571695739529 12.592924183178509 0.41608779523848344 1.7390142169854632 -0.6166176438688671
Ni 3.331195130396206 5.023698701905202 3.7987474243650707 1.5580813166504006 -0.995716520587827 1.0622157898616416
Ni 2.0508674944628917 5.419768081551575 5.91738656405277 0.6041511359707401 0.2979209223870482 -0.30859151472701696
Ni 0.5246143298658632 2.147469782181519 9.39075469894931 -0.13972840107229484 1.0960628203180736 -0.9488149709402822
Ni 2.68513607214835 1.6015418200531337 10.509936196500064 -0.60204720225386 0.47474545698069204 -0.26092506188898934
Ni 4.214906930789054 3.485823624496157 10.05120777592617 -0.08920313862923346 0.23492143873637605 -0.11790102078455825
Ni 4.063019978123879 0.4134485294714189 12.086898615676143 -0.5022565179167673 2.233357650702741 -1.845987278003608
Ni 7.831629896831458 5.325490546873922 7.268089383377498 1.8722035313876595 -0.6106141179872645 2.6176429567186466
Ni 8.640542073483592 9.14637499212838 4.240342137168047 0.14332023218861123 -0.37864559123162533 -0.9208675937977367
Ni 2.8060417542076945 7.929130595087833 6.5190354296465465 -0.29292989693036003 -0.31493108379179957 -1.3592224279645364
Ni 0.9808605440055691 5.441413292136276 8.163559247457671 0.5622938336153219 0.16663525276546787 0.881242780317263
Ni 6.302711138906969 9.305032440701734 3.077659045661696 0.14724939203968834 -1.9086692304138613 0.5725484214637946
Ni 0.14561938141884725 4.091648709795814 6.227829083683925 0.9195491320966293 0.942694459864841 0.936683992004703
P 1.5262513122041672 1.6731831139652704 12.700516717743437 0.39696804368989697 -0.2108263454603853 -0.031223733900972033
Ni 9.038176725097793 2.3279484186614017 5.054355803760298 -0.8482619545158682 -1.9485177298693666 -1.1170031700151666
P 2.196715646400114 7.496068930000598 8.47381189682054 -0.1237356251884643 -1.8547156590155411 0.7998208282953451
Ni 3.430474125799463 1.643896782827562 6.784362921139885 0.7532072422018641 0.13766560500599517 0.18406578953708946
P 2.621302614146741 8.567965321176482 4.2061682674657055 1.7442428123742542 1.3055066836086355 -0.4381645725328647
P 8.0733764272 5.997973989288724 0.3582935320251651 -1.330054805261645 0.22680215206335133 -0.2605841336098028
P 8.814481763162963 3.976114967034341 10.382986156534184 0.9163280540561703 0.9392715502262211 0.14382725373201682
Ni 8.919994060544612 4.76802217721942 1.9757742664536573 -0.5823918899167776 -0.7010878957988055 -0.05831056281543506
