# total energy = -340862.30783507694 ev
CRYSTAL
PRIMVEC
9.33420521781482 0.00000000000000 0.00000000000000

0.00000000000000 9.33420521781482 0.00000000000000

0.00000000000000 0.00000000000000 13.66155285219493

PRIMCOORD
 96 1
Ni 8.537679889498067 4.534136717362549 11.321027790141198 1.5868481043704479 0.2746390690409722 -1.4309775463206516
Ni 2.334148622434249 4.043670919143662 0.44965198714814547 -1.2809693605889036 -0.712479939685831 -1.079371989925954
Ni 8.02628680381878 7.761186049508863 0.5968430647409444 -1.128293141106689 0.811883415886834 -1.2958228806619683
Ni 1.0875935562102954 6.622450384469158 7.703626674787827 0.8161393629497105 -3.4489312594946537 -0.9987241970658993
Ni 2.4443202432616826 6.339278609408423 -0.10564919853726264 -0.775327214029355 0.13974845567695288 0.18019216551429612
Ni 5.022100948659317 7.803535337291127 3.660339391466923 1.2041576536454874 1.0500904673530174 0.11028747010335845
Ni 0.23270919635046933 6.719666128849208 1.9403095802641221 1.355042328444918 0.3007334521351788 -0.2679287469003321
Ni 8.85579892782898 5.101367016952682 6.30247010567455 0.4786391356081434 -0.5803162383346715 -1.5670171856874497
Ni 6.298142768267483 4.591542077702185 4.859974209752788 1.0965328179759568 0.5069639506947656 -0.8769570084577155
Ni 0.7744533827907901 8.530772577847443 8.603062261373678 0.8843185910291093 3.066100683647403 1.566306018553038
Ni 1.5369048448783764 3.2690719227559133 9.840129108282959 0.17859628178208597 -0.8084052275302465 -0.7282271752177587
Ni 7.644881856040268 0.7197792108146306 3.9526288179064806 -0.20079390092504773 1.49220605411383 -1.290563689145558
Ni 7.4977094468573355 6.5744165658825295 12.205859079688446 -0.3217398791835168 -0.9196306360668419 0.045290239296367156
Ni 4.3792355864948656 3.4933728673024893 5.4207947108152394 -1.8509330520446574 1.449488974861278 0.7934020692531949
Ni 6.528930985242685 1.510386368662945 1.3977813206094063 0.22934985818586953 -1.747261801706236 0.6101284366000976
Ni 2.7982079548969025 7.8469487244357845 9.623292727421521 -0.5220493842729784 0.5899912995305904 -0.6439926934477103
Ni 4.652382425457265 5.805884802701409 10.005652564364707 0.6462799468199901 -0.5220175025937783 -0.8561022764958933
Ni 8.92861506051345 6.542045543173936 9.673417407913204 0.32598528472343213 0.43745417672940146 -0.1445386779767446
Ni 4.597039924407883 2.3733149463342667 13.450959876783795 -1.5566584681609448 0.6523870881589925 0.605904371216421
Ni 2.864266123209683 8.869762898409158 4.212813246478042 0.439486633778398 0.2317013891371816 0.4899067381021628
Ni 1.285581377049972 8.420115578363479 13.835873552196725 -0.7161375910430764 0.8787223278882544 0.14129060335309215
Ni -0.28033044307904703 2.9016029429427794 7.489604556713774 1.1293295527910034 0.9818698445127219 0.8779587102493526
Ni 4.390940679481191 9.089872784940695 11.401658519195804 -1.5957891156138193 -0.2861061891403073 0.3407773554309421
Ni 1.0710720134784004 0.9806889071095076 6.522721872121072 -0.8949755565223233 -0.5799814807030721 -0.17784474832804212
P 0.2553838469743787 4.73182584364436 8.857645233564782 0.27451925563365626 -0.6050520505184548 -1.2113212612734623
P 2.10607665909463 1.1568253542003895 8.431910279717165 0.5269848739013827 -1.6852786751352202 0.6880387759243313
P 8.000729750711475 2.1429000975563963 10.965854758486664 -0.22819286176329084 0.8539911436901616 0.4030702999328929
P 5.678836939354615 5.008622356735669 6.924958898469664 -0.9600252378338046 -0.29505285681063376 -0.7356108692763397
P 8.821859758691597 1.1460723501172576 0.270206564408418 -1.4285316558833203 -1.4610514828878964 0.4819589440099958
P 4.856782845086101 -0.3665532943091797 5.5294177870442445 0.3316638231654482 0.6306255281121849 -0.05594026281104559
P 7.465497105632606 3.1226369157627096 6.094541356580936 0.5306916333290086 -0.003731442017974218 -0.08392055007405547
P 1.6705519911129947 8.403883395984517 2.5169907623491947 1.0180393524547435 -0.6538801277647514 0.16410168771033673
Ni 6.431444548919571 3.5739270558766445 11.700217731089042 -1.5811471973309283 2.2424904662419443 -0.6094936312295761
Ni 5.682598623942725 1.4783607115368815 10.581077362465761 0.5153935695193576 1.0341028336755091 -1.2353587618386404
Ni 5.914329595616187 1.7998867346684404 5.072643801532011 -0.4074206064817887 -1.127847054708206 2.058054694959946
Ni 8.57355123905664 1.0281906760149393 9.2179819473884 0.804081403343912 0.5244945033793612 1.063548392630136
Ni 8.76536915043542 3.1213674638917843 13.065608427159495 -0.33889813613035824 -0.7592020263327183 0.5129559066121424
Ni 5.732172586343343 7.590426104459547 7.02127295865316 -1.3528867155544957 0.20091114322920237 -0.5365974572904824
Ni 2.2619765498901736 5.596789277991136 9.840046967279545 -0.7203770830457207 -0.8739279918234046 -0.9854323650529997
Ni 4.182769241059313 6.15644020317545 5.275681427240588 0.019401030234431103 -0.12767429812123818 1.0288133031417959
Ni 3.52530518237922 6.744709800685182 11.548670380053885 -1.1933734185457898 1.1907619490648718 1.4204635341632055
Ni 7.471489665199768 6.796113267252723 4.230613575285796 -0.20008761888664248 -0.09433197521536657 -0.08851922518833141
Ni 2.4682624789155305 5.556194820736327 3.4180243648196216 -1.2654111011393303 1.6831500588279917 -0.09357658510658079
Ni 7.323029135736045 8.599350981492208 5.679039491601667 0.36331564574277425 -0.8650358315400973 -0.2570303548202735
Ni 1.5193658738087545 6.969122755690957 5.027888155717948 -1.3811536808199891 1.613579349717705 0.3174358524915243
Ni 1.8231662417720258 0.7032119304785625 10.489094373371303 -1.0469902311611388 0.49577091019242364 -0.012547240537391292
Ni 3.783769316981579 8.79005812248393 0.09619551578084264 -0.9421293313899904 -0.2049734862240341 -0.43582692553862357
Ni 0.8761635468462111 6.379406356416569 11.634505861779287 0.9034478556593925 -2.099615806231184 0.8837416354797167
Ni 2.6207367165005624 8.42436264160812 7.073104865227137 0.18022070475938642 -0.1566830266487624 -1.1079657424032467
Ni 9.399077657560332 2.724803767301635 4.414129644796924 -0.9390203534473633 0.16583461124104343 2.147485119108637
Ni 9.118444786241445 9.231920715615258 2.1449321539703696 -0.2979952272684094 0.45461834721351385 -0.26279193989439903
Ni 7.528372310063141 1.069550538074277 7.014428186175589 -0.31297781672017067 0.7077321405882006 -0.4535888775077349
Ni 0.33158362894716165 0.020553919263069514 4.583300908166597 0.9256099935787284 -1.1917446246931154 -0.07066188529193637
Ni 4.135519495687079 5.07174025049447 1.0055832316665494 2.3297285107250074 -0.12023069735899938 0.25204704267306915
Ni 3.5335566195402346 2.0824704548183797 11.091937465043358 -0.6944549638633201 1.3336618058866128 0.98823229639564
Ni 3.538522416564736 7.078108932491866 1.8796652508126406 -1.0582871442311967 2.1441511696393976 -0.14153023016772398
P 9.40346473387897 8.077494252082722 6.50572708519906 0.05018999059082969 0.9301233080680498 -1.4505256436559084
P 4.717031128825122 3.657365513775182 10.175602300425815 0.4493794674120777 -0.5009611961441115 0.36715250299036123
P 2.1232609303767873 3.039329136733239 4.687156072515685 1.6576125766785195 -0.8488090852685898 0.2172484469366452
P 3.440914635577489 1.1900924605825782 1.1564883894022981 -0.989717879802231 1.1757971002249232 0.8561521558972223
P 6.4747272571951635 2.6472365243061278 3.3023931675267155 0.4736126289278294 0.8393134870733288 -1.6628134041531684
P 6.898453490141139 6.914489654216505 10.007606213457242 -1.2504238837018788 -0.17001008277497173 -0.4995141792849397
P 6.449907606277587 0.4248463375379696 8.900105598385752 -0.6738699406231169 0.15800328812208272 -0.8393073164257415
P 7.002968582779009 8.566466577512283 2.618659855902909 -0.36215787798924726 -0.7517843937124086 -0.32532528254193005
Ni 0.9566346609964602 4.101328303016497 2.2964524358112213 0.3174098843495953 0.6090246620129576 1.1894218900972096
Ni 3.8610285312142887 4.46993605583149 12.315861751406588 0.6933406477532188 -0.1293033490842289 -1.1169293793544375
Ni 8.306845001498198 4.524550488896076 1.3630664790420668 -0.029717324558774627 1.6046026001403912 -0.15381496107234802
Ni 6.179738378688902 3.824727808228786 1.3450075927576612 -0.9916516064898341 -0.3694641818426734 0.4994889824739592
Ni 4.509354403264706 1.4375142307488742 2.9993666051524124 -0.1762288099911739 -0.28653762025077106 0.5000394556607904
Ni 8.79969102197507 2.3032430699001782 2.256874473473646 -2.1887495250750626 -0.04616390015057211 -1.4569950534303358
Ni 1.5885976717988484 1.8169869981061983 2.788636661158323 2.4426148519037936 -1.0615347046342167 0.7559616650185497
Ni 4.419129978379679 0.387351769741501 7.7781640348619945 0.516064370334137 0.828062853860174 0.47478762307253713
Ni 4.0344860614893205 4.337969066484861 8.206180268395304 -0.3367237541868588 0.033312240998884565 -0.824839976047502
Ni 6.427160148855197 6.556102855803447 2.0224011123907877 -0.7501604849557404 -1.1446353299101384 -0.6164224971389255
Ni 1.4106503889509114 1.9727282074178765 0.38155522847793777 1.0529083964177866 -0.6389008807470997 -0.4958750398704557
Ni 6.570729554933887 1.7123225581893962 12.74323672506098 2.9530011980165467 -2.7640899074616976 0.503831575713371
Ni 1.975780492431057 4.904153935122467 5.6459777377280105 0.2314414506075756 -1.2350972806471374 1.4723026303216837
Ni 6.647708743018598 8.640057449206216 11.116036515340085 0.4368677080983122 1.3687056848646233 0.4893490658264799
Ni 6.790662091571691 4.881761177487543 9.616967870158735 0.4211127592569005 -0.690795512733862 0.40122964717972837
Ni 3.591774055709065 3.705698026919675 3.040405370562045 0.4519852804660409 -1.7463354332372247 -0.6059779047668338
Ni 2.21526818840407 2.7978625893143714 7.281197896327576 0.6669107356964643 2.635598255645487 -0.8580483444786707
Ni 6.882753357443373 2.8324551527970856 8.634593205638279 -0.7053826665194175 -0.6375273974383409 -0.14719077088761104
Ni 7.320098195386996 6.077743521383016 7.623432786524097 0.8450221074223317 0.09802510779623763 0.7174609378401902
Ni 8.956020286197544 8.175895440489297 11.603972744022053 0.4117763123473231 2.7998434109122234 -0.24121832748868136
Ni 3.6111425309456084 1.4204979751555156 5.8136732632977335 -1.3509982402825313 -0.9685451023793578 -0.6858397113904834
Ni 5.050448929041671 6.958556435706491 13.214683147307829 1.7945680429913677 -0.6316863652765315 0.582170517934591
Ni 7.972465778173522 8.31668325349787 8.203489217113042 -2.204975500015622 -0.9145285389535862 -0.050212616298649
Ni 5.029008260309941 7.960592669498396 9.238393053315992 1.3928488577697302 0.3998841888954275 0.27636556481377567
P 6.335246232877249 5.152098420765026 13.329453730905886 -0.8184885799081775 -0.4126867399767344 0.4771304122731008
P 3.7905272813532696 6.640381392145978 7.583923897303028 -0.7456021761610966 -0.6037832111083602 1.1726580403753095
P 0.11876935699147267 5.7313325078993484 -0.03815822976722442 0.22403333106896256 0.019457337393663263 -0.6843150472158408
P 5.912677441342997 9.066621280451908 13.280518228122704 -0.126218282401002 -0.6547450468682079 -0.2097086869161743
P 1.9067633811544284 8.278609031575044 11.64434224693797 0.673674536782859 0.001580714223558568 1.037707263197316
P 4.605478045667563 5.681338506276733 3.169903462703823 1.2486382525563657 -0.6560084869616637 -0.14892652263179512
P 1.2967450861501677 3.193446194386527 11.95869493357831 1.4768902496923664 -0.06297325839842703 0.7883429095627326
P -0.1205073859500483 5.7412734361532864 3.7180322453185033 0.9183859650264634 -1.783840115050902 1.859391724334972
