# total energy = -340878.4409257854 ev
CRYSTAL
PRIMVEC
9.14253212208638 0.00000000000000 0.00000000000000
0.00000000000000 9.14253212208638 0.00000000000000
0.00000000000000 0.00000000000000 13.38101990197988
PRIMCOORD
 96 1
Ni 5.807948994085216 0.5803825712069414 11.611018618742863 -1.084764621696435 -1.402509777898262 -0.2964492229375282
Ni 8.657456855630839 8.690397399096325 6.1663755686575055 -0.7583535622894939 1.2540041448539694 0.33809826593688225
Ni 5.741382217240307 7.329933754654155 10.45946183474653 0.4766002508012437 0.13925814630409564 -0.5900530060064613
Ni 2.6430054870646527 5.776708961606291 7.366545939045464 0.5445033424011202 1.4061666579245589 1.276933499956633
Ni 4.8536331994656265 2.045221020095234 5.813652105662726 -0.4354253192248307 -1.936007513217498 -1.0658865538450095
Ni 7.2508874213756105 8.565940108450846 13.167472554158756 -0.250822940457981 1.0882584937823063 0.6991623966413184
Ni 3.352895683696518 9.400808720062782 12.679975367200024 0.3747274871241417 -0.6061761368205689 0.3674633493625607
Ni 5.144411435635426 6.309453454605832 0.7902311124679198 1.1481531132554097 0.4743011703544219 -0.3501215156500035
Ni 2.102983538445204 5.770226906286548 3.9857774174740563 1.0041888197248963 0.0821824843370262 -1.3721666468300304
Ni 2.3799748360787976 8.103035418818735 3.0557295602884897 -0.8077570524232863 -0.44896192025868487 0.9140428575664195
Ni -0.011692384412436946 7.688247876080559 4.067763074850339 -1.3078636138765862 -0.38280357926405684 -1.0565367371989933
Ni 8.548039030431022 3.4887171418489635 12.552761603100521 0.535653091099342 0.32908654935657516 -0.46918184684998554
Ni 3.634385107165531 4.332600290196112 -0.018073871878134806 0.14290037104237324 -0.2192729335658417 -0.13464944388749067
Ni 7.072443478172902 5.568158659915698 3.4586190116400473 1.304873935120643 0.45013254352801835 0.47863990693909186
Ni 3.4667933496673826 8.429204397079818 5.194150467739126 0.13564497503154058 -0.0002475972344318316 1.3244940233444156
Ni 1.7922197269172158 7.108273061809105 9.414952217354235 -1.537771915669087 0.3916741422808093 0.7538759861341146
Ni 2.400390110449719 1.8029164895746175 6.22802183468001 -0.11187486919513637 -1.0297219309989942 -0.5821934007527264
Ni 6.074261814125778 4.030951583257379 5.058975386612217 -0.6035494978309993 0.8219289730482942 0.8233698192598788
Ni 6.108061755616732 2.86801234668971 11.202817356191348 0.3990413812791579 1.1611459259706518 -0.9029362061302966
Ni 0.9628549196811398 4.465020726375435 6.521387407458395 0.2758829687504023 -0.4766331609217081 -0.2853153178078957
Ni 5.825155239658916 6.470426018801452 5.4956382661113885 -2.002191822354055 -0.011941745742908466 0.005741016248835274
Ni 5.215906037328487 9.28899555143028 3.9715799792427062 0.4800563276706442 -0.05314495945409558 -1.554266828000317
Ni 8.17939384763465 5.110053799681138 1.0050888471135053 -0.3802417320741516 0.3864812852259602 0.06002394596211597
Ni 0.9742739423812208 2.237296478786991 10.917346359955413 1.7577457319566956 1.2269031748721193 0.205533215382246
P 7.020870454112727 2.049636863140982 5.778405815579978 0.14723987895799157 0.41048459011909305 -1.369128374224339
P 2.3755498505008634 0.10293119861398183 1.2825482423950123 -3.0265609736815686 1.9638882987881663 -1.2585231157702454
P 5.9989182063824895 0.7132226496135936 1.9172731106612106 0.30275279655805276 -0.8521376354211905 0.15903121516596483
P 6.992281755967689 7.924390339907937 4.462516586809741 0.457913730135334 -0.3844573128173959 -1.383784690684933
P 3.568696013410461 6.126237109602129 5.468716251583823 1.0828548062682317 1.0770397422483515 0.40623301393159067
P 3.3711990331325166 5.914075507698139 1.7495679857639583 -1.5670994609886109 -0.6449074919524957 1.1181226283315906
P 3.749635867899897 6.466668438073081 9.541817650977459 1.3670894894174392 -1.2238350774697568 0.324639312218499
P 7.268084524417126 0.3872959484554335 9.832493490786778 -0.07730201631627331 -0.82167289117343 -0.9194601719272487
Ni 7.912962174675671 3.937377766335578 7.250278528732036 1.3260174019674775 0.36401781401612143 -0.2140451095079991
Ni 8.18801525548587 3.297226805217099 9.844978532739724 -0.2951122492936595 -0.21957838062140247 -0.2652753684378851
Ni 3.8531933299686068 2.007023520622905 11.150604354878167 -1.9814054817363231 0.02849296523337028 -2.1550099667307725
Ni 1.878214384656978 2.464780964634403 13.206438026334693 -0.07895369298708338 -0.16733356438407312 0.2975344855819069
Ni 0.580540737013756 6.455980817947866 2.26615579588473 -1.181562799064107 -1.7050756552564894 1.1094744657382893
Ni 8.44169309604564 0.9453012578843777 3.644321211145073 -1.3228585446235217 0.10175037916662477 0.6370674270827867
Ni 0.9035171430355541 4.6726202047187035 9.04389706307368 0.8398374778975988 -0.7545467869488941 0.07489597797794198
Ni 0.9162828607266055 8.824052077120735 12.217914533288662 0.30707996317849695 0.561312186428343 0.1517490796822548
Ni 3.869147048632851 1.9823478262533942 1.287173449427815 -0.4173664048405909 -1.202093057806975 2.192706195729966
Ni 8.073532467455115 6.2482259165574385 5.984835049803462 0.8409294254101968 -0.011439609295509332 1.1781686857808935
Ni 4.789708614422418 6.9897035618912895 3.218898160715141 -0.3606684379279143 -0.7233834739722123 0.4508871623058557
Ni 2.613045409091742 1.5944119005449537 8.648126901535216 -0.1808053736182628 -0.9433930285937624 1.8635360855206486
Ni 5.157256693356494 4.521667855798736 2.728136175512856 -1.436624460193784 -0.10286495238704219 -0.3826976498138119
Ni 0.76077935928454 6.574861163959999 11.643186618238648 -1.4719105370895877 -1.3210425744607055 0.8505360952620256
Ni 5.733611064882366 3.4403257189894525 7.407652592259318 -1.6372828639822317 -0.35423965158343507 1.443008509343257
Ni 8.06991202470953 3.3396207269627163 4.055920752910055 0.7525145870102137 0.49948641137079786 -0.5506359376614194
Ni 5.59639079930549 0.9692821198077667 8.580873520523154 -1.0086016040806112 0.188295768458037 0.07744059877666663
Ni 7.289331769216957 1.9818815571119177 0.7054460117363407 -1.791045888770722 -1.012787874247817 -0.30869718706694577
Ni 4.772575509106203 7.112624907129552 7.664380381556274 -0.6606724680962364 0.4106254865723315 0.11019645305144893
Ni 1.475494984404077 7.291562547070295 5.7428797640123435 -0.045419051564747584 -1.108803922033826 0.8144396066497845
Ni 6.177864988855418 -0.13043010692247184 6.0575876639252915 -0.535151211762259 0.7851747962473961 1.7697142171724811
Ni 5.8286842570826405 4.9927459692049645 9.601898715489751 -0.3386543955506684 -0.9442186098188513 -1.0820274252709299
Ni 1.3407614875817429 4.899153867218791 0.2696461872755105 -0.22892048395793477 -0.5274690126266528 -0.24968265620595065
Ni 7.569568665776513 1.6203675494204786 7.748573960455431 2.5994693711334134 -0.620584341826099 0.6392358954890152
P 4.767766537176465 2.3362826747627943 12.93877759704994 1.537985831452106 0.5465926208299813 -0.9742930606067285
P 9.109555072219319 1.3787761364103555 13.33022608362417 2.111054387085429 -0.12520166821102954 1.6023156038784274
P 7.454445900492749 4.897352788378186 11.216532982976505 -0.3388022339824423 -1.2886495028419807 -2.1277177066737227
P 1.1321654732302209 0.279142535456915 4.708526585625267 1.215813749827177 0.5432157339379484 0.49548448930025624
P 8.725513865222036 7.147933366431165 0.42755326042922637 0.44667569532766943 -0.33071740009177886 -0.6444503498104193
P 0.15278451237000454 7.517072245965572 7.819520010217344 0.16964344346417234 -0.8628131128571657 0.7845965551464229
P 3.617133148930901 2.645117411999576 3.739272807667277 0.834567487747911 -0.22762490507496283 0.5179811277408756
P 2.388422535818489 0.3496204875709145 10.620528567023664 -1.9842992583443504 0.43565723272997875 0.6408405209719736
Ni 0.1312803624157525 2.156138220573524 5.657883470787272 -0.7645746034985413 -0.8514058994614885 1.0195205649859604
Ni 8.097403618992272 1.1915370772448939 11.574180613806563 -0.6157946337469394 0.39220198975982135 -0.9867233159502813
Ni 9.1655713669218 -0.19190815035275646 1.7713656110013751 1.0107831851129623 0.09807447297693432 -1.523523376169873
Ni 5.9379466592352985 2.3460651842016147 3.432338802871926 -0.45642300452242035 -0.6817056346174518 -0.34524747538715383
Ni 7.25160968141829 7.577047257104509 2.219616650046065 -1.2153920889087262 0.7639475114375036 -0.20023365754620354
Ni 4.025063792529716 8.772442482931817 9.629021865725404 -0.30480736509423634 -1.0474484017444798 -0.5718588515959377
Ni 7.074756538815913 7.917688863815736 8.222302493942328 0.06457968365359845 1.2514723795710512 -0.35869203092783386
Ni 1.6151654486067504 3.454898915293639 4.2564091697191975 -0.9264525440846818 -0.5384324536166921 0.1060711180291657
Ni 0.07192612921223235 2.960269638976755 1.7795820046767659 0.1257688535684092 0.6865133404187402 -0.660929835522681
Ni 8.208695663290182 7.594015796841378 10.589979709977985 -0.5615248166597813 1.2454811949846227 -0.29331324841170775
Ni 3.1759511157722824 4.1922715636760595 10.15672973774378 -0.5429843346534327 1.2634737749073015 0.5204182764274585
Ni 6.973777270823602 6.3065278443063715 12.561458893968886 0.2016130543922334 1.2197755626884024 0.37080732613412914
Ni 6.1039201885365575 4.018508596952487 13.344811165220198 0.3179503302340976 0.432388589281036 0.6505042693139829
Ni 8.010448995373 5.882433203803039 8.918436836647416 0.37385074094614323 -0.4860341425206338 -0.01371837802735702
Ni 0.43642334515590264 0.4934325188537616 9.470524184992483 -0.49886343307481823 -0.9197712754097643 -0.8880474619439223
Ni 3.6285247440344244 3.928152951360092 5.591928329345595 -0.4057990117179656 1.558214756904471 -1.3675425177944576
Ni 1.486383740237381 1.4689946440199635 2.7421187642378393 1.8263746459790027 -0.18360273385774187 0.6125529868811902
Ni 2.7740088307551756 3.7825946964297543 2.1566721444531756 -1.3760376997496624 1.4773851870509136 -0.048643214929000096
Ni 4.218026076843496 8.702931810723076 1.6306510696230816 3.3966717879693054 -1.7043387770904648 -0.14150117670200146
Ni 4.903587995328911 5.378944813798101 11.681363089886949 -0.34991531317646835 0.38052146809809945 0.25078643079309065
Ni 1.82614766385877 7.187813091825682 0.6304918758641668 1.656664353832637 1.5203313515951364 -1.1976622757291309
Ni 2.9217795784744798 6.886347235530668 11.901601204723885 2.273001490346608 0.2803870272683429 -0.6623241447670465
Ni 3.1287939347578555 3.5759460414338107 7.734109560284256 -0.18151936896615192 0.7610156825026894 0.7359618248578551
Ni 2.236299942778737 8.524295874344466 7.61639671563225 -0.5814979173475985 -0.1630596195990676 0.0993476832624031
P 7.030680391148105 3.6620046968988738 2.024655808196465 0.19371848213550508 0.5841096439388328 0.9756135791903648
P 4.600266205000175 2.8620331306401883 9.24307352651416 0.96441873891581 0.3529327598465534 -0.12635120843444048
P 3.968197242333955 0.4304020734583258 7.156584030385381 1.26531879853584 -0.04061417397693651 -0.651722200881484
P 6.265267596551795 5.492769339511479 7.42674677072939 1.212944655809498 0.8122428561087819 0.008274581303966395
P 0.733725692293499 2.5144066293389997 7.788556082210431 -0.09174390277321619 0.4883144539143784 0.6524169129556634
P 1.2339401415226972 4.523276941463439 11.385656114615777 0.528380982917961 -1.2771736409918972 -0.12945375861916414
P 5.038732906099607 7.70556383204049 12.456979864655846 -0.015789401623772806 0.3361539977263178 0.5865979575783252
P 0.1196931171234524 5.1746000769129825 4.561335474446544 -0.19463430908155513 -0.09061621692667621 -0.833413576649126
