# total energy = -381165.4669835442 ev
CRYSTAL
PRIMVEC
9.34783830263826 0.00000000000000 0.00000000000000
0.00000000000000 9.34783830263826 0.00000000000000
0.00000000000000 0.00000000000000 13.68150624988915
PRIMCOORD
 96 1
Ni 9.02645010309344 1.9743568905275948 5.604150478248519 2.7873311373778256 0.8622053040698378 0.3715604022500698
Ni 3.590682233003026 5.393768033391676 11.373285625496456 0.8942980708393243 -1.157085125637717 -0.10623926817591381
Ni 3.879997822993221 8.66507202899228 3.447711722789616 0.3245313258857249 0.4651500999827731 -0.015629736117456952
Ni 8.764392809077766 3.403033730467867 13.614521424944957 1.2452053156154168 -0.6917036263704281 -0.7200063299698632
Ni 7.478840718679977 4.140755767509424 7.3239292800448075 -0.275646427259564 -0.580027246339343 -1.1167108355857285
Ni 8.527855113145232 6.427545451712052 6.27146553331117 0.19476055024677424 -2.016717783884372 1.1431412618631152
Ni 5.210101709898062 3.63336446188494 4.177182423117624 0.5325263725449022 0.15860158382771394 -0.7999501547843577
Ni 5.627529421400878 0.06960026354865896 10.974223611559188 -0.6718791354453332 2.59709135781954 -0.24375086410254798
Ni 7.098383706964276 1.6778902043712445 4.732884290959502 -0.8702708546867914 0.12329905187167796 -0.607783847627321
Ni 9.21925861227398 7.235030404685655 1.3166588913286568 -1.4659034116635592 0.8619206829498833 0.9652700311725116
Ni 7.807931359894995 6.87698016095724 10.564161061715607 1.4953512846110313 -0.442795900657289 -0.26598293602787093
Ni 6.423310881041113 2.5781524507423494 0.6220313228303566 0.501182053905666 1.226071165889127 0.22162137919336025
Ni 7.266308271054224 9.218884698748953 9.162176038759437 -0.673486332031453 0.6033121850092126 -0.9786081430423146
Ni 1.029888717660088 5.620200716310334 4.868303617534977 -0.5332912757353848 -1.2311251833732668 -0.6681055273355138
Ni 3.654434489020251 6.526118404747484 2.3813617625202625 3.1310009838652144 -0.23221252444564525 -1.5835221253210083
Ni 8.717120791676136 9.270325851954642 2.6863910683997476 0.08853465180729912 0.201440276259795 0.06358029585480664
Ni 6.821369871947494 2.612113146652992 11.986641219762356 -0.19353464825947314 -0.7596275439059111 -0.12877935825995887
Ni 3.0845996247161387 6.38218974112619 5.733974188921955 1.370266087373208 -0.6170907268505437 -0.9017599264340083
Ni 7.347101635974587 5.131766826404755 0.39992294982864335 0.2271649347194088 1.109124024377406 -1.863407016141952
Ni 8.718008836298077 2.395878955129464 2.2018468139382694 0.4282434567644109 -1.5204935882046138 -0.6362791268535365
Ni 1.2700907661378924 2.51987802786678 10.77571852982485 -1.5755691890225185 0.38168514938889747 0.37176223384823076
Ni 2.7089567496351705 2.0266580448408464 8.988544619493755 -0.4477933538718804 -0.06721660705581327 -0.3069012715087876
Ni 1.410420512080794 6.113514177717525 7.468104726592618 0.3895730367774065 -1.5324960119821285 2.3205535290939583
Ni 2.90856113713309 4.435334190364384 3.715267415190823 0.5654714600123552 0.2694678092526778 0.0779717886897883
P 6.9565676547593895 3.2212276267612663 2.7270522946788867 -1.4781251505407318 1.647820530288762 1.1268044723763044
Ni 5.684504494776975 4.92555351735197 1.770441280086105 0.24943557319215107 -0.36707382723362586 2.511580066219597
P 8.876510779557325 1.535887195403844 12.237518499379702 -0.16071065975091678 0.8148972630124933 -0.05677432867656674
Ni 0.838522579902341 3.283708576793397 3.7117245845411855 0.497813137433433 -0.0862923927403417 0.4997437787972425
P 5.684186668280702 5.53906148137932 8.981976828426642 0.4091725561758888 -2.2496257917351445 -0.60798979299054
P 1.6439855954893565 3.5333893331306543 1.5211512633825017 -0.7016036590929594 -1.5764209954998527 0.51342693271129
P 3.8872237018643814 8.8899997099727 1.21794945985659 -0.11302698052170858 0.05182161265698172 0.47100527321196944
Ni 3.38303870471701 8.862330109120649 6.046910831071963 -0.7702978791355638 -0.6519559141588449 -0.0027024865328276037
Ni 3.608256168679328 4.4047106726646135 1.269516808876975 -0.33780875972092145 -1.3483854852500325 -0.6930508844269418
Ni 3.5454573921509236 1.7669190146803437 2.2519895524282982 -0.27534689374127413 0.21265877068343375 1.8432410827170382
Ni 2.399515264160358 0.10779272577880238 13.19574388561679 -0.7038538885797168 -1.0223960867615425 1.642357707401978
Ni 4.493730135135587 3.1957267243543757 10.679414297102525 -0.701563035663011 -0.0004674265547217756 -1.3265331652616315
Ni 3.2901024980713713 1.4916719210693166 11.620059204176624 1.3103151607408725 -0.8231841856116339 -1.103539331200777
Ni 3.08158027300154 7.540162536784522 11.135705645612909 -0.3959115774009246 1.7956157675295914 0.18045518936769567
Ni 8.524097282218703 5.147891847171575 9.027426952177574 0.7148240144379754 0.7117397190856968 -0.3439606382549302
Ni 8.974550905819592 8.34624531403927 7.7671691769640985 -0.4674360678034724 -0.8127177388626713 -0.6735691215532464
Ni 1.7242461336365558 0.9374853377876139 4.143417097023809 0.31444643084589713 0.20748596823324267 0.4303648739827879
Ni 2.324582993744804 3.725636972023654 6.30687327456367 -0.7200446394069663 1.2013448667870408 0.17782829326780986
Ni 0.6252479139294075 0.7684614679340854 8.743508803921154 0.585072007852102 0.0007227370986374649 0.30898386506942915
Ni 1.955221865884301 2.471213182584423 13.21705976089481 -0.597796397397306 0.7881734738644038 0.9104443415818837
Ni 5.7685415595269545 0.15054412866284622 7.127681701217823 -0.7274586724828503 -0.8209025886663088 -0.8730083082226127
Ni 6.480706607132867 3.2770342203716525 9.448571364119166 0.21429759183843736 1.1617866448784444 -0.8449128355379772
Ni 4.893219345275199 1.581392471399717 8.83330039782131 1.5657627444550581 -0.5476228618667085 -0.13748125690933097
Ni 4.60297831931056 3.708137819052357 12.857372710710585 0.3162330904326747 0.04183030577222473 1.0202201621561462
Ni 5.375670618780334 6.336824682702202 4.257273765394748 0.3054267438457901 0.8137677773937405 -1.6746826447869287
Ni 6.965513535845678 0.2554240680816827 -0.0776833391759456 -0.9235883351630094 0.17216569566539383 0.02902466936712421
Ni 1.8153875553620613 8.133535257489129 2.273742906530598 -0.8645866598178208 2.2051588196710212 -1.9639104102753533
Ni 6.112775698505595 4.840198407426269 11.322075363892472 -0.20327090171063056 1.6210126660672983 -0.03947337550427396
Ni 0.7706694272993742 7.675135971481402 12.629357438797248 -0.7621857915513905 0.47396075629586765 -0.984931514157181
Ni 7.098953925089944 7.854904246476601 5.479840122501618 -2.3726754466001787 0.49593417524316524 -0.20431219849095136
Ni 7.094420223598982 7.17802728779518 8.276804898522562 -0.5390268926675814 -1.945997277440358 -1.9618954367278536
Ni 8.234295604645974 1.8602758740416385 9.98465398930284 0.24546836101428696 0.13648932530970687 0.5165299971166459
P 2.336249095725669 7.020478824024751 3.83732026803037 -0.45727378255848994 -0.8171189532541606 2.2638393642313654
Ni 6.319792921637189 7.500957703685366 12.23872250093029 1.0200844079092302 -0.8550689501353725 0.8327569169017336
P 1.3138386485661353 0.13309451923361532 6.777599554707749 0.48052658243884333 4.594887365098745 0.52218076764452
Ni 1.7170202547653952 5.698142990602362 1.6402623515638932 -1.2062631300242646 -0.019564809505805015 2.0312326896710955
P 0.3651583398391915 8.187593805370012 9.827302764916864 -0.8784225372596485 -2.2444123658550055 0.28436066720411024
P 5.058517166851826 7.593791084111622 6.094864305872955 0.02248224026291612 -0.839552342557012 0.6386345144595904
P 3.93213071622021 9.152477656704031 9.766282881983777 1.0444373828322981 1.100280972164479 0.8704001811758042
Ni 5.6114230963103084 2.8546801981765966 6.3305971529428655 0.6105575537177163 -0.6142956806039098 1.0682296001558893
Ni 2.4917784264609475 8.255767588820689 8.727842762006306 -2.0807703913899065 -0.9735893496714846 -1.4091506802535474
Ni 4.435119190087493 1.5033941100789356 0.19675142730195871 0.08547015394936248 -0.33759073017284436 -0.8532635214955177
Ni 7.5902108621094815 4.454665519608317 4.725564933707084 0.060186439681909246 -0.5705409041154625 -0.23603292663299993
Ni 4.074283290597622 3.9592955338134734 8.105539417086492 0.24626334611175654 -0.3314879597092162 0.6535808513567776
Ni 2.2658879181535787 6.195074065364195 13.337908612183766 2.3773108884896605 0.6736670805836914 -1.190050267709828
Ni 1.3419382499719679 1.157028664007637 1.580131448036561 1.1777233707133588 1.0434801611253512 1.3257975726471876
Ni 5.969239644085581 7.456490037721445 1.2503285015563652 0.49527185906881804 1.4412362479341825 1.5027357500005603
Ni 9.045398170974218 4.841460365573237 2.128103588532303 -1.4210332906237464 -0.7078172441028391 0.18984665788492466
Ni 5.539033437864943 7.366376878189765 9.933266118774467 -1.7738390379741322 0.15741707660130955 0.8132062484633156
Ni 8.387338410439817 4.130267493132396 11.030906097601953 0.7574824725384502 0.14354134706048183 0.6135973689853046
Ni 5.954451364170734 1.335759328970885 2.5909758150831754 -0.15136649953185546 -1.2195073966286805 -0.37017457764613665
Ni 8.491230283368768 6.54604799563146 3.7662449156254763 0.5573061505927435 0.08831893625206726 0.009421036203583776
Ni 8.91272430445626 8.967642853444705 5.04279784225966 0.41955955583716775 1.53710625706063 -0.34658316347944185
Ni 9.278290210037731 0.1991323216725727 0.29780436179213654 -0.857389370738433 -0.5069541805027528 -1.5872502249048728
Ni 4.998821872581152 6.06575607273336 13.542145788256779 -1.4355098869733665 -0.9154556787535459 -1.7510400378017457
Ni 5.385476500974185 5.285052675989867 6.231761525656102 0.7932930544791564 -0.6654058690161637 1.1233558517060718
Ni 4.837496882207944 0.9821586561903002 4.76271043806715 0.6807638395294727 0.05153750575765962 -0.27920843357920944
Ni 1.4387164180872665 4.546442594326369 12.05881120401177 -1.0228912812304063 -1.1249368230399466 0.8716965313897246
Ni 7.648391806603795 1.4460264275015582 7.3605270010907065 -0.004539796851882504 0.8272038482939882 0.8829103978276731
Ni 3.57467873413184 1.72734026805616 6.636952917052386 -0.2339678165738551 -1.0893406711028917 3.752630736236692
Ni 7.774363273185632 9.168153981240819 11.31061024043131 2.6734402661939245 -0.04782817522687247 1.757804867329405
Ni 0.3172628216345789 2.9225361551310014 8.318136364795313 0.097264061260497 2.1262313519361835 -0.5561460688463712
Ni 1.114907305413265 7.718846462557142 6.077885827485259 1.0648845949430565 -2.039419853467578 -2.8899153252996554
Ni 3.9222967905119814 6.331113153607404 7.843525123126196 0.36332438749352264 1.262667476955922 1.3972269322327677
P 7.076958461980188 7.934603914336259 3.245923680305534 -1.1139720964983266 0.6962611638341235 -0.9238498163545121
Ni 4.548957162782181 8.723757756745378 12.784970900075656 -0.5093136818738648 -0.8467714860132707 1.4999592156966877
P 3.365315203630696 2.518569330529183 4.859178257956676 -0.9881106832161112 1.2379997990059128 -3.8878771902782328
Ni 1.0969874997263116 0.22839385935742917 11.160565286324376 0.27059858042301144 0.4417430339127424 0.7921949363189711
P 0.26815956274412667 4.481054466637148 6.630933844083252 -1.4011895164249415 -1.0469596350335195 0.19303945379060947
P 2.242462235810592 4.096848971833045 9.672482935095326 1.1471164444607793 -0.5435031832713801 -0.3519698817126519
P 9.375133813019911 5.83767817030458 13.513004837683745 -0.08925533202340757 -1.9012482553594416 -1.164430767369511
Ni 1.4567951370223566 5.899102814628507 10.308878145989622 -1.200253947715707 2.522669748374855 -1.375025199324748
