# total energy = -381171.72406575066 ev
CRYSTAL
PRIMVEC
9.15991765776309 0.00000000000000 0.00000000000000

0.00000000000000 9.15991765776309 0.00000000000000

0.00000000000000 0.00000000000000 13.40646539080058

PRIMCOORD
 96 1
Ni 6.640537349635129 7.856214156822773 2.5763468688088107 1.3478141861275947 -1.2169802593314525 2.389156474974337
Ni 2.7752260875221437 4.7579635690069795 10.428863166826295 1.9920621901192206 1.1463530839321934 1.3995118716122026
Ni 0.5657119417520384 1.7759156980698265 7.80295198294336 -0.09922941251698396 -0.7504196521543979 1.0752194012101612
Ni 7.731373637483424 3.96796646060415 6.03325770102551 -0.7242203680512108 -0.4816786937654156 1.3559964648280711
Ni 0.5233583139494643 9.10614905648449 10.499259882893409 1.1721055103059492 -0.0023744137694475236 -0.5994966679178644
Ni 4.96462047390206 6.1720075555044 1.4094750195118402 -0.30974054072979557 -0.5823615508994744 1.0495345948495474
Ni 1.5782263526753124 8.864318067337953 5.519173803822035 -1.6276324853766617 -2.0561268818096137 0.02958388430470389
Ni 3.0982505878157927 3.81348444734873 2.0326746052123528 -0.724398802610604 1.971450684516456 0.8221387750662551
Ni 4.566255649918768 6.580036092739069 9.045034085097585 0.6495737870799135 0.3756093755084628 -1.8098838474128314
Ni 3.4762620745056645 7.870970784356392 4.878639989726351 1.2434932180203166 0.3213860953885239 -1.1322721803590952
Ni 1.9375882467776928 1.7072529544372959 4.896255427597179 1.1913137078032836 0.43442747408793575 0.13330012894844784
Ni 5.658227767571016 8.781924606962471 0.9274636584016078 -0.5102822164347213 1.375211090083309 -0.9126097246643186
Ni 8.508327022976339 1.7692564378482616 5.833863694933288 -0.9492068070620621 -0.5541326379607683 -0.0027194558136920907
Ni 5.396345718417594 3.9891991500038575 6.15996226363183 -1.300838845819321 -0.5755944073789699 -1.2607160096565064
Ni 7.515144618514705 0.504021727528937 8.620773257575935 -0.054855771497615204 0.43230708531082324 -0.4558897577267697
Ni 6.660551769970919 1.7849473769948099 12.570397898829794 0.28408298806269133 -1.2013926893058409 0.7013570902997921
Ni 8.763504012319325 2.065167581531413 10.133920226451835 -0.5696582444001931 1.1931795573674289 0.01633139017017187
Ni 9.17173406774502 5.336998611161035 2.6624574238169076 -0.32080168363996364 0.14707944212072732 -1.0881145120052744
Ni 3.001347817686585 4.869760365436414 13.112501984503375 1.341444535155825 0.40546219720383725 0.04962691899850808
Ni 3.749117705152119 6.857957157914445 11.11678856350015 1.7479567708907315 -0.5871975388355372 1.518900789796197
Ni 3.056783640053724 4.776787200032173 5.552810853871045 -0.20713655531362393 -0.6985522738611453 0.18815075823974048
Ni 6.516759380757543 9.074171783536096 5.383661064284412 0.6104385116413488 0.33007153897766384 -2.996906898260561
Ni 2.1807016244125648 2.3885126789471465 0.34025247364264394 -0.9205320648351889 -0.39255783043734327 0.09308010508613647
Ni 7.4620170954265665 0.17703647878988935 11.138882285170597 -0.035756074553686804 2.0822485185973303 -1.0644683333412441
P 7.027433956565603 5.18716067621694 1.4124245130350095 0.5909598340914467 -0.36145802370874525 0.17949256834411023
Ni 7.104157427839092 5.462700162771122 3.888531653669611 -0.7852868963452281 -0.13229739871554635 -1.3620552694276413
P 3.924475171014068 7.594872542818006 13.534362913568286 0.7694856676469135 -0.8398421058832891 -0.03660633836912405
Ni 9.349344873379327 8.078910077739806 12.71808416908882 0.6944876168734685 0.19503411562313508 0.07444320671123954
P 6.291168925823982 1.8868148225574264 4.673453251633969 -0.03733653166692925 1.7915667942711984 -0.1999094414375654
P 4.341315549147149 2.3224147122912844 1.204127066866638 1.6387933870894873 0.25777211808230444 -1.3849979942667439
P 5.559190736600509 7.0410181146241735 4.264154233804071 0.17360834164919134 0.8007525960809951 0.5028548136223985
Ni 0.7410419278606657 8.423753502170687 8.078964121254673 0.4773934361265004 0.17365179329261704 0.2078412946901324
Ni 6.0199529204590405 3.443835965586353 2.61494493032412 -1.1992296202162507 0.33116297226962965 -0.49249095388957115
Ni 2.1034468779081936 6.482235650668027 1.2104831338098894 0.13803687230248485 0.8167474288473545 -0.27252716490429196
Ni 3.569271879581 2.9725398762879314 12.036230881907226 1.325672359923233 -0.9339177421134754 -0.8467149217437223
Ni 4.88763136501313 0.9089569605313883 8.215495443648743 -0.10532858343618635 0.28136533202121217 1.7960582543836487
Ni 9.086272034915309 5.357635905905443 7.519847320299782 -0.056518503912018785 0.7678208783499809 -0.4872561878531931
Ni 1.4693332501801784 6.197508766586706 11.930413679800541 -0.9965122770162452 -1.6131322348779573 -0.5027823085132502
Ni 5.862530573598226 7.974312976680592 11.835764249443692 -2.984622424466253 0.07896834827510271 1.6914968881307901
Ni 3.5953868051541518 8.121714373496852 2.2996376607549114 0.16463082074092936 -0.4198331212135285 0.4779516226228156
Ni 8.543913303527615 8.435203399387959 6.198372546832776 -0.32068109890169927 0.48899502492117075 1.8364088902865536
Ni 8.969382324203632 0.6359602671512167 3.853152387260021 1.2944185441152738 -1.8868194815286212 2.0996548869992355
Ni 3.0390225594902938 1.3847139297856588 2.52593892530772 -1.7974325090233558 -0.658524054294666 -0.05956757515098773
Ni 4.856148727624522 3.994227944861683 8.88234661750038 -0.1388483124601867 1.0721911559067987 0.09425329945863123
Ni 4.806877529919162 0.5310727966985728 3.580692465061395 1.8676969017665574 -0.7261679786958849 0.5228438551498157
Ni 2.2670338494307876 6.19828735959748 3.7223185337212636 -0.9292691875978706 -0.15841980683421103 -0.37755775748408527
Ni 1.8386977744915667 0.02489665650923405 0.8306588993925798 -0.6152847839900565 0.3258312756440711 0.6836025945298485
Ni 5.772369502950546 3.7549617326918145 13.14840428221785 -1.1790678005563953 -1.6691933395375835 2.1661613553619015
Ni 7.800237899306978 7.148134193071187 11.31969539805863 1.1950860303615223 -2.1954256515436574 0.40231619537568775
Ni 3.232480022873304 2.8828276416111698 7.319138866007017 0.5149302567296938 1.4943912346906068 0.8505376379239223
Ni 4.535121089405565 5.183551668614056 3.8236711919049915 0.30849561257910096 0.7349786350089793 -0.7894669958648468
Ni 8.121741853250175 3.1442150552048056 3.813563222641585 0.2787371503697458 -0.23352327283726879 0.07848935175615515
Ni 1.0524012728693592 4.483459153161237 0.792969501720433 0.29580490448530994 -1.8467681220336902 0.2686419709172728
Ni 3.9958126106365532 0.6253833100977905 13.100731490164021 -0.6284598879194337 1.44885725481455 0.33267992313478834
Ni 1.2133318682375465 3.6568773331697844 6.342250123281449 -0.8945901481584465 -0.7924664448128029 0.38416857793238357
Ni 6.146167427464463 5.873522474926806 12.820000162215639 -0.2058826283018648 0.3541092966531579 -1.828917981226147
P 5.949311634587366 8.37400598874109 9.698049203151873 -0.3340978865282375 0.1154805842685237 -1.0493870135280896
Ni 4.703123141295138 6.35610358292257 6.159519839603355 0.33635634354511107 -0.11633161941490934 0.8127408787911229
P 2.95837864340961 5.151665994843399 8.138274588840137 -0.42979563174287916 -0.2424681407353824 -0.7811523053515644
Ni 7.847548874608742 3.0026302061749197 1.3197435490077536 1.0136630777639186 1.0679681189643866 -1.973901460049794
P 1.4989472643429282 8.4035284037261 2.927824821683267 1.102815565660875 0.29786975743413857 1.6753822419571147
P 8.329543747866982 3.4093671950034805 8.38203099270273 -0.37587239936186234 -0.08348166276442397 -0.7033805484877241
P 7.846871040693479 0.4515161628576418 0.7139890267074752 0.2959458009385484 0.20641150422214127 -1.1876133761335612
Ni 8.853573483789267 4.971041576261507 9.849087087324337 -1.5057796790332068 1.153583797352678 1.7432107715653138
Ni 4.313524358621389 1.3725403990642564 5.951250789180083 1.0231761594606765 -0.6565661592373466 -1.1824246328437702
Ni 7.732527787122924 3.8715033665280854 11.634573067484247 -0.609293599403628 -0.5702483125757082 0.25386661238031116
Ni 3.2209202066427474 2.6250034360315486 9.773701880037601 -0.04921220005859266 -2.73801352208962 -0.10067180139046532
Ni 6.42798145769371 5.436612716951292 7.742261115749382 0.10381934588051153 -0.5387019052279948 0.7669824416090855
Ni 7.711111899367741 7.2904609954407515 8.728587321757313 0.30086329284482377 -0.4131803917837013 -0.4184233853501955
Ni 0.9738549779588802 3.423006312568694 11.73931764321962 0.4817018336938672 0.5332041153382172 0.10163262264183787
Ni 0.01262603065942907 7.765860727901844 1.671116162827811 -0.36641973858939475 -0.35120652118406614 1.128951086405662
Ni 1.8954526250181356 6.678065532754456 6.548696350067733 0.01228575934588852 -1.081685211440163 0.2440190301622701
Ni 0.09504971876356474 5.113066101344535 4.944317516156396 1.594934223812692 1.1885466865811078 -0.32283054114453436
Ni 4.665970514804537 0.6285022620997752 10.90262052603054 0.21443488874725006 0.5937078291502291 -0.7122128020673735
Ni 8.658247397180396 5.480571162347839 13.104618959267228 -1.1913710434037805 0.26462719333092494 -0.1710035570364926
Ni 8.922538504708333 7.468685515565905 4.267077163565696 0.5765703981389941 -1.3195785883206694 -1.4640966974721237
Ni 2.4004022522175603 8.177562392163813 12.23647034840997 -0.14096998678887981 1.8987841100896654 -1.1530248395254141
Ni 6.405438900052347 2.601380008092875 7.7460817174528405 1.1176968536480816 0.18026261374091535 -0.23791960213275157
Ni 1.3208143433955128 3.7802889053364175 9.17192642601827 0.5405474430771658 -1.749955032267683 -2.6019129475778997
Ni 2.926263971694609 9.183275564140029 9.476092487599185 -0.9213303923667681 0.300199948229212 0.022360112862755042
Ni 3.5121506323434786 8.388277140632695 7.214461157671394 -0.44077887022726026 -0.9389293363954541 0.45519067477721603
Ni 7.508925034346283 7.448955052681105 0.2945078442802029 -2.3840204392993525 -0.09492821403846877 0.38019365244503556
Ni 7.294289841070207 1.145264519260314 2.598119077365396 -2.2792415577190486 0.042104899589850066 0.06973525971260894
Ni 4.182702412975737 2.8591584140836273 3.9266460715264624 -0.050433474060203466 -0.2475774369374898 1.9948392386437257
Ni 5.847288470422595 8.207808440652956 7.123632329018004 0.25325186161444774 -1.6152505667725408 2.9746809969828254
Ni 7.3486905927289055 6.3924043370602055 5.959790580520613 0.12509933830521036 1.1856979042784033 -0.19297183377746766
Ni 2.1197148918744926 6.904443740616564 9.46189461504977 2.2313791868201314 -0.2613454372558596 -2.1835381560774523
Ni 6.0771291272032055 2.379801597144246 10.230272485522836 0.4669275035981701 0.3016657341414611 0.059183966559323876
P 2.2034457002449517 1.1349687716825438 11.415484322186543 0.5478524613790113 0.8547385633791473 0.1578557068006249
Ni 6.571114332827372 5.644377971897004 10.207803207223662 -1.7562280097605885 -0.8965246461769979 -0.022050037821503957
P 1.4858119422552747 3.4160630948961406 4.0156923801810676 -0.8186775559905319 3.2687318948915056 -1.593348624493127
Ni 9.275424336944626 1.21055641315208 12.500134917562178 0.012757813886300609 1.3148639564538194 0.9025389706918778
P 2.386992132596693 0.9915244593445728 7.0226552274630025 -0.015326088834109087 -0.3145724149008001 0.8526212599258284
P 5.137907798347126 4.3366073514114065 11.182038321770156 -0.23839911287233137 0.041413529949780294 -0.4858870754198084
P 0.33257737853996283 7.009462197893375 10.191139484809536 -1.7096334498305006 0.029172507798898146 -0.41211055575829025
Ni 0.5978751610312414 1.9446413834635319 2.319238052807324 1.1849198884617982 1.3296858519580004 -1.153982061232361
