# total energy = -340856.3531791023 ev
CRYSTAL
PRIMVEC
9.38578836260683 0.00000000000000 0.00000000000000

0.00000000000000 9.38578836260683 0.00000000000000

0.00000000000000 0.00000000000000 13.73704999869666

PRIMCOORD
 96 1
Ni 1.3786877952713827 3.3201474431713955 3.974554621877141 -1.13999628847623 -0.5489906887485125 -1.7170978765283458
Ni 4.86114367152328 6.9921868526328605 1.6624304929698714 -0.15098417649177223 -1.5303195731561 0.8615982666134581
Ni 2.2895503700220607 0.17950413540206495 8.188449655255047 0.5714708721288997 -0.41766670968982905 -2.2699814725733614
Ni 7.275224677647354 5.207047505025208 7.128059275037683 -0.6438026889240913 0.38779846137548696 -0.4068359376229123
Ni 1.04223545035513 -0.2962483217218774 0.5076143918824215 0.13324870688522214 1.3997931502980472 -0.8722264357512657
Ni 3.6573600369212524 7.857209238453615 3.586894355834195 1.4145250571915833 0.5815100015324566 -0.5078466104100351
Ni 8.815376185073012 4.689721638227595 5.483748045935383 -0.6731299771332988 0.06742255241903226 -0.6320859147077952
Ni 5.8405600423313215 4.73959771602727 11.218429828794594 -0.8439106195257079 -0.36060750278299186 -2.611692652672483
Ni 4.895026366453056 5.61625847905382 7.103620560063126 -0.7922414732861904 -0.13863233979463865 -0.5344140764859183
Ni 3.8934783073778645 4.7019419342936795 1.2756571838994637 0.5031864859302043 0.5450887825909451 -0.5445820181578558
Ni 0.3299883526730015 8.700494139106127 8.5762873126925 1.7309633216565286 -1.832865395909669 -0.6036109471965541
Ni 5.966348374034606 2.525067950042245 4.198852430839415 1.2432777595754008 -4.206214471538105 -1.5563694761656164
Ni 1.451587211204781 7.719519727478599 3.5811934281609688 -0.4419914024781227 2.2071005167784246 1.8670662101610942
Ni 4.180495706533693 4.545321288783107 9.314447632654856 0.3541347505744546 -0.37928271059499197 -1.1514171287186623
Ni 3.874143583955333 3.4565604869690025 3.9099625669637827 -0.930403815422946 0.4793850126352325 -1.1168766717396312
Ni 8.288167083438543 1.659595046394169 5.016550734636507 0.9275334358536864 1.3528556052062441 -1.8266916629987895
Ni 2.6429440624032017 8.662049951174724 5.731371415407207 0.8564324061418025 -1.7123752742416962 0.1596264255478025
Ni 8.638022333717597 0.26761885237442723 2.71218771388365 1.4063237523277137 1.6471142482503567 -0.46405121049163955
Ni 4.860664996331751 7.926157237609885 7.675411216447441 2.2152956509947073 0.026326553709670793 -1.3381599508672826
Ni 5.977432989744319 4.44402047815234 4.909579969433142 0.152461275257931 4.7281309297776435 1.471503017238524
Ni 2.2532555275585033 1.5444408125732774 5.506276753037859 -1.0592127413692598 1.6262973115050054 1.2089977553466082
Ni 6.883546355731987 8.37787644580386 2.8057649595122816 -1.4327405517583454 -0.5959032941396512 -1.340176724186995
Ni 9.260637971075383 5.1593958589979305 1.1432697046047324 0.5491017604050801 -1.9247774488296332 -0.3714835262655473
Ni 0.056294079681387554 7.4806420353296454 1.83242588647904 -1.6378953007552501 -0.5256389013964495 -0.8310178227234398
P 3.9388022779639824 5.948121173604239 12.74173196947844 0.6845531313685759 -0.9948253762321253 1.6081283539054627
P 3.389874462737408 6.452635439687407 5.52973934605322 0.7990317567351465 1.1285816188813853 0.5193584677043764
P 3.1991740207476065 3.0917818336599345 10.41823320401012 -0.6517422554861421 -2.3488446627291677 1.0410365846808651
P 6.393833477433931 8.56026107956436 9.56582156303913 0.17858754003133762 0.5998903038118572 0.42101582866772
P 8.465314447456434 3.5353166346575753 3.420415817114552 -0.06416162227957337 0.9823951208885726 0.16851447206605172
P 7.094341769977924 7.532676844385234 6.30853355830352 -0.02876755905099562 -0.0522872394394906 0.667471750406257
P 5.15104250761635 4.992234973485656 2.949523321052836 0.9902521550391462 0.7723994988595987 0.10035709836352392
P 6.969210443439484 1.45924601426924 1.7958719962647727 0.45530431753694484 -2.7779080442917126 0.3644515591194304
Ni 2.5208068022588326 2.5153724309667718 8.036517210885034 0.7153053249497681 -0.24663692740109136 0.9121728942372163
Ni 0.8270709517629848 3.2050307525027804 10.58269285971608 -0.6299845520940763 -0.44174869033969727 0.13024257306904666
Ni 2.9022921583310586 2.6664460757284534 0.9756038636943368 -0.3739885520755882 -0.9847258259042784 0.6257018655583223
Ni 6.597833581117776 6.534197938008668 12.292983363208366 0.5890996409542565 3.4434846345577856 -0.36163620115782236
Ni 8.025327474348947 -0.2696536912278276 0.034274082292260984 -0.1894998160684672 -0.5272291287017049 0.7402920768020929
Ni 1.4452424184700088 7.425359743602117 10.36895875522568 -0.6481694505332192 0.7525701228384974 -0.41992490959638645
Ni 6.459271191852324 9.222240712084327 11.866228474120822 -0.8239056371586909 0.08188346503936866 -0.6570649532506362
Ni 1.7623318825995222 4.533232393749991 5.658139742576159 1.3914398932373455 2.564296679887023 2.3902607637821096
Ni 2.6570509018711936 5.669945186809588 3.62398511312602 1.4496720374063614 -0.6466270457467638 -0.3858660202394645
Ni 3.001715811347988 0.4891262665437311 1.915549241356207 -0.6416421909376627 -0.4282969357101655 0.31058000591195545
Ni 5.4025440847183654 2.503236606993309 10.372200606424778 -0.32923361645740074 -0.3246529390652538 0.4225631185501819
Ni 4.023499629500353 0.6023460894435626 10.861885327358625 -1.1666486009564359 -0.0605628491847215 0.9408314385141733
Ni 0.39815263852549354 2.757948123614986 6.483461183443048 0.16810438111182663 -0.7440572002714799 0.7527693833334971
Ni 6.016158751317796 4.862204265575099 -0.25855030394197587 -0.9276409079658282 1.398420695430553 3.5539309988365115
Ni 1.9540929186411424 5.726475788350318 0.13147048780037146 0.5090280323126459 0.30398538341357323 0.7193046759171483
Ni 0.6595477748312408 0.08209373392597692 6.343701167619967 -2.3755622812296697 0.12852764726046897 0.1031814551861965
Ni 6.230980668645416 3.4056144293294395 1.588140103244619 -0.87995722873662 1.9429854871972279 1.0056913724123517
Ni 7.991181977353233 7.521076010331715 10.653370659613502 1.051931377216498 0.3125327587629521 0.7479583350980991
Ni 8.737023626271414 8.22017643466533 4.569588243835998 -0.8125354476485362 -0.8370899970594486 1.094645885365889
Ni 4.249866066153076 3.3034876693485833 12.93060218279475 -0.503547725924365 0.004101937983515516 -0.6320465768294276
Ni 7.9274900195157105 2.5302019761160914 0.22495669128473117 1.0592217402303241 -0.15889314692620377 -0.9215085698158453
Ni -0.2583184749766669 1.3005980385357223 12.226935572565477 0.33406857595219885 -0.38685023852960476 -0.47057358499118956
Ni 4.001940474305424 3.3285571092813897 6.2562781832283045 1.0472475985875835 -0.9975180925729402 -0.11207592946234891
Ni 4.97852233711657 8.39432034650108 5.368150802917626 1.8450092303610546 -0.2542013700119106 -0.276012295239415
P 3.6012424100555656 8.273206137256254 9.191555755149723 -1.5150181669123393 -0.9927124436541807 3.8135424841203998
P 4.726194810664467 0.7982021448197704 6.510069892619201 -0.48054560860223683 0.672838414034809 -0.28953861186062396
P 6.400985447942655 4.072202483791379 8.777809568326079 0.04092090658407791 0.830820362000653 1.4241566667440764
P 0.9840341785380833 1.2514446664173744 3.7459421661394607 -0.3355832128245124 -1.8483442082715587 0.5109661298756232
P 4.099674685469899 -0.11109769621738774 12.810924937703316 1.2280591428534333 0.6324083310442206 0.9607194356873519
P 1.8997961346608787 4.303224271326421 2.1155744637927487 -0.7995598613244745 -0.0033761155610845077 -0.7840663936745659
P 9.284243228069396 5.638756213055668 10.690969188039869 -0.41630351079371525 -0.264385509633764 -0.4712569842114594
P 6.564495261896013 2.9276713292701477 6.221152809958168 1.1422143791734716 -0.2738883069178767 0.1975676806782662
Ni 8.45944832991319 6.949838176864676 8.420344321080524 -0.5431239455550905 -1.5390901202598783 -1.4381257273296588
Ni 4.89649054939185 1.6670192047568984 2.313703757039314 -0.1309794512350712 -0.48774855410857926 -1.2616860868792594
Ni 2.498111966707531 7.922665724448146 12.640627321818322 0.666539982620607 -1.1839876064555157 0.14464229343414445
Ni 0.6176815285698122 2.1641280840534756 1.8059551483875034 0.0844990482853448 0.6924788139735558 -0.5892510789304561
Ni 3.8941353125427076 1.044253394790006 4.26189207640613 1.6637953084504638 -1.263357303934095 -0.31381676768169825
Ni 2.305759626017552 4.388803886941296 11.858370692349297 0.5416882415498284 1.516025525130931 1.0587851669135377
Ni 5.557794405170836 8.782347596857532 0.5736359023187175 0.6434057105959887 1.7891077912077447 -0.45944790739167324
Ni 0.3389865076949339 5.816504267509988 3.528251013399089 -0.6479550205295679 -1.8274910189716334 0.7378662409694196
Ni 1.2822300512843177 0.8266551613515198 10.082431294207062 -0.20732835960945584 -0.012593006173662184 2.076762041561462
Ni 2.151316483339031 1.9893740959932276 12.536074335621578 0.15906798194117122 -0.35435817943917036 -0.3102935850197882
Ni 7.61129220525277 5.782368156302344 2.6436817853454397 -1.6855931210518456 -0.36275103148855586 -1.059798952890033
Ni 9.019986364981353 4.265859449022976 8.422830616340052 0.08672639495396677 0.4104802192437188 0.4952623459871212
Ni -0.10189868533077466 6.604187759640617 12.998545902627617 -0.7526146029231877 0.9499254303956415 -1.2078513004469908
Ni 1.6968660108169225 5.230737234111843 9.51392378648935 0.3597531252024966 -0.5927536927670759 -0.5241471473422715
Ni 8.085640548481562 0.5156026361081091 8.802467910741454 -1.8832366492733696 1.502778687423354 0.6342163307872368
Ni 7.8394231700625 2.7569438442915826 10.1327907400923 -0.16869830594208365 -0.2587558221518124 -0.7717520950835869
Ni 2.636955929615058 6.835622521850704 7.876027743532341 -1.0297862085780265 -0.33654480540683335 -1.2175448735856709
Ni 4.469211933330046 0.736158331367197 8.67758436900804 1.8719891013840082 1.5269246885419379 -1.0885991649511768
Ni 6.598190241064405 6.793592962876871 4.386610428269526 -0.7609156665897153 -0.6005240807411142 0.9768569646791626
Ni 3.51047245363843 6.361302335986119 10.784737903745112 -2.0401783289001574 0.2732079930214004 0.6396089625577177
Ni 5.239475402804259 6.574481740401631 9.655112319256562 3.5633625765630565 1.3864671226131025 -1.5267138580827124
Ni 6.423811684526925 2.055956876556061 8.13385815752941 -0.48437115299591427 -0.4660551282955457 -0.20449988902172522
Ni 8.078685679522291 4.160916952621363 12.034370174486325 1.847889380122327 0.7693522273928428 0.280303209305285
Ni 7.169794120266142 0.408482636874444 6.367685610451975 -1.086691920626135 -1.7251765397714225 1.1849144891451595
P 2.3887393783372604 7.79516917931627 1.7056604942377533 0.507474571782597 -0.5618222932955421 -1.1606892980492074
P 0.4931893741988834 2.205472480498257 8.622388426530748 -2.122911029313699 -0.24558380354622864 0.04755101030608584
P 2.8166092990474234 4.558020260040721 7.571023420120717 0.031006475683843373 1.3132094515695318 0.03945769177499011
P 6.279702294512582 3.0671065968260343 12.564496379052699 1.1332471426778548 -2.767995927384323 -0.9440468601276774
P 0.6282283386231609 3.641479283508183 13.245510389776985 -0.4323019431045007 -0.642524593542616 -0.24546450435954498
P 0.5787361395555153 8.56522616145296 11.995988871334987 -1.8759609415475627 1.7255429219719056 0.23617973662350936
P 7.274614601422856 6.94643113579556 0.6816682001527078 0.03667910058858844 0.3352674813563065 0.2938534371858939
P 0.5647644554357192 6.595064773637365 6.520579159520273 -0.741176279179259 0.20633642800983173 0.13945252170308886
