# total energy = -381167.33040237636 ev
CRYSTAL
PRIMVEC
9.22077656990946 0.00000000000000 0.00000000000000

0.00000000000000 9.22077656990946 0.00000000000000

0.00000000000000 0.00000000000000 13.49553856044028

PRIMCOORD
 96 1
Ni -0.08457664878948605 5.9146208716117785 3.217714380080438 0.6449604566776184 0.41189355465147776 -0.058661004176318324
Ni 5.173150584761124 6.876790439869301 10.85247753019433 -0.418878213499427 -0.4910177117781544 0.9156639381096101
Ni 8.381298409401428 2.820312751514996 0.02715426420785808 -0.20336603252759816 0.8137639207389985 -0.15351079956836788
Ni 2.3543408197875664 2.321431869073503 9.820257724174203 2.386451417338348 -0.7168947809240751 -0.9684761968146354
Ni 7.649242535181499 3.8316106160472527 2.169866280262254 -0.7607518873183414 0.5492398286448412 0.2979805719803901
Ni 2.7299491435021572 6.306319450018451 10.221804091699008 0.7301359622046973 0.12625942005158258 -0.7274756417637149
Ni 6.080936014237041 5.669385104396527 1.229053874135277 0.03687347598758166 -0.20770039823689393 -0.7166142735691786
Ni 0.5818955317210431 3.5066059128198517 9.51262680770372 -1.589601755856185 0.5142504570538499 -2.3865411488386767
Ni 2.6002128205694386 2.0172753411233493 3.9184832381423713 -0.8003882707630409 -0.16771228787973053 -0.5477352190748567
Ni 8.075205518422429 0.31235379810560376 2.791322630740265 1.0519869130447816 -0.8996125410737023 -2.3511522278164216
Ni 5.118886316071781 1.908175115612338 10.164677694037504 -0.21357691162232892 -1.1347851765889359 -0.9761833356509058
Ni 3.5591182340069047 2.1133466096831217 6.295654700117671 1.0318299784809326 -0.8052157740586713 -0.711844105874045
Ni 0.4612490500923098 8.612490934269378 4.140296389329642 -0.7721629573687605 -1.674565145372458 -0.3775721556617885
Ni 9.210264642826962 9.351434728406204 11.11202394227039 -0.7007641939107996 -3.8688643966211567 1.0781453166077044
Ni 7.650625651630675 5.5913957782156505 12.547840816470636 -1.3727711131832485 -0.34249690922521014 2.6512778711642726
Ni 3.667499238964344 0.7336473802141142 8.247771425320334 -1.0479978464900468 -0.3141736368004847 0.056940679051101936
Ni 6.985392743458608 4.88257626034188 5.054254206479415 0.3145464467588712 -0.06783624291768317 -0.3713398015988314
Ni 0.4745214355386037 6.805707475157976 10.249037654583287 0.052037585322529736 0.3420279400085916 -2.122156153425545
Ni 4.160700123187888 7.622317868304204 13.202914273284687 0.05862320895984742 -0.10362522759183444 -0.7079270302078259
Ni 3.8802041072949733 8.780299842659751 3.8231376446796 -0.9208436825383367 0.27161519461298383 -0.2829455320241385
Ni 7.211052802529853 2.334801994748872 9.073036439127874 0.9450254219908627 0.6283192485765114 -0.6396400729059694
Ni 2.3623628951927875 6.52773795197889 0.5559215268831487 0.5214138075715083 -1.3568107331992503 -0.44150417842905904
Ni 3.5953558849753184 2.173115681840185 0.8135066798342769 -0.8197821019086204 -3.050416440142927 -1.1820099139038547
Ni 4.427807571852776 3.101186819237352 8.200226336341089 -0.0702142562315565 0.9993050092700337 -0.04319119067549335
P 6.66289609139238 4.332363316083297 7.470333656247671 -1.044623273590859 -0.09373213684783857 0.28373897445971136
Ni 7.9419560797088025 0.6038603430115924 13.10167107128263 -1.1167368037276573 -0.10988303557608817 0.16258576528644256
P 4.587566742508945 2.731064857437826 4.439951334276543 0.8429845081670126 1.440605556328719 1.5739802472688442
Ni 2.6696360455417514 6.270828681932593 6.350568111460493 1.792673654182132 0.04360822360825393 1.4599037424366985
P -0.1507228098548841 2.1103129742712623 5.291708560551601 0.40258230455288085 0.19586998126086913 0.9622980930283813
P 4.224249713639366 7.988806844230561 5.859425304513324 -0.18231923915962794 -0.375147862491012 0.5974428707126291
P 6.989330014950595 6.087464323877153 3.1864181431461147 -1.3960102862168475 -0.39556653535668007 -0.8617396772873287
Ni 5.729845734778179 1.3365884118258209 7.478511562772834 0.2994391588037875 -2.2183089838997345 2.3663078525109373
Ni 3.525628374384187 5.346187673329383 12.235013992539413 1.467564601416066 0.11918348704140765 1.4990649860171923
Ni 7.583378529871733 0.4436604192469537 5.4379998653033255 1.4568860386562974 1.1583202835963986 -2.357028998312173
Ni 4.609733488801074 4.542643120239705 6.180605229719936 0.33077499280259165 -1.1631750405855388 0.6185020053757736
Ni 0.9558625572492785 7.558242693602039 1.8287805431190987 0.21357048386442573 1.4014417416450637 2.2519549540889536
Ni 6.850760188295806 2.5138971333645217 11.423986779459693 0.3503390309774483 0.5388291748344785 1.589542106262843
Ni 4.6305540017493385 6.46513810148918 4.279164969137454 1.853666648925737 -0.46169710843716616 1.573112242841594
Ni 1.7139210207137183 0.1478348627090044 9.457997396271793 0.24615073179329222 -0.48890066543515154 1.5970430426255786
Ni 6.451684988826861 2.5749663349838103 6.006796362173038 1.4764536763755798 3.0091378931091146 -1.9412235102007989
Ni 7.5593123036560685 7.02863818443618 10.7384266698729 -0.9244864214972465 -1.008331124028044 0.13273602891486172
Ni 8.653025467006566 3.9726331692052486 6.7645846568910715 -0.29678732300323724 -1.528709805466819 -0.517142176779348
Ni 0.3139619014971792 8.189201976163524 13.259055892034379 0.00645449737609211 1.8669515389601008 0.3063965639582271
Ni 7.696923169572763 7.347621720721501 4.764572453208706 1.460698727534168 -1.191201607705452 1.832221077457451
Ni 6.266135306781722 8.391939185283757 3.509487405422302 -1.9620975254363306 0.0054080583894487505 -0.8490993628154989
Ni 7.804843135713811 8.769612962895783 9.276981569947054 -0.08172071420925926 -0.7855663752588601 -1.6887154687309112
Ni 8.570730038280589 0.5933818527926342 7.4573775434294225 0.8444857753028876 0.8767420642334319 -0.10112662953969681
Ni 3.3276583066254473 8.892166301069114 1.58206852961376 -0.7175118456827837 1.7643454966613998 -1.4573802046838966
Ni 8.533081608534014 4.258661650894867 11.251999015237542 1.0469958875880936 -1.5190375724843774 -0.596314670645457
Ni 0.8408638011213476 1.2138967620075725 0.7251089413345337 0.396684193900891 -0.598336329061176 -0.11202656428165221
Ni 4.30378813024332 7.011284683387185 2.1047371708258167 0.32659977837897947 -1.4711903710941114 -0.4574622444202122
Ni 4.941155852352653 1.616402090270475 2.781808633725199 0.8633049648919197 -0.9606757269336101 -1.6461503416751906
Ni 7.395698848494864 2.113660116078268 3.766982194765417 -0.9726822644761829 1.8432557380050578 0.7012825283081148
Ni 3.6052221156461077 2.422399369863358 11.737245135723057 0.03881877263941057 -0.1612397927815094 2.0994749097779457
Ni 5.1641695486178065 0.7291061478726527 5.253259767419771 0.6702567693505618 -0.5933139361459201 0.09637060291195015
Ni 7.723893940331697 6.513427307118081 7.384798968797722 1.4407012013663187 -1.3399394113652083 0.9473327299678007
P 1.9634997735793824 7.920038294377525 11.553732323168738 -0.3350232265559843 -1.2941215817001455 -1.1337981300853184
Ni 1.5263888717580938 1.6020637830806828 7.466662865191558 -0.6248282047041175 -0.5751380365678418 1.0781520014759238
P 9.112035712606476 7.776083534347276 6.591396347591036 0.7474034910358934 1.001459336608875 -1.588741978959051
Ni 0.6455751351187438 5.6848667878509715 5.567408850676406 -1.2058368411201232 0.5610861864604659 -0.9784047687822569
P 6.901354588006668 1.837562410493734 1.521729613479636 0.479681975050361 -0.30996962602146616 -0.055792424379271656
P 5.500764767689304 9.102805715502308 9.110972557095876 1.5349480730670468 -0.5642702406154024 -0.1885798753573591
P 1.6186242973654845 0.45468846773505117 2.642750105925033 -0.11362681888923656 0.1908067078053488 0.08323123731651472
Ni 0.6694560237302184 2.067952727821162 11.645637644983593 0.18736888576839345 2.235751347745898 1.615803096841901
Ni 3.975768233156714 8.905564089073467 10.54707343120702 -1.086507829639787 0.2824125423388039 1.3251689379242533
Ni 6.528908990572527 8.355461794130818 6.724529604522933 -0.5445043708423849 2.242201731356932 1.942206700049674
Ni 1.5093857602095557 7.855419093872017 7.951921894763933 0.24828629007905628 -0.9970252120969215 -1.1492664009242464
Ni 0.6625505843382986 6.312220746868269 12.400010564149795 0.8798739249941944 -2.922732886050308 -0.17651574510397344
Ni 6.707524648819128 -0.0658658494650317 11.121525030198596 -1.721696551642622 0.7096959491827907 0.9811453076418715
Ni 5.732971577953316 3.2979489652971443 0.34251772370686906 0.1178943359163389 -0.08771009902347475 -0.2909702021008279
Ni 1.8518822761308706 0.36774853397273954 5.446111382238927 1.1376064480878152 0.6637133118050892 1.385280558504169
Ni 5.805917139482864 5.722275477413022 9.015991184298054 0.16459971039267782 -0.714763336403369 -0.726956021814819
Ni 3.727978310898651 4.13399675494246 1.4895832209678852 -1.3100395384819825 3.2263565152490883 -0.14423657335529352
Ni 2.4777055862777466 0.40443615882595213 12.475288982090285 0.48903487702017073 1.0168921262241777 0.986620728934146
Ni 5.112367227207999 0.4740594746445789 12.785645560043278 -0.669619135766563 1.554529337633084 -0.8287922758270307
Ni 1.8882490179678744 3.4974035780446666 6.4158733377247925 -1.1753697828795178 2.839293132267413 -0.4486292195096145
Ni 4.1126137746381985 7.43636247210064 8.507155551733025 -0.1343527385826783 -0.061051873005998084 -0.9190904472926559
Ni 6.456009532924617 7.333578478374201 12.937943278494958 -0.3012952381759198 2.0238052868587726 -0.22341909452373138
Ni 0.20746193491061907 3.7324135043123428 3.85417754403201 -0.23932625267229107 -0.5403646376423983 2.380524767441268
Ni 3.1771383538497755 4.407162253654741 4.443095619004336 -2.1718627766220533 0.6045339732314556 -1.1419176738686592
Ni 0.8332538944179807 5.398229734923716 7.9339727315641575 1.6992510781549124 0.846628018456871 0.8102759621903981
Ni 4.095758195510905 4.15535207291774 10.22399033776634 0.4625627988715711 1.2270091043223643 0.2338022375302683
Ni 1.8016843698021061 4.178099728118523 11.253740819885872 -0.09728077343104537 1.0624011663995703 0.9567985033663909
Ni 5.681150814990852 6.468817191243987 6.682100202250373 -2.96739988994038 -1.9294684265473994 -0.9133661432143689
Ni 2.4244648237607946 7.001114167097576 4.146490906866685 -1.9946739167104548 -0.13338703223529932 -0.6914503727090414
Ni -0.03490985917720489 4.881257689326999 0.8643823132231381 1.1686034106899617 1.5337838775556165 -0.48932695433929274
Ni 6.16694741582314 9.040242748117908 1.1166406236896729 -0.3647711472423782 -0.3567284794435598 1.1849743958488173
Ni 1.180240928410954 3.1302968101043445 2.0164224193130242 1.3992377920152095 0.26683911338057914 -1.4361398072478817
P 5.749753390869987 4.5362439014681835 11.961985883394417 -0.2864342619036873 -0.05468556446833808 -0.6072968806885733
Ni 5.1635148734985306 4.424958351967474 3.1186435929812197 2.0514341043196347 -0.19301245720741597 0.995460438712963
P 2.9532579046098033 4.80882849127181 8.217311512798945 0.19416868229904624 0.17948999724094894 -0.14749107573684922
Ni 8.106500833279119 5.075797628291783 9.182013106236091 -0.7612812774592502 -0.15242142315893106 0.11533634538117556
P 1.992001193208738 3.125087071479115 13.145922498957571 -0.5116708692521317 -0.27977561893658914 1.1159351337619683
P 2.2626955238651574 5.562184358809051 2.551506835850518 -0.2660778097345224 -0.6941299764237336 -0.3693191716243769
P 9.20541451447852 1.4641394107688415 9.563950570822112 -0.5610159953441628 0.6206630175828344 -1.9808532087772788
Ni 7.924796214962691 7.265934863233161 1.4012684694550925 -0.7333570402451564 -0.2832892885168024 0.1402274521959004
