# total energy = -340870.0879313634 ev
CRYSTAL
PRIMVEC
9.26535516499429 0.00000000000000 0.00000000000000

0.00000000000000 9.26535516499429 0.00000000000000

0.00000000000000 0.00000000000000 13.56078384042043

PRIMCOORD
 96 1
Ni 5.847884573459905 5.557619523428927 5.456140719787957 0.6494894548962233 -0.6289939060460329 0.4679821701149295
Ni 3.968388725372445 3.595875116572156 3.0824474990127326 -1.4638712117248789 -2.337327149007871 0.4304093540674781
Ni 4.140085023959142 2.6188897296813085 8.745945943302358 0.15592712231934436 0.6002875392502758 0.6796011866799392
Ni 0.43132359833238926 0.6179028370960771 9.097048242599437 1.756315427268072 -1.0923974556513443 -0.18842046696135936
Ni 4.613683658801246 5.595014497315705 3.4962141756359895 0.31904279196732793 2.5105454543074956 -0.1433881093120692
Ni 8.91199315477836 3.405824149187215 2.347262868319965 1.1922704152895982 -0.25763430695285955 2.413498394153811
Ni 5.882648186448804 6.50480752775786 1.3057368696599085 -0.22797637487711062 0.366414339272756 0.5745698227691975
Ni 5.303961892086419 4.110945481621698 1.1335717440963353 -0.7647656364634249 0.4349152123576317 -0.44240817830056717
Ni 1.5837920345105103 7.325199145159 1.2528622667164784 -0.8875720649694004 1.4096476744946238 1.0657726539749648
Ni 0.9025160204097765 2.1879673212322928 11.013566597291652 -1.2040900336323457 1.482204719926744 0.4955073721183918
Ni 0.3919662221985286 4.7505422215568505 12.051902534130791 -0.551368959172702 -0.06690010425665899 -0.3489951153550441
Ni 0.2660648685902249 7.309309060863701 3.8284401666328858 -1.7645815239316063 0.3418235373072694 -0.5737285578148248
Ni 1.787240705621983 1.063125394875334 0.15888323877796898 1.6589806606706397 0.5114296997756032 1.0741557358323373
Ni 4.157457565098317 0.3001845393875651 9.571241713250147 0.6815572819650456 -0.012926478253680963 -0.07500422142103211
Ni 6.7647007431999215 0.7751822428760774 12.584380648669553 -1.6187490668441025 -0.44388579128735817 -0.30603763795691163
Ni 4.860271824069519 6.780692746403237 11.497253350956333 -0.36566743380440253 0.5818020788515786 -0.15129296598144268
Ni 9.13345367654293 0.8717189060137741 12.674681727707696 -2.3829986829030574 -1.3772672012813894 -0.7287660784403643
Ni 2.403331239226421 3.5530228484288564 12.940201793407795 -0.4894945902654086 0.9848752069979491 -1.2433317527417878
Ni 3.857426830608304 0.5735319772233323 2.9145518491595235 0.20081755507413157 1.7121934972481931 -0.4115132884939235
Ni 8.387685230520413 8.396542910162573 5.719165625312708 -0.7816238456713442 -0.2639080557767132 -1.3603172036906122
Ni 2.422973792407782 4.882434553885469 4.65500992293088 0.9237392589185768 -1.2156515132177 0.810877857440455
Ni 0.3692605425635083 7.821201409054185 7.744686252128564 0.9954748368906663 1.1582158968080505 -0.8479284824358494
Ni 2.674796883405993 0.4292129504009204 4.911770521754726 -0.42318403996363246 -0.7628956731342216 0.237342646583359
Ni 7.926242741798093 5.216765633600669 8.445317593397158 3.044643542214892 -0.14394938113217787 2.3917463471887004
P 2.7071607693788673 4.742481362468273 6.899632112058488 -0.4924307900755971 -0.9548303238964265 -0.04109779848157438
P 7.442053805877548 3.75178324977157 6.885501518729765 0.17499905134913088 -0.9164409254849508 -1.7300150988106462
P 8.710953476038187 6.477873139975683 13.152726806545902 1.3758114426714692 0.11842963959451862 0.45585530494440846
P 1.2806018138719861 7.684546684114613 9.919795113311284 0.08929801233588493 -0.17186359104394272 -1.1701884957888942
P 3.224630861444435 2.843241042291436 1.0827216212803237 -0.5162919129639109 1.1078027344628212 2.938049461802721
P 0.19720011551453398 2.817770580642587 13.503096216240788 0.3679282048141212 1.1047017269399944 0.6627422061410715
P 1.2568825043699654 5.336446227677858 2.988037234910471 -1.4337566517276856 0.12395905405318006 -1.429002681982468
P 5.095648909455977 1.9348378151404162 4.487914799773364 -0.8008978634096078 0.6081443162905332 1.5373721091275072
Ni 1.7670051697030713 2.104078794579443 2.8144591426675785 0.7834076770446443 0.28070404428812945 0.41454616178297643
Ni 5.786798086136926 2.1413811149134805 10.536769561808885 0.46482177010907694 -1.0642433618146316 -1.0697825464653061
Ni 8.143607976531456 6.032645022983262 6.3485899316922865 -0.5567333088084089 0.8701559263754821 0.3089573827068679
Ni 7.135175973839882 1.3696326127020315 6.217470329993538 0.3658605236518151 0.9678167088537656 0.2591664273266698
Ni 5.242958792960909 3.240474618963363 12.360600081944318 -1.8368894294673976 1.6360356218386922 0.8856594213277198
Ni 3.069602936996072 5.44852923043018 1.329679474224038 0.8403079897761141 -0.7560899630662978 1.1822881072659057
Ni 7.683703536784658 4.23453605562461 0.7566941529618851 -0.6403054744041102 0.3735838604380018 -0.24990737062224705
Ni 2.138582977620664 4.374405858844338 10.33676204364626 0.46421524687332955 -0.4514353214998419 0.8504476493132772
Ni 4.255151471109765 1.1960091202182952 0.533450050307027 1.5223267847586104 -0.7444590636955889 -0.9320956013030721
Ni 3.2280683082511734 1.6561359284916732 11.727840247666018 1.0723724186796693 -0.8231181082603888 -0.34023151022980114
Ni 5.849237315329941 2.174773455321794 2.418985983497755 0.7230536014366193 -0.061737071998480775 0.2536030743062794
Ni 0.8020054463949641 4.889828307394302 0.8586686531100256 0.015635649654727912 0.12688805477451695 -0.3127561876276678
Ni 7.682795531967784 8.226551436946334 0.45010169386666476 0.9734355977024395 0.5165706205465942 1.015231193581987
Ni 5.901873798642823 9.123011621148875 1.6206903853545913 -0.439086827236818 -0.9032683926587346 0.2887413127703092
Ni 3.4660952852460603 5.491613132455335 8.741701484051235 1.3345202972321661 -0.8569944492928595 0.10819407790943947
Ni 5.9665830398780235 4.894766741755465 7.804095710146907 -3.8031624264376562 0.7777481647660218 0.1930566801817901
Ni 0.3628248267900304 0.9906332552097834 6.676218453402111 -0.5575159526107044 0.3775600714769304 -0.9636656627998694
Ni 2.9014182080583066 8.293493628802622 11.16580009058931 -0.4374863155189176 0.12423879007712796 0.6918602065529503
Ni 8.359342508736551 6.345878888739047 1.877531592769323 0.1770353650528693 -0.12968412946241537 -0.34104834970414166
Ni 4.58434027864777 3.339808492858349 6.604888189287949 0.3183398523630324 0.8397644585678182 -1.332522550075847
Ni 2.542700713261341 1.2970107580626418 7.46782909771492 0.863909431245138 -2.858367889510677 0.3430553528318414
Ni 1.5722288711282753 3.0846962007377874 8.316666282343464 -0.27847515495761077 1.426001947482931 1.451870330609261
Ni 6.488973035594206 0.2934597445295313 4.045873038459749 0.47274385316963097 0.16822702273261997 0.7033504665807371
Ni 7.12793973137071 6.842325889687395 3.875699037744607 -1.2291464623803412 0.12891588383782313 0.6976865834267404
P 0.43006351001509446 2.4158209381360787 4.888242078571355 0.37211061832658493 0.6108892260255221 -0.44505821432890447
P 6.034905769670172 7.729631902879 6.240374288231427 1.2507558131200007 -0.30486418647410074 -1.194005138592518
P 4.41309798246951 5.55129128577663 13.194384770394352 0.5167454555615617 -0.44641421413616666 -0.04359613942339588
P 7.890598920058143 8.52295015216885 2.753300385573462 -0.288840814462651 -0.6502389314677381 -1.0153240104061094
P 4.547936697775333 4.045152193819414 10.420364270821135 -1.3001089096318317 0.371516950606644 -0.833703854196035
P 8.754417257629584 3.806106027744362 10.270056118349464 1.453766004970077 -0.0532891983414437 -1.2567200011232358
P 2.365528589707576 1.5429318177511702 9.7212654193149 0.705389608497953 -0.3904330707848566 -0.9186150503181341
P 6.539534079325662 6.7590303457720955 10.196990453192438 -0.3832874608790109 -0.808974212659839 -0.6987206811182096
Ni 7.498442758076493 7.970614528206366 11.773432281363906 0.28075623768230357 -0.31468271522641933 -0.813011101733374
Ni 0.8972634905048175 5.784991341858452 8.588844432343624 1.3433684916514153 -1.0606705568617087 0.24406993800486354
Ni 1.19571262884952 6.54465782079231 5.927093169163742 0.488497773569778 0.03938878621026765 0.5406045215673464
Ni 8.750182990269263 5.016281876176951 4.435827752028243 1.201759071506324 -0.05009614532544276 -1.3535773138636173
Ni 8.481858301527653 7.327404299714265 9.651576049619804 -0.3984793381281008 0.5171596602808448 -0.003031844847788327
Ni 8.149621192104428 1.3039041823866664 1.7712014491067687 -0.49777971309233626 -0.6452689890569726 -1.7396621349821069
Ni 3.919374995971785 6.519418993025315 6.358082288170732 -0.7921211456582422 0.35102191597708576 0.10574304526578564
Ni 7.62309884793594 3.1814635712218124 12.12152334019686 1.1729945977791219 -1.2480679818751925 -0.26804496076322226
Ni 8.312635852799175 2.4359823512127967 8.515087571683141 -0.7383763478366188 0.6111224250822507 -0.2811323900747997
Ni 2.2893210425770603 6.316016648690214 12.73714226721784 -0.6477884130447166 -0.6673393385934506 -1.2441902440873411
Ni 9.307605294277295 0.6667155082872863 3.7005476881761505 -0.7674611810177169 -0.42159252710679646 2.1547158325291216
Ni 5.316998246957255 7.563744982049244 8.21379396926925 0.92963582690867 -0.2711868488263136 1.3009144362522627
Ni 0.5756889519311723 3.9310122821962135 6.46467000870991 -1.0574296813269077 0.6861798683387215 -0.7607066359027028
Ni 2.6207057393150563 2.609031391669531 5.585415589251607 -0.6281156172061376 1.1720260632182655 -1.2445782235543792
Ni 6.89415628709142 5.613702718903821 12.648875860197919 -1.8436208346539602 0.09095920208839174 -1.3420562005978953
Ni 2.400718409039089 7.051204058989564 3.8473025769001565 2.449776145538923 1.0156744517669927 -0.059878678633503324
Ni 7.885271340775463 0.8565959931351811 10.379288171283905 -0.8269683352444145 -0.2858773609589528 0.5508565383126577
Ni 4.664884012046624 8.07404368913256 4.503251742358791 0.2588185570689478 -0.3777439053529623 1.8053216819634457
Ni 3.8540913027095827 7.627351646006812 0.2937793992864921 0.5289155152651923 1.0605813395820123 0.8315251013771614
Ni 7.51711244895406 8.886124282852718 7.777245637097725 -0.34971682401241705 -0.2661372022175481 1.0684275750993082
Ni 3.041992178278876 7.740917105603009 8.475517092377972 -1.7959482111683456 0.6950026088366741 -0.23287201240651506
Ni 7.305417611648526 3.2459875053515277 4.5783242834682145 -0.7577056442928498 -0.5242795591550777 -0.15625982306841477
Ni 6.736867615956146 4.427394425657641 10.327797812418446 -1.6753344194383148 1.2791009399215971 -0.22848930995778716
Ni 4.811193237181939 0.9467154712099483 6.8307571670919955 0.42630227387764 -0.7409574783002336 -0.1460348029062969
P 3.9899028803191996 7.809017466868576 2.561279603657221 0.6168061057305894 -1.7118749375665099 -2.5342438263657
P 4.639422815753048 9.062592239405642 12.41816573426309 0.5691136847506327 0.28515642363252824 -0.9846031842834849
P 6.180909238081439 0.9447512158918121 8.773949553083181 -0.47753176147657755 0.3266941378649987 -0.42161669547651265
P 2.1197372449928866 8.529167205557856 6.571216961685881 -0.17799027276697088 -0.6501589701594223 0.2886384686438577
P 1.1634506617846618 0.16055007619180237 2.049454892560239 1.0134581608419644 -0.7936874617040975 -0.6151534006185149
P 1.1540463261813219 8.379865270668965 12.719540871803392 0.40659245415353845 -0.6183623944741158 0.4084073958750902
P 6.561548563457225 4.740016777965328 2.8777748744695346 1.0212462894278154 0.26663522489988917 0.49549528793353376
P 6.490844637359601 2.4013113917766398 0.307442092173867 0.3676386985981604 -0.5522441626888037 1.8904146550790477
