# total energy = -340890.5513368004 ev
CRYSTAL
PRIMVEC
9.06972554760403 0.00000000000000 0.00000000000000
0.00000000000000 9.06972554760403 0.00000000000000
0.00000000000000 0.00000000000000 13.27446012082523
PRIMCOORD
 96 1
Ni 6.2572942090449715 2.0507011781854216 11.35286271787337 1.0649794686497076 -0.0026150690253438835 -0.22588401112445614
Ni 4.6689766983978105 0.30419858789025866 5.861350814481966 -1.785629345740841 1.1076613237889505 -0.04957086894959205
Ni 2.544520513750744 1.7557627798668969 4.987294127724228 1.8746507073765712 -1.1600740330627117 -2.234175518618346
Ni 3.610866261378457 4.466631126071285 5.110162603872354 -0.4698737307106875 -0.5104598796631661 -0.2066215633504183
Ni 4.947498893851655 4.846063085653545 2.457421220396942 0.17419686716280966 -1.8510680349606248 -0.012555468067507411
Ni 7.304330511424671 5.905660957628593 2.6334800077716984 -0.3365018679840398 0.27419452530438587 -0.43229577245691353
Ni 5.140130790339467 4.3459402909771985 11.72130851915177 -0.10798144767800112 0.3430810638634543 -0.5505588045665809
Ni 6.02178065115152 7.705538881547316 12.439602649899713 -1.6214425545158655 0.4055192756940177 0.4703514416780544
Ni 2.036507058028944 6.378674343264867 0.4003140952041593 0.12458614611421769 0.2739865230586378 0.17091228287426696
Ni 2.8237501477810776 1.4403358720062107 0.17355735712609424 -0.5109386190717975 1.46566892705525 1.9642053158079527
Ni 0.3966526470845618 -0.08973132764735461 4.938988770565508 -0.05926804163269793 0.10127138264767721 -0.413755547560881
Ni 8.644409639526918 2.2422265681818017 1.395132360913633 0.545042502734042 0.48058108982586273 0.47555689713839394
Ni 6.746950540679416 0.5519363215964255 4.78922583786786 1.4212430926417072 1.2395077510100072 -0.11263694417214151
Ni 0.7827191107527399 7.20060913244098 2.469009608463352 0.5249650152578765 -0.2541409490876204 -0.29600339364936123
Ni 7.656707480318897 3.695405171268889 3.8490753416428376 -0.17642138561795423 0.18819575254506296 0.17252205056354802
Ni 7.4369933839670335 3.8559030308784905 12.738091845688691 0.7942034821085676 -1.3495445385551403 -0.8461958160154588
Ni 7.842972429618308 8.753010530743316 6.98880383658525 0.052154827626684365 -0.13512432664138016 -0.3732856124712926
Ni 7.064282090861418 0.43060062903069296 0.47241115587372523 -0.5244315113519098 0.4046283884486322 0.5204519578788714
Ni 1.721080150168258 6.7147258065478095 9.23796239584411 1.2253425152532187 0.8002792559890023 0.6261566937075539
Ni -0.014553281279925731 4.901179806542307 1.3772513974066074 0.26663393934830854 -0.3872608437044621 -0.8271519120101303
Ni 6.54484985093706 1.8512760574182479 6.974719460105381 0.19861591943712245 0.9272557567122676 -0.04239517713675925
Ni 3.4468584180624298 4.228759439589537 0.4511843706889202 -0.04826449143334269 0.011113336304342152 -0.03023411629419309
Ni 5.871694836231783 5.52311808225485 4.680587760777569 0.9771238451873043 0.15629504718172438 0.8065051822940563
Ni 5.349577957606901 3.116439254215381 9.12195698086046 -0.1096017568902435 -0.8692838081831739 -0.15769732684588972
P 0.2674108749402981 5.541293811835414 12.332384891797606 0.2792398010377771 -0.04744456663520861 0.5713919392618482
P 4.173996437989019 6.084642917480303 12.737401639590349 0.25770269829694975 0.8285264237601537 0.15707717676338753
P 2.453968375960155 8.52533321554328 1.4046102238935174 0.07526441706095426 -0.1781512238248674 0.02735473786386902
P 6.116368816718232 7.810874671641455 5.777137507731226 1.726357704563717 -1.4315555303113088 0.3062543819534081
P 4.7870010342420555 0.9457456097870222 12.42250531066203 -0.041444897408347975 -0.6923746842955236 1.1775673047514688
P 3.86275067350989 6.455857705904883 8.376396534824071 -0.06000903356378052 -0.6416709872930692 0.18746787324010297
P 4.5463086631796905 1.0680145770901996 3.6588922709967187 0.01993581969197857 0.4611893155628122 0.08435583783926118
P 9.322317190310146 5.5009698129755416 3.745349427796477 -0.0939545372712898 -0.2579037585641623 -0.5646705613776146
Ni 1.4045830147174987 1.101182562657125 2.7327735468445957 0.2545872925964196 0.32004655064149395 -0.08561310728512997
Ni 2.067307845282233 6.452329582747778 4.874739743232299 -1.4350128927322898 -1.04674906168461 -0.7352002641014822
Ni 5.852739110272014 5.726497603270091 9.187532002038319 0.43013193203637534 0.4711808795578853 1.0975442899596066
Ni 8.652962390522164 2.549291189279375 10.449256865959208 -1.1757109682690203 -1.2450191677465396 -0.7872198517018829
Ni 2.2915023859518606 5.52130413718693 7.133960255782913 0.4724936848320379 -0.6436967594738462 -0.029352742130504286
Ni 0.5148130288088997 0.07269747648704769 9.37901657827067 -0.42418368487274044 -0.2604020995059838 -0.9187600605364307
Ni 1.418368997233694 1.1955077061889883 11.35206548901602 -1.0783738876787428 0.9103129582103419 1.7707454866504728
Ni 4.275595501243243 6.999932389576942 1.7436401849779846 -0.4294745009580346 0.067635953981419 -1.9258933076016318
Ni 5.335338488823726 8.07412344962341 7.8797329333922494 1.318744008234516 -0.981158420267994 0.8056238081303674
Ni 5.240451022320808 2.7078844065676595 5.000860622887205 0.3185663665515417 0.22052428947443956 -0.20887770637444675
Ni 0.628835801833311 7.340038020086685 6.656810168419246 0.21412352815441832 0.2678457002682226 1.020797889036487
Ni 5.183211985702578 4.804732347280977 7.165035855713993 -0.9497552233663644 -0.8322653219772956 -0.6540595907654091
Ni 8.19381661493014 6.985565944639011 9.19006789724327 0.44799801368351877 1.1076654375540085 0.14705990173670158
Ni 4.498774232674835 0.5219608793490401 10.337246664987655 0.2621332232644776 -0.3707829006540969 -0.899243844880374
Ni 7.966066741927389 6.979135509373234 4.638560467498921 0.03713161474497476 1.0310175098819663 0.8727897644539034
Ni 7.197788447860364 6.176528304895814 7.0141718583601165 0.146742884716915 0.5521508316440491 -0.22807150569407816
Ni 2.1703943434921524 5.0412979933138224 2.6760777867742083 1.1228447163976083 0.8419920623467564 -0.5294880999392108
Ni 2.6553616271260227 5.341886830518918 11.373942573507675 -1.2629037613364444 -0.4355675012296498 0.6105135878536583
Ni 1.109617407222955 3.3999588683313466 3.969780688297468 -0.5544915639620838 -0.21113667761195248 0.0369467524276783
Ni 3.3490686394508384 2.797565850725646 2.678427752609699 0.40454765580936775 -0.3323305102151696 0.01157819175590264
Ni 1.3500104773491122 3.4409812360423677 8.16223945918778 -1.7193936145410582 0.12564441217540295 0.9802572486099632
Ni 3.595883075117434 2.8274233865436167 7.430816901010764 0.7548509484528743 0.07335768695654463 -1.3202879556828682
Ni 4.0924596071859956 6.88345897676577 6.004595335578042 0.7539767733780369 0.1276367600150834 0.4479926143668801
Ni 1.128473366203988 7.415579762440232 11.569514874950585 -1.3489992075746315 -0.16796142777605913 -0.445906935482445
P 0.26412763436736203 5.63302501392015 8.097327434932248 0.07806820505833652 -0.3938197278689024 -2.2702218707189417
P 8.740222218014477 1.6061395209394789 7.9875474794217025 -0.8759414227090075 -0.15842957702622393 0.6100939838177364
P 1.6479237455790263 3.3531681553043384 10.56485051541244 1.7569173225181292 -0.47297422401288214 -1.213136202995014
P 4.088242184903081 6.232996414860177 3.825114941240676 -1.5390135013856718 -0.37270968536316457 -0.5335360447563392
P 6.868149280392521 4.012428350789346 10.308109265361649 0.6460968842749066 0.2643186609515706 0.3581721538686219
P 6.6279557442238355 7.736938270673018 10.295445207869962 -2.1765720091722645 0.25342515396751836 0.39217962116231814
P 2.3668536640732762 8.483503642277036 5.644074660301388 0.1329517444700936 0.49446658955870326 0.28217445818606884
P 6.9077114223238665 3.6100590558232324 1.5271866548857076 -0.7735109867562227 1.585593148917424 1.0491548429126254
Ni 5.1196060018959475 2.5596306761665213 0.5105357463387432 0.8855360083759781 1.166820607757926 0.13582855179725642
Ni 1.5911926135798145 1.105817192305662 6.891847565732367 -0.9505962312104209 -0.3099521425199694 2.0007131809259997
Ni 6.898034025386511 0.4199799806580188 9.01038484762281 0.26839308813126034 0.9337740174467596 1.5643954317938864
Ni 2.5913475056791104 1.6484588593740628 9.231099334679632 0.37360262949107914 -0.638773611140616 0.3555935945081682
Ni 6.477280397157024 1.7993428101236857 2.5739173075214627 -0.14031821213749382 -0.3905045474527404 0.7520880409957563
Ni 4.275767826024696 7.151986334895373 10.605151839958962 -0.016637608556681022 -0.4925390335186872 -0.4816964343772285
Ni 8.398338921338171 7.340409878825609 -0.11480186243108308 -0.1405239003903967 -0.640710937372645 2.069540841222674
Ni 7.764356050374635 3.7790552480760407 8.150106887600995 0.01008360948824715 -0.16901763695471536 -0.23974508537726452
Ni 3.089674494738215 8.465055820936286 12.440027113045607 1.6911734433531003 -1.2036148937681401 1.0907789462113149
Ni 0.09420451618484645 4.757515357163008 9.959933393244727 -0.14069847829504803 1.102085629473386 2.076424969937017
Ni 8.95786841698891 2.4929228462937467 5.938515130698768 -1.116468123447303 0.19221155857267544 0.07204153924828238
Ni 3.48311011024482 2.636696132377121 11.552071979177462 0.2703594678290118 0.7698980725939837 -0.9353560172218988
Ni 0.7041825450920564 3.2955391204965063 12.54723217353224 1.4530430107611234 0.9526811387639077 0.5609206074168791
Ni 3.030204305686443 8.480592260443023 7.683575634664934 -0.513013242212639 -0.05866948881675057 1.3678225109287216
Ni 5.653205152800765 8.062922338829 3.4490369660890026 -0.5999383834409732 -0.2909964273530731 1.014067512291189
Ni 2.963940892355309 8.113141408034378 3.5216872800042838 0.6892009145532324 1.7563501371607493 -0.22749557858595015
Ni 3.3730217840727277 4.463384164399708 9.302064493626816 0.04822926732003307 0.14750033170822985 -0.09608083958567325
Ni 7.3082667722220584 5.913796501258216 11.517585255546159 0.12876573141320405 -0.4472943027482748 -1.440967824764144
Ni 0.7275053438028436 0.30740836368794383 0.4226909215620259 -0.9335449321550889 -0.9950578039579058 -0.35918645406574917
Ni 4.739566370715934 0.3861000216519347 1.4146059681902932 -0.49645970872933204 -1.0071988101958138 0.4596317412677052
Ni 6.1742699432862524 5.465017421729359 0.42617551003750104 -0.8413526289905445 1.5531010898269897 0.8463261709457359
Ni 8.027242039343006 9.0014484472457 11.542116141672182 0.2776071505303606 -0.8530066682897052 -1.8837966355418976
Ni 9.16813185953691 5.031693154179183 5.961042514497272 -0.04940143325126331 -0.99195139711844 -0.4780331265930284
Ni 8.333445036533316 8.820480217544617 2.7622818982369917 -1.757817465734895 0.5511581287134766 -0.584109901049149
P 8.540788027521963 1.611245776305675 3.947731279024361 0.012935220004429338 0.4245276984757204 -1.2581726744093622
P 1.6367044953339385 3.3452502850828663 1.305801915126289 0.4530546022708198 -0.9729272906074535 1.0992800417037907
P 4.790393111519066 1.1335705518448445 8.11763727088522 -0.1170085908772759 -0.017035615326048078 0.45504077946291305
P 8.336936880789064 1.6774547712847712 12.530917551591363 0.026902737928114956 1.0761280290673596 -0.1731522279483792
P 6.51724160700331 7.6982196131982565 1.5670635162863367 0.7765736848419464 -0.5919013720691098 -1.318135942336872
P 1.94151982454729 3.404330475945035 6.1502959382960825 -0.06308381583436232 1.0344386197483733 -1.237242352014598
P 6.966165802137602 4.165752057655321 6.038857130020924 -0.05232194933216795 -1.3300928575884319 -0.19000272384681471
P 2.394198885972177 8.710636773956695 10.476070601953209 1.097679272875574 -0.7495251653645866 -3.0685177777293284
