# total energy = -340857.2503269996 ev
CRYSTAL
PRIMVEC
9.38871818829693 0.00000000000000 0.00000000000000
0.00000000000000 9.38871818829693 0.00000000000000
0.00000000000000 0.00000000000000 13.74133809474727
PRIMCOORD
 96 1
Ni 2.3486911144660203 6.202356189239383 9.547619361015599 0.776636676869398 -1.61710021838677 0.16068880537404584
Ni 7.111719260516822 7.21441305935049 8.849063994378133 -0.7539595469868564 -0.8181453376361458 0.12095394867826911
Ni 0.14247943075335698 9.02711164487015 12.101584469659663 2.7070805799561892 2.0049567866937017 1.0094115015764165
Ni 4.378569527615997 4.970030603235362 5.264814758258206 -1.1642410199562079 -0.06514249813560395 -2.153795120487065
Ni 8.479937152638827 9.26793226473517 8.506162658972901 2.0911075116498568 -0.10031621782325949 -1.6155344165615466
Ni 9.47631486348387 -0.11087794442182977 2.968142775426655 -1.3255504896333878 -1.2856446545773859 -0.9563272201569272
Ni 2.788946884708147 8.151407128065074 1.306244841533116 0.7630746219142471 0.04725404789095733 0.943498186713059
Ni 2.711752844297613 1.0590380156005637 10.944206203819249 2.0333268531959625 -0.40376912577213037 4.381560621814009
Ni 1.5729952231113222 6.02658999725135 1.1253524094497105 1.1841310740119155 -0.7922296462116485 0.7247782974372099
Ni 7.037820660167599 1.5353370747183945 3.9881209070184687 0.5948481134022593 0.2126726546405047 0.7096357853688166
Ni 1.9881549498096205 0.42690313532703755 4.326172030641155 1.4955310047220052 -0.04710209569412533 0.39039064758269537
Ni 8.209664124020724 6.941717741456552 6.464584964169364 -1.7552247653070547 -0.24516522795157128 1.4065399821035778
Ni 3.4814211786170928 8.459497913284203 6.151887134967086 -0.10223683188474006 -0.292597967512238 0.5454433377168864
Ni 6.815589702186895 -0.029784769374650737 9.903808549180868 -2.4270838461477298 0.11310719894034069 1.0593670075589368
Ni 7.8199102685643265 3.31149476930181 7.072803962767172 -1.7757987328036644 -3.352418474577884 1.2617081983664464
Ni 4.3464131680433775 1.1835418066348733 9.205789278348247 1.1285880466392884 0.2088424822611371 1.8340074799339123
Ni 9.239709778056252 6.477088858966098 9.176135951027323 -0.1918444050412438 -0.9341722813264428 1.8945788137590664
Ni 7.880345447124605 2.6411496840097 9.630533947378716 -0.18680709972765247 0.35409515558577087 -0.854802069627231
Ni 0.9814027054382302 4.36526571403515 8.50891167563943 -0.3026388966880078 1.2692626136749368 0.24139984737186812
Ni 2.1795158026006085 2.77622517165095 0.07852723838405584 0.5855366061933464 -1.2585992204238194 2.152240374405435
Ni 5.577377389919507 8.910118828334554 7.682727013704375 -1.0929345591017372 -2.267129090726231 0.7502612721996628
Ni 4.616986635641429 3.2016186011037457 3.3386093872421676 0.44743442787056487 0.308303808283269 -0.06974245880146053
Ni 1.9960414730332703 7.075187758298702 12.538998274925838 0.28931775409906946 -0.858330908716096 1.2957053812474977
Ni 6.980220874480585 5.091670835242036 5.360990908970615 -0.38679907357669513 -0.6472775348465691 0.08329988577092105
P 7.633544213814983 1.294347457927153 1.494879210581071 -1.7229453364480583 0.5433617725975094 1.1457738143899558
P 2.9252429057054377 2.9693135485766424 5.9455475212820375 0.6743106277049613 0.15929218213683533 0.42036302557506955
P 3.8281934825045987 4.110117910313832 10.081992336085674 -0.12673276014357532 -0.5428382959938716 -0.1957851348565467
P 8.797717094961298 0.8901518762533527 10.488680622421237 1.576361603016827 -0.6288990323393815 -0.7348750195515796
P 4.732148652142963 8.035897728992973 2.8635158395313804 0.2860686510341525 0.8212705135286889 -0.16339206323782182
P 1.7293267685839326 6.114825170174994 5.5389681440767085 0.3492892495566952 0.3051048417299971 0.5299100179679777
P 6.304026617797602 1.2784617468623727 8.136465922043506 1.6485563800135221 4.005234165633864 0.40965540934957834
P 5.0769493252245566 0.8854115124728517 12.008514106902473 -1.6942837068473078 -0.5009264862514341 0.44961935133702563
Ni 3.65736575624947 8.253396773039487 9.73528481435322 -1.3716287720486895 2.687097709076359 2.807560834161139
Ni 2.6302775484228116 0.11523712624652097 13.10455024401189 -0.3529422729282502 0.3903392255194697 0.04273430564373285
Ni 3.914813795911019 5.805964510069747 2.993660372414224 1.2928604555995347 -1.4950705201458185 -1.389491254151407
Ni 0.15813699596773884 4.028210733405355 10.821536968306251 -0.14445511712400283 1.0628835053526275 -0.028628976590602307
Ni 8.026959669339504 7.008171088333925 3.3978897534732684 -0.18464248797616586 0.6580915947429375 -0.4726893457826117
Ni 5.179530459440746 8.133070961570088 12.813852997988157 -0.8449370039076932 0.7572047933970315 -2.111962757832311
Ni 0.4170778418109072 8.096896230640656 0.5639990751084413 -0.1274765802881353 -0.3593875143329617 0.30103529964631387
Ni 9.188503709411268 1.0112588290706186 0.2623095179058416 1.6702747455272202 -0.19665545327664194 0.31279603972666775
Ni 7.2851758278465 8.681869702036757 0.15139401861151827 1.9185296681477089 -1.9602460740498884 0.5402355682637019
Ni 7.831909050326023 3.4857681551082234 0.4482202198262005 0.4233403630358386 -1.797044786666634 -4.599700727326988
Ni 5.604285456061151 0.7154315874642654 0.3835967341110768 -1.0974692137472972 1.7835387817603994 0.942952341511918
Ni 7.991188653289378 3.241971311598087 2.5163416985081932 0.07734212552558938 0.44380017355208734 2.3195204598437535
Ni 2.383410594086326 4.335306314503404 11.699636547104603 0.9916616337921632 -0.14847889357141528 -0.10529258799192834
Ni 1.2305417295605765 2.4084315278851673 7.38903382772747 -0.12320726348882009 -0.34098947144174824 -1.3689437690173585
Ni 1.809703584438297 2.5139513308739767 9.671757930914909 -0.5327868252951404 2.2731513856609107 0.6272141884377908
Ni 8.438429629815309 5.412295559155894 1.440751372856088 0.5575624895779236 1.5288656143183927 0.3493964645585208
Ni 9.134978627389808 4.692471929353506 6.422742264108839 3.557639815146666 2.606028769518486 -1.3026607295194081
Ni 6.8354186748635 9.000550961299071 2.588524980056272 -1.156169812912299 -0.6600541177859471 0.18840504034239167
Ni 4.1462269202164 0.8550483980618 2.5161079194269202 -0.5443269647242561 -0.28521375923302494 0.2603095397921775
Ni 1.0809325062643151 7.41446786512374 7.648249763011653 0.9154405092448944 1.1960159983749596 -1.2630665121665536
Ni 9.531238864505715 5.539381247674137 4.12526003490324 0.4236884904038768 -0.520617022701826 -0.18654998941152387
Ni 5.11813763163188 4.858079528332028 7.2541076207043815 1.776626113800966 1.5292376529458307 2.861828337255452
Ni 0.8238534432250157 2.1536874390431557 12.287243553934315 -1.1618954025421666 -0.09454306278490815 -2.631887896673435
Ni 3.699230050361678 4.3820621307579 0.500672171366158 -1.1053740704166706 2.2435461611999683 0.7739100219668542
P 7.834444004219339 4.913904846293721 8.53981558021439 0.5377500828376868 0.09117080387856556 -0.14142147250400158
P 7.720352301583871 8.724719811551921 4.886598698503646 -0.36816448919464334 1.0789215326520967 -0.69637429237322
P 4.153418678298919 1.4663018303570887 4.790024466142805 -0.5742528057494111 0.026566180524302634 -0.8119754613800081
P 0.9081171883824644 7.336851332397653 2.674476816732307 -0.08812430374275791 -0.7080285887826967 0.33979185158922126
P -0.004761018960372396 6.320616482721636 11.573559206912812 4.934031812911954 -0.40248305997085526 -0.33967460928506665
P 6.454433882134352 5.1036790057218555 3.2947603181186746 -0.4446671495380729 0.5515803038525597 0.25923147623665027
P 4.052114409747513 6.255111396374726 13.395962910356625 -2.01695766780932 0.31231498632519117 -0.8495140817554144
P 5.233816027630201 7.076971614742146 6.6460116143139905 -0.49539707179277265 -1.267895558124081 -0.47825886945058926
Ni 7.403445510046877 0.8062073475120992 12.061843903586967 -0.8910785354607621 1.6078733004718635 1.3013836625791972
Ni 5.979712127661251 7.319425871560637 4.576800105457872 -0.7158840802713735 -1.3143235105693172 0.1663442038876103
Ni 0.45612833710153405 1.9422441181862304 3.53831211608579 0.6784927841071089 2.9654641063702476 -0.9007086023513584
Ni 6.107717910555585 4.740701774353375 1.2851033260628606 -1.2722371229222285 0.11428065042315158 -0.4895321283715634
Ni 3.419145811304629 3.3987535155406206 7.965510509221899 0.07283446746322295 1.0584668643421706 1.4224599957679438
Ni 5.25952233785205 7.176726744803193 1.040812635979434 1.6548383563674922 -0.451681633182693 1.719798820399277
Ni 1.94113624944767 3.956828309513201 4.436912899778384 -0.17476945183682804 0.7935686767380462 -1.2464278751686082
Ni 4.743593499535379 6.882681481896658 8.816964905986065 2.258241558428614 -3.711402068604208 -1.058839160079925
Ni 5.963807639160224 4.761826390131008 9.73590259200574 0.8700335418650049 -0.9767044982616987 -1.3295650101094196
Ni 7.562603059674628 5.485752889753319 11.52568425545801 -2.6279908756118737 -2.4833161862778974 -0.359086181042459
Ni 5.623184945643539 0.09447773160388755 5.4056502244681575 0.5702226015440954 0.5805016148726003 -0.08335387893730806
Ni 5.656205067283511 2.8181082431994042 6.651687094419581 -0.9816291892568255 -1.8191552454124282 -1.1360496451236564
Ni 7.94926802686843 7.747833079531041 11.669789812190338 -3.7692503470712437 0.2857287511962305 -0.8608271927753883
Ni 3.1306492808090214 6.186817860745168 7.32385828538669 -0.89944799047138 -0.5439652105094632 -1.4759021747474839
Ni 1.3635235330603097 7.9303309824135475 10.543879712884097 -0.411986114365284 0.7924769863357642 -0.9868896663248166
Ni 2.096397481054214 0.32897504981280323 9.11915018750558 -2.1091273452660446 -1.2602295569383908 -3.626370287743845
Ni 3.5910626288620717 1.1788568362913003 7.217486925664089 -1.0309935986225662 -0.241383649421952 -2.549375539800816
Ni 4.724299683791807 5.698566963456259 11.351540433961699 -1.5553744592421985 0.4126309470381345 1.1705175969935389
Ni 4.88055611951943 3.2534537138629966 12.478934889603247 -1.0021082830467838 0.4632001753452539 1.8451282724374223
Ni 0.6910237369588816 4.67194819153577 13.324357034973131 -1.2344887005288612 -0.5233120530354858 -0.7122068885301025
Ni 3.1157587738653203 7.5700389244283555 4.06893429826557 -2.5267140936475583 0.3080515830631469 0.6113689938754181
Ni 9.139785651068983 1.2568113628698292 5.649366325002432 -0.36763458483310235 -0.5147461657433458 0.5016052574860136
Ni 0.3145295681081513 8.055182156018422 5.3557961312329425 2.6312291800435137 1.0313622948158947 -1.1811115704593014
Ni 5.75212021163209 2.353901853024503 10.73702817760578 1.650305501494145 0.25919033858606977 -2.187897718597729
P 4.464457521008793 2.5912955907744855 1.0420294138482256 0.8369789254028811 -1.3531615664824372 0.7404041768999249
P 1.0050810525454263 0.28562546049347487 7.266666908938044 -0.4022701726291008 -1.2491231626125843 -1.2207104157978461
P 5.6687390059782405 7.5110308310228335 10.810846973850955 1.1819597773922095 0.6261340679997346 -1.8649694755330655
P 1.8956948537304499 0.8511239138862219 1.7687715900357424 -0.20216789845443892 -0.11052735402830642 -0.3408043520141356
P 7.838471764294274 3.2197106609275234 11.962796682872424 -0.19892728002995416 -0.13990992095548163 -0.13207551251272737
P 8.566360302964657 3.4207794482580995 4.592190092205737 0.023452317485669286 -0.4415345174463622 1.4995023306649273
P 1.374865104553368 3.863297899567964 2.0348863553969947 -0.22698958548380907 0.5755036474373766 -0.533933537305074
P 7.077431661930192 6.388111977310706 13.433436101002519 0.20848895557646027 0.5814421244089986 1.97275809047397
