# total energy = -340860.48173965106 ev
CRYSTAL
PRIMVEC
9.33732322157234 0.00000000000000 0.00000000000000

0.00000000000000 9.33732322157234 0.00000000000000

0.00000000000000 0.00000000000000 13.66611636586553

PRIMCOORD
 96 1
Ni 0.39575871630149884 3.7119968836172346 4.001179390921473 -0.16821828098187158 -1.020959354315016 -1.1069355013665194
Ni 5.702462119342932 2.6826316801586714 5.38999792993656 -0.2520683828293078 1.5177990720915862 0.27354943552121924
Ni 3.865950671417028 4.737963301367458 11.16905784785038 -0.6988011566471579 -0.41060234664387996 0.5101485190703343
Ni -0.009416690623246689 7.834593225307498 8.31810037175379 0.43896624249855365 1.2506403705880589 1.648495959089232
Ni 4.559825846027547 9.08610268917029 0.44087012672102455 0.3825089308417735 1.4555032993761579 0.3421865770736429
Ni 1.2477651971895898 5.118141759886161 6.9958083943177884 2.7298548975382277 0.7744298990260663 -0.9116756428858234
Ni 3.7911026872465317 2.0826526294027574 0.6628257731930844 -0.16989181202955256 -0.03818371015857295 0.8699376397170889
Ni 5.537312880817038 3.109487418226814 12.810098033323836 0.09099365487075296 2.036226800451577 -2.057396235440341
Ni 5.799243476120277 8.29533410990193 5.684284218197334 -1.5873335286472985 1.6729906017964864 0.794450050901735
Ni 7.350499694953284 1.436733947643994 12.025376304672847 0.1620615173518564 0.08064599308784176 0.7899130822633299
Ni 5.15638743642837 8.916901052299833 7.887754342208235 0.0327468554137178 0.4681053259563551 0.6936658923031215
Ni 8.520438301815894 9.269300973779213 10.137348042492464 0.0706819398965944 1.0151404336403935 -0.2721728668886667
Ni 7.743274202704273 4.492373021969704 9.638097235104322 -1.5757879899015441 0.23447843766168647 1.580712166676039
Ni 5.2438874937714 6.867171825115785 1.1065717955134744 -0.5221938802706425 -0.4592897845472541 0.49405032795689113
Ni 4.3365330948482494 3.799300857169398 3.5987668979832605 -1.081403675644002 -1.7288043663319967 0.025405841667614313
Ni 2.171506598635098 4.457124626230729 2.793190257575183 3.7977134875079432 -1.2520395649284308 2.1556643124853196
Ni 7.235743990679907 6.794564798555185 13.253140021461784 0.619098758419508 2.7221022501760026 -1.7796456173535804
Ni 1.9023769270100712 1.70320248210727 2.2259917479903475 -0.9226172294989918 -0.11472827948353145 -3.242534153450216
Ni 0.9075953018662138 5.786666101534741 13.074564645655606 -1.1633401054084933 1.774850509957782 1.1850209328160366
Ni 9.351516106092237 3.79615417919217 8.418532621970588 1.4546851743502365 -2.154467206853425 -0.1921449670007981
Ni 3.961210044484319 6.336979929261355 3.3077468054389083 0.4563260739332399 -0.7579211027377657 0.3994507009024346
Ni 0.580718953831203 5.821914497273716 9.597713311509338 -0.2019257005366458 0.03596433390975097 0.4260379644726598
Ni 7.383591168992736 9.095094531579992 3.7092031564635657 0.7148399552775754 -2.0260169497981106 0.25916668443698593
Ni 8.58353993318119 3.539293750481319 13.553931622917617 0.5390636594427878 -2.3022961255456673 0.2766023634149301
P 7.128430133136055 7.68011654739873 7.881604781033747 -0.8063362608163597 -0.5256772108335527 0.3693988758223767
P 0.6891981093321999 8.30314944956644 11.233383602310083 0.5316154306948586 -1.3025368023470343 0.5261261254455133
P 1.8559704298384936 7.678921370006785 7.453185975032703 2.1671535440718417 -0.4453904008573426 -0.8220829821276551
P 0.4164847729960161 1.3604293410270658 3.8078174298193366 -1.080311728131404 -0.34459004430881296 0.09020818285498013
P 4.999436367825343 1.1090312464903342 6.196859386040977 -1.719781079787464 -3.4572143254390526 2.616844114966435
P 4.407104584913196 4.873475875502489 1.3328618274960062 0.15473618733503672 -0.815784293603137 1.5243738970956264
P 5.738336115748003 4.3437041591999135 8.581419427042826 -0.7612558235379535 -0.6358345831169502 -0.12786173154169592
P 4.4065816948042205 1.568726350866815 2.5914508499413893 -0.007179291357258603 -0.26588137745300017 1.5610509408016857
Ni 8.782789076670987 5.776768538757704 5.117058630374712 0.43469435459607714 -1.0679596343239544 1.5497727967847053
Ni 0.7398904379327018 8.408735902285997 1.75986789647048 -1.189722452056764 2.1062975891267337 0.3393565638240156
Ni 1.9169244768276403 9.211297520976428 9.774621975093156 0.30116565457659106 -0.5903715656881446 -0.7519222048418533
Ni 1.7020166420387004 2.079048422580176 9.237338382135746 -0.0401284925897696 0.6027023193393556 -0.9999832662839812
Ni 2.2526292641133003 6.7219951212880815 11.457904211513135 -1.6598923738516316 -0.29379481603381663 -0.32767784193450666
Ni 1.6091196117851743 3.028654209773223 -0.13794961553579232 1.4700295180167908 0.29394908222349375 -0.2692358957475298
Ni 8.091939194833827 6.922411430199699 10.901734948298333 0.14449394078173822 0.08490605391577635 0.07171938002217325
Ni 1.888072147600241 6.552373304865772 2.0932803708676846 0.9546266925260526 0.2048529014857698 -1.0434346525993965
Ni 8.902820368650993 3.7064411762093696 6.0663208040675745 0.3711845069678898 -1.811021046341068 2.6237249012466686
Ni 6.597762033789522 1.6746302725811075 3.4257397597262473 -1.840982625700165 2.90790353434696 -0.7573132939504377
Ni 8.17482661442982 1.1507690819746306 5.397323060123904 0.49447455997850326 0.9694953821077689 0.4521032941011439
Ni 4.038336335558208 6.930833695883556 6.876721105730951 -0.5361644835181217 0.2598182019780557 1.3953649393233647
Ni 3.259099350657436 8.037876092495107 5.1509092288045135 0.7389093375219533 0.9474900814812715 -1.4584999201106363
Ni 7.246173780889293 7.853660039638355 1.7110794481060512 0.9712776708191724 0.2939508819957067 -0.1736019138912881
Ni 4.760298178879411 0.8019827046412077 12.018625419873038 0.046549051404132735 -0.24480141685424933 -0.7585520514535453
Ni 8.006978889448678 7.870028367513965 5.864417993274726 1.6166266211844609 1.883253618554234 2.8217186137187595
Ni 8.20019612203851 1.017758910503982 1.730731712612494 1.8427654286322004 -0.7092663178445398 0.03342871197209082
Ni 6.883876296632878 6.877900409673158 4.303172705895611 -2.027152091843819 -2.60334608048 -2.1791125162059313
Ni 6.1543325467315295 0.502683207460631 10.08522523595098 1.244475379427928 -0.13900386420144445 -0.43759687295485283
Ni 4.321275908454213 7.068026988226007 12.509184112931797 0.9650453167562153 1.5164962941197624 -0.5386440554068659
Ni 6.0016766468808 5.6230201720721515 11.19244037304496 0.7136469634107386 0.08664437676312176 0.37081298256108397
Ni 1.6029009544177155 6.456254898048021 4.494416962056396 1.0014868474127012 -0.8085975460467107 -0.026211882508677436
Ni 7.977164815913699 0.329467455271452 7.713675821339247 -1.4315892117627216 0.3872788414265911 0.1736098843110881
Ni 3.2006757183027954 8.740145520819357 2.4986854759474446 0.8506304547480446 0.6975544287242502 1.7166556467846048
P 0.5293440668920204 1.2371393231893373 13.827786913902509 -0.5613990897151944 -0.3984927078645395 1.1150954114694924
P 5.880198069777737 8.031704121744522 11.396338569842953 1.0386817112954436 -0.8315364142310712 -0.6486579601338635
P 7.965904003923977 4.680183944325662 11.988381829462828 -1.6427708836799966 2.0588316823352866 -1.4976655345665044
P 6.583989481812042 9.467018796235582 0.14787145535360285 2.199011312012387 0.08291139208325075 0.20770862576701002
P 7.853716063578603 3.4314476655051176 2.2816944843136397 0.17454216631737035 -0.4504102226694372 -0.05235048857725822
P 0.3066713139847942 1.4939530652833153 7.435160272258109 1.5161787628793435 1.7500036261174314 -0.6322355529117821
P 8.291953998840338 2.1557732087489594 10.177703954117327 -0.31846635063856765 0.26520594865253033 -0.5489176694187321
P 4.117049971605773 0.6178273443863909 9.75533853486001 -1.9027682915483937 0.5554454432349208 -1.0262311442369165
Ni 1.05860036294432 8.885761078845666 5.198085121422156 -0.1707888699225252 1.0891010442882598 0.6168636984414021
Ni 0.7512362195651333 4.301751565278002 11.550109346104607 -0.6212829105550204 -1.654846583897608 -0.6749420906413731
Ni 6.129738036962931 4.847247334143342 2.571320514478169 -0.5932686847302815 0.2191721463219193 0.23676877635775995
Ni 2.7981903942422615 5.81903860167435 8.96534121850239 1.0555594608873886 0.3222751828616966 -0.9941232079587781
Ni 6.61316861735755 2.368645507042244 0.7834378466869883 -0.17135476972832425 -0.891024285184059 2.0015652445136496
Ni 5.562654376455603 3.080681775616288 10.381970975188615 0.14223856908865828 -0.3064788392593883 -0.04462432357759411
Ni 2.450253713335924 1.757611065410848 4.269076535861057 1.754807732374294 0.5196418032727502 2.9962252988125044
Ni 7.253680988882442 3.897949678621655 4.60069811163502 0.9316227754317117 0.39992044145000155 -3.168076548561273
Ni 2.262293393805973 0.06280377074964753 13.033415995276243 -0.2376380663365907 0.5025812482460377 -0.5940906664109445
Ni 8.232951452436476 5.498805759220342 2.9564178749505925 1.889352018142488 0.729503213716705 -1.8051450471762653
Ni 6.679099457705338 4.88145928698774 6.545441275992496 -0.0256809497058719 0.4314287964709279 2.251444847221755
Ni 6.407896900291159 2.195214062683113 8.246995720524156 1.2359876536718908 -0.0336948211492839 -0.6020834548084341
Ni 0.7953382653278688 1.6017057770257712 11.689818113364167 -1.1232612351097366 -0.36276054457025264 -1.113229047684715
Ni 3.2348223098835724 5.4012960912197805 13.422709548873195 -1.493331940188157 -1.022744985460529 0.43403435241457505
Ni 4.126564704124453 2.487108128695324 8.127963522145228 -0.2013903968584661 -0.6469967703813566 0.8094246699336963
Ni 5.4652567563355365 6.489570467848462 8.8497675647014 0.3797699346440556 -0.3907724564021463 -0.014630605428981256
Ni 2.2197898978049624 2.679905181733299 6.787481505043241 -1.6676838448715925 0.7008043031201155 -0.3439770933151624
Ni 6.760427544297783 4.904671872896903 0.28890052013832607 -1.5403731007373602 -2.019432097491741 0.9532768633663776
Ni 0.7088531750356548 4.597950137365887 1.3769974876228903 -2.415897233403291 -0.6090133491590479 -0.49856184267399944
Ni 3.962629317637252 4.6090615521816165 6.758946644810577 0.24063648684328234 -0.7314526241335919 -0.03885193987019115
Ni 3.734331761129189 7.6648500236813195 10.169121086471428 2.5627347347165412 1.1473828107482886 -0.7061560543503322
Ni 2.9113680908653383 0.46338801577112043 6.792333178268663 0.34652017145199027 -0.7437766929165835 0.458113761961282
Ni -0.23732207954957804 8.47307939766011 13.153296022617583 -0.44096681786835024 0.44979830011705113 0.019754814029424042
Ni 8.625324455282358 5.952646361840971 7.483661131062601 -2.038200893458812 -1.08994513745611 0.15609887201051825
P 5.160925375588407 8.101267180885015 3.632030178772803 -0.20961458454047127 0.5847717030028639 -0.5850532387990247
P 3.632144094117973 2.6006126316365106 12.347841701145711 -2.1049400466575747 1.2578685129053822 -2.0132383099762037
P 2.956112544476244 7.861316644805497 14.250752723052807 -1.4806142355111727 -3.12437859345269 0.13484690461027743
P 5.294010245646052 5.091110208716802 5.01838926681103 -0.41947239544000015 0.9084334817994419 -1.0148216168483943
P 2.17638068143662 4.038999285517802 10.056348629682807 0.014711338068245632 -0.13294094583681623 -1.4282282657102887
P 2.2908469286853865 4.195548849215723 5.166598733270792 -0.05718879050616602 0.05065047516701599 -0.47299813527228207
P 9.133088100391088 7.602990256324841 4.077941526383754 -0.06628149683605358 0.2828288039406161 -2.2377676068449786
P 9.121220362382019 6.530608004079665 1.1270252023654546 -1.038769128802927 1.1770466563613082 -0.3610566745052685
