# total energy = -340888.68079049047 ev
CRYSTAL
PRIMVEC
9.09644964566017 0.00000000000000 0.00000000000000
0.00000000000000 9.09644964566017 0.00000000000000
0.00000000000000 0.00000000000000 13.31357353964399
PRIMCOORD
 96 1
Ni 6.156377195486729 2.345419532095088 11.768028046206906 0.02735782318766256 -1.060971118821263 -1.7838066907098054
Ni 4.589531902244378 0.908297800475512 6.038637296892363 -0.3680624163991403 -1.1535889395590004 -0.7794718323253479
Ni 2.3244522151978027 1.2968080830849482 4.52879854519604 0.968895543740241 -0.24312094382803293 1.5956870428183165
Ni 3.4322269740126914 4.349885931025729 4.917981055449169 -0.2128207501825948 0.47738803680986175 -0.1149794762623891
Ni 4.970454836036449 4.87754369729941 2.545115714875777 -0.2449916784881845 -0.7011238912430634 -1.1338608650024538
Ni 7.079439443708872 6.277951247691598 2.645406803373669 1.1938331317910278 0.14962483425040038 -0.053910891085842634
Ni 4.826312491761228 4.639525990603371 11.333725325422796 1.3190911071612896 1.0774734873516605 0.30128469665295854
Ni 5.763956349088077 7.975621682633194 12.353385503504958 -1.2214015283275996 0.25118340912119325 0.5342071026814348
Ni 1.865972950010393 6.239127599744693 0.48107575625228943 0.25597286009003656 0.8068959899745717 0.44403902903577075
Ni 2.4998135753478543 1.6308661072653867 0.4374519117211346 1.084358644507268 -0.6682129994476557 -0.8534789799404332
Ni 0.29550272150401996 8.563561622042801 5.045950821541447 0.9320086980162208 1.4642265381817687 -0.5166266705955103
Ni 8.42182983697703 2.127686908557811 1.3883656700847562 0.9822439400226891 1.0008566700278698 0.08143069377266622
Ni 7.021294936286986 0.5021313087130905 5.122463790139337 -0.302541194767879 1.1279581263647736 -1.4091784481676892
Ni 0.82473053502129 7.567027348406613 2.381505148638052 0.36523163181856455 -0.30562600434078974 0.4979406641502328
Ni 7.740687672435279 4.1051459478927725 3.7493956197622444 -0.09709745377564567 0.05795549346886149 1.4450358241859307
Ni 7.60415905668198 3.723386140714779 12.839344234035105 0.8922026217628763 0.9514233550974065 0.10644367087723602
Ni 7.982061969124855 9.007159095280555 7.169919101401813 0.5213158485410634 -1.0576631374939527 0.45074035231534626
Ni 6.94306546760297 0.7533170362076159 0.25857113512528723 -1.2889526359046963 -0.21692011706294897 -0.4951569307575085
Ni 2.07611913437529 6.49458320079739 9.266007672126175 -1.1101696920331008 -0.49878681420061194 0.2283934078098712
Ni -0.00764374680641603 4.802661722159083 1.4949414957819258 -0.5532373798400084 0.20873809547278888 -0.3231984660069143
Ni 6.517779147907185 2.0526957760193203 7.038274369571356 -0.20372598697017819 -0.6279580085823508 0.747772444339538
Ni 2.9017311153867524 4.100343022373568 0.6902886448628867 1.2773826716789098 0.1549282487411848 -2.122327646006403
Ni 5.831770382697302 5.540083621904089 4.683276275787399 0.7158275160018253 0.3440773663384526 0.8136567057371729
Ni 5.584801769351835 2.948095720256802 9.270561354919574 -0.7117314915555807 0.26144956693389165 0.313674328566563
P 0.17272520898439708 5.743480240482529 12.482807062992814 -0.4945174974012967 -1.414091312088274 0.3302011225769926
P 4.285101015215548 6.227829809034746 12.762405551584376 -0.7906751572403351 -1.0050174862737788 -0.8666990781751331
P 2.5296954130951788 8.445271388232692 1.2596154285956074 -1.3305736538795923 1.1254186477723715 0.4781154018941895
P 6.445526046772635 7.721548741957237 5.8210274754280205 -0.3945815457355914 -0.8194985092299305 -0.21130379931743612
P 4.498531017975204 1.3140640484446666 12.905845649931411 1.1996407396117403 -0.815218393797338 -0.22867082984097392
P 4.1658647506213535 6.2384544624560165 8.26976630417506 -0.6505724035477569 -0.14677605194769558 -0.2571727939354087
P 4.478455153162923 1.1744153503938526 3.7839703159856253 1.060031380615813 1.2713639762886557 0.4386476828168704
P 0.19957974822264699 5.7833499801618355 3.5223054782673806 0.03220255287447357 -0.9248345488652847 -0.6030103374980776
Ni 1.4823665635134626 1.0702428067462548 2.4432009100801992 -0.9154816468954748 -1.5055853036342133 0.5367820624974626
Ni 1.9075892080603194 6.6706540840355055 4.498470071761229 0.8110246674309645 -0.3979409491261276 0.9105988648818769
Ni 5.9967617900217975 5.617221516606467 9.190173298686869 0.07111619922053558 -0.1368953024988739 0.170182603797094
Ni 8.844469089767346 2.3361320568013233 9.984208773344514 1.0297075328212912 0.603464908536993 2.669619349785938
Ni 2.503088297292767 5.27725989647534 7.1030447310617815 0.4962131399361648 0.3040270352847861 -0.24165747190862893
Ni 0.4455049987706647 0.08035167043331515 9.26371809569969 0.1538743535553737 -0.7605994209008771 -0.15044475904853447
Ni 1.4372481722724493 0.9756852105869134 11.600662465472348 0.07616764560151398 0.412274077919348 -0.7041086849030002
Ni 4.291623169755832 7.274994922519216 1.4724941864945371 -0.14052158639755155 -2.54590583608466 -0.40560977852529495
Ni 5.819126317410002 7.910372847880817 7.938937519690298 -0.5887916227955343 0.6964149158031683 0.7135788291769646
Ni 5.434955951022559 3.0726170222120905 4.745224008890307 -0.10477245382240019 -0.7171912291185712 -0.07090125499625208
Ni 1.1404855924646229 7.602548985059065 7.1876790100830545 -1.6558290024155353 -0.5870108767460277 -0.41519613666214944
Ni 4.993414275450223 4.479091904652211 7.02201810404982 0.8188583045427704 -0.14531155158702716 0.08715062697557893
Ni 8.203505944199698 6.908380704336442 9.424385960411918 0.0701900878618404 1.3051354163121458 -1.0349078460753078
Ni 4.633877095248398 0.5038750981487563 10.643976100035836 0.5023534485059478 0.5488266523668226 0.03919286814937766
Ni 8.222199148635239 6.636023899468058 5.119588402342708 -0.49489904911043153 0.2393429648428394 -0.8802608760199679
Ni 7.334312871971362 6.084205962400802 7.12490531933404 -0.11719422452552074 -1.2135676341054777 0.7047267781029735
Ni 2.281234981974808 4.862407204754038 2.685680425426181 -0.6898994832821538 1.7056199577957336 1.3633266799408972
Ni 2.3047765941787888 5.355844126703387 11.578495326840248 0.629728213108896 -0.41981512349139954 -0.4682734761031032
Ni 0.8580117160764302 3.144551747601996 3.886791127185962 0.20438856025484156 0.1617414150082763 -0.8759020848306399
Ni 3.6205780645442283 2.887040348883882 2.605786306420169 0.16924055159879886 -1.6158496338091204 0.6489664925132178
Ni 1.1541666530344785 3.4658292597474296 8.012082072909854 0.18133013577348125 -0.257947210207588 0.19139086244359296
Ni 3.482066422724287 2.6817425722874244 7.297276676419389 0.4842575102361854 0.404701921999045 0.05458529144504794
Ni 4.3799587942198395 6.709104777538683 6.098349122622883 -0.7185937658930528 1.4001878146333049 -0.27317199757714244
Ni 0.8105082356855392 7.396741807271177 11.291374983870218 0.8916680894156451 -0.2521411450487722 -0.09218407563442833
P 0.40160462216416176 5.729790083462826 7.979823332817514 -0.5221519712891136 -1.2121632975587833 -0.13528887724370248
P 8.813577546087005 1.712306622745385 7.974378197939112 -0.304560796301069 -0.17167435785127208 -0.620360398740751
P 1.8749056637601256 3.2460954172438172 10.534005479255773 -1.535660268642723 1.450819006526611 -1.1109068273094418
P 4.0098970215450604 6.424385897328257 3.6659993675651457 -0.09448649851535985 -1.2207057878121557 0.5519975938956364
P 7.090045904230449 4.083878448150537 10.555000995147585 -1.0957229204801517 -0.4587048585780616 0.14142661471032417
P 6.368224415973011 8.045291392011201 10.163821814153046 -0.1736638774774751 -0.2364119072389735 -0.0018108279564936556
P 2.64963210432759 8.322005396356287 5.778424252569696 -0.7040888874086585 1.1032485394332356 0.15166680438109365
P 6.950479074228258 3.988092831261853 1.7967735270894734 -0.8710172459345129 -0.3134110476028473 -1.2691924225586335
Ni 5.243466585293814 3.245713366350244 0.4396923673184455 -0.13482299335087747 0.2385654632468666 1.0740058405180342
Ni 1.7294625271567865 0.964023561883087 6.970507637501335 -0.5978689025064542 0.3540650736787838 0.16961618977066273
Ni 7.02161331203163 0.9925409321533647 9.295324620338 -0.785496441252873 -1.3267527374716053 0.20017015129811977
Ni 2.771206156532458 1.624762389418064 9.452291139607492 -0.11671162846214739 -0.8368177172346684 -0.9783548893809281
Ni 6.504134473136717 1.9219615988185454 2.7869703041172715 -0.3468310178241898 0.13471295013557444 0.3427537624310226
Ni 4.087007626897897 7.308660883402884 10.2906872712339 1.423136710119994 -1.1606479032883108 0.4663243227965324
Ni 8.285019231278472 7.359682870594586 0.42290123054590784 -1.477603987929939 -2.7550236834943713 -0.6787560650708246
Ni 7.87788032902741 3.8526194036908024 8.446423908428306 -1.1120165154338526 0.2497651886174279 -1.7320092464225396
Ni 3.0313464292563492 8.023105150834422 12.466364320249415 0.1812540311199072 0.7197697884790248 -0.2723060500324213
Ni 0.010176198443814843 4.881628003280704 10.18467087720232 1.6212162974376725 -0.03427023403677969 1.3311855764319784
Ni 8.736958149025906 2.3212229755021254 5.775547955128081 -0.1962188799598556 0.10428008756701394 0.7455204150805677
Ni 3.5901504398060853 2.767704023341371 11.567072914767397 0.2851055157899348 -0.5130579794076454 0.8144077249705846
Ni 0.9883565652237545 3.405219614417012 12.572500787418976 -0.5734562779900447 -0.04055863814865273 -0.02550945712501413
Ni 3.167556669265005 8.270665033419942 8.049013659288585 1.9159302828516485 1.3281653015484158 0.07234338675941734
Ni 5.683061620598897 8.140140074565647 3.5481475826376614 0.5271926190368147 -0.3496399480278946 0.9251615931874002
Ni 3.3112350945980302 8.454831757021868 3.5654281084119663 -1.2327578338806833 -0.28917711475614716 -0.33064026699694027
Ni 3.570392950738448 4.341280689470487 9.186126288149948 -0.6561547827315408 -0.3374991989003026 0.7747150343666529
Ni 7.040215551968701 6.1452795266734155 11.365758473558932 0.5636120382061132 -0.6234899455086681 0.8744802647824488
Ni 0.5127987154486422 -0.09038323532456304 0.3960439623727039 1.6803303299910093 2.043269052010339 -0.5803537764408262
Ni 4.775199540071055 0.39998181551146084 1.7643146651005 -0.35743501859228116 1.9736497490503042 -1.6061609457664467
Ni 6.2549463260285885 5.7352843391704 0.3649859536601652 -0.6182754911872642 0.0021242454318544063 0.21224045219909252
Ni 8.009296739966707 8.524637913147581 11.483277328422016 -0.5551070860588955 1.9601961946485595 0.06154321082011982
Ni 0.5999545303674972 4.879754134612226 5.745752533654303 -0.5159964932106791 -0.679296768065643 0.010158942810872826
Ni 7.946021834831126 8.886567459659162 2.304939420631049 0.4596191428622149 0.6040176957166695 1.187555269202116
P 8.727998145926632 1.191998787948062 3.804513738320041 -0.27794293660322456 0.46639579946441606 -0.07163684761069597
P 1.3009833535647115 3.026343381840511 1.7057353473759278 1.3660006272286345 0.9052666540356862 -0.842105447996169
P 4.742306777424381 1.0480474691196273 8.272709005700557 0.39653892657227835 0.29138877769548527 0.5741445623063209
P 8.583964959049574 1.5286220109853483 12.352879740893465 -0.6578252284554285 0.3679408032196115 0.2521290608639142
P 6.357745305749293 7.948041246697154 1.2834099221053337 0.018263831306194352 -0.6371589583553285 0.0027464523968855925
P 1.9192963390133806 3.0167102414525604 5.838853788193144 -0.09062418734647618 0.5855749156304496 0.6457227887649396
P 6.980288140376807 3.8607425334041543 6.13697173902817 0.4093250225933531 2.037916272338858 -1.0440979972150082
P 2.325925840073013 8.604413778305583 10.198303726587985 0.7408934578315175 -0.02219890469454241 0.18557605553402878
