# total energy = -340862.667728214 ev
CRYSTAL
PRIMVEC
9.29066486071888 0.00000000000000 0.00000000000000

0.00000000000000 9.29066486071888 0.00000000000000

0.00000000000000 0.00000000000000 13.59782713845710

PRIMCOORD
 96 1
Ni 5.987229545737043 8.219655509343175 7.097658159659445 1.2032662521794695 0.473245732506714 2.057947222847804
Ni 6.095558696859024 1.6435929216713072 10.739087759702747 0.9595747805599474 1.3498145043870753 0.41637344479970223
Ni 1.340791575756418 1.0204030014475396 0.2573161093743237 -2.2109080634499727 -0.08323483686094053 0.48935215115027336
Ni 4.328372061862185 0.003765506427936446 10.919803267182935 -0.541985461075273 0.12526928822417135 -0.2176611089940316
Ni 8.838701793083203 8.03674090151388 12.76546350208988 1.962730016814007 1.7447241228860468 -0.9195059375635195
Ni 2.761232020515301 5.197941120902746 12.718469461592006 0.4288538366549001 -0.09929548986822899 -0.8237925086195942
Ni 8.276644446991735 5.435475546866356 8.82137284516959 0.16927937525653428 0.02892799588825986 0.47189924578114856
Ni 1.1903850039284802 8.993707243968206 7.658024604764273 0.6361071200520464 1.3996489114106991 0.1613236107445673
Ni 4.909688956004754 6.346741109357643 13.493708543173588 1.2441977002865088 -3.406060942493689 -0.5973312848354293
Ni 3.253107684996523 0.33452060447797305 3.925651474567648 -0.7350192584389277 1.3373739646308773 -1.1065405799209458
Ni 2.2459438808344743 8.02004557693702 2.7033158745235166 -0.9402465125449807 0.8819446914802941 0.29894910654124646
Ni 7.601120212165043 3.3614461267832656 6.492609191449467 -0.7163823600640308 -1.3113045212373353 1.063670777140613
Ni 7.857068735686436 5.664815606510104 12.965867786333163 0.8377158035689056 -1.9483169267124703 0.5600423185769838
Ni 4.02214246065021 5.348923713945911 4.649491811487812 1.3956842703359964 0.5017520674765229 -0.8352439449896454
Ni 4.760583077243461 4.026797083695845 6.4743335247966325 1.1370379771788546 -0.4679310051620199 0.29329782179274005
Ni 5.560314209269963 2.4094038366526678 1.1908913451579954 -0.9819102108323542 0.0651520112173007 0.03551979017316463
Ni 3.6358644918510152 0.5742299750623082 1.229747692391054 -0.39344306125577405 0.7577305839935143 0.17709604308747567
Ni 2.2450148143582993 3.1144909667512435 11.659402429671976 -0.6340594934943983 0.30231339502778903 -0.7394870644022942
Ni 3.8855882699820388 2.9047170470957364 9.843425868678816 0.7838290808527791 0.6484838964498445 1.5105184792697728
Ni 1.9477321233118883 8.243783365729433 12.347316695024936 1.1154934182388596 -0.779169984814213 -0.24117153341114594
Ni 7.863154121105382 0.030166788481395607 1.208429333028747 0.4418008837338714 0.9023196555922202 -0.08250927154882565
Ni 2.3895496860568124 5.361048031459993 9.94598087165137 0.8024883478251793 -1.666955194235684 0.9921072059700141
Ni 5.475109522739972 8.514439011568676 1.193334789990335 0.1699380918864557 0.5416152222200479 -0.23289489522465054
Ni 2.559271549924424 4.896078132128793 6.282576991313582 0.673796149962388 0.2545412698498326 -0.06700449104500718
P 2.414615899584008 8.614713156342221 9.526760063739971 -0.22218059413093993 -0.29900875613458827 0.8268081555174663
P 6.2495700466145205 6.156514748360853 9.210896043170063 0.3025051993236209 -0.26953311527297447 -0.6020150634643439
P 6.5659264724168 4.602762554935649 5.127618221188124 -0.7805383259166494 1.5908963062978922 0.3306646924769725
P 4.491906342998472 4.986532044249171 11.201033547653998 -1.1649966671753098 0.5519029772993012 -0.5726669493195299
P 1.2379996608324386 3.620897230919839 5.154772976153761 -0.49632961090937106 -0.6478843151926326 -0.3774477142687822
P 5.090996278830265 1.2827620836545401 8.991155098358153 -0.9061526561850652 -0.3389001930128873 -0.8430436435397224
P 6.48497691034769 0.8387955901502238 5.504033220276247 0.767963317465116 -0.2845113338493616 -0.019637314614953275
P 8.464919768388558 1.3885920459556111 12.59056766701645 0.424286786109508 -1.2035200200614886 -0.18954995258011226
Ni 7.8879044520306785 6.133520353075527 3.7598261155011135 0.10088186051874239 -0.4488657610004528 -0.14150220514326597
Ni 3.418137763159452 2.461626663278453 5.098451108235092 -1.0012659896511467 0.6309646566191585 -0.27089425728655925
Ni 2.062629774420425 2.1343629970458813 2.4306655229599277 1.2904348768771776 -1.68365888014361 -0.24910930020098387
Ni 5.802113050359216 0.950611527757289 12.92941214687454 -0.5789000747134352 -2.15616104961608 0.4653781568331792
Ni 6.965127755899586 1.2583462166606665 7.78002404001669 1.1869721430051363 -0.5848544925246572 0.006758658880072231
Ni 8.892708427343242 5.093560502304507 5.854041362912054 1.9528940045601917 0.15708540429350368 -2.552660638309991
Ni 4.359951031387365 7.549148233487824 3.472857920473195 0.8179131670206817 0.061587433794493926 -0.8693671119255996
Ni 6.513638611137683 6.474933701740241 1.6032928051342732 0.6513329358628653 -1.534448507722809 -0.01575623439299222
Ni 2.555341598730205 4.723401836866946 1.5430948718770034 0.6866961458535077 0.18758948641963177 -0.46503311478893467
Ni 0.7174399979657959 3.7571819923099197 2.830808879849555 -2.4526809778905436 1.7154400292099488 3.872459570171583
Ni 9.092996578277006 8.262857100485302 3.240457515856927 0.028389349775970463 0.8260861897497773 -0.14412164504398403
Ni 3.7514124894928744 9.013180477308829 7.791636441902398 -0.9227110747643786 -0.5627975127246179 1.828992028997192
Ni 4.86863350842259 1.4964566638395047 6.821173550748683 -0.3575394053806294 1.5252174760428443 -0.5702930497707145
Ni 1.9334802435673668 7.6711718244686224 5.717138772315316 3.0977910727721487 1.7726103077733535 1.597673477120726
Ni 0.9543277936619883 6.180967778013773 2.528474854372182 -0.29448978521831215 -0.6057182233475439 -1.1658042506782695
Ni 3.1342429200347195 7.301774993541524 0.7197886780175657 -1.1455673548061047 0.11917705928350442 0.7557696036124016
Ni 4.5948654898881625 3.2139382423609937 12.463142483543173 0.47261144135682476 -0.016772591472648535 0.0947214973443014
Ni 4.290958554866625 7.18971099518532 9.870526737788836 -0.5464784638496202 0.14330609112122417 0.7135939986856162
Ni 0.9431232519593202 6.415269052640295 0.014207284553664974 -0.3229608960748115 -2.379342831318025 0.2777768433390055
Ni 7.274367532494367 6.155706460526581 6.82651754111964 -2.4789735930384857 0.05718107719668217 0.0420197960752115
Ni 5.920243852804841 1.3246908537243085 3.3913118977263808 1.0229236771302381 -0.8947714109313171 0.4801393743027537
Ni 7.846393761875189 9.211025183410252 10.907701247264281 0.37769556861353015 0.800960598326743 2.467025419537674
Ni 0.08177457309995315 7.167682829035215 7.19458301978638 -0.7606878668496253 -1.900406990405069 0.012923650040203549
Ni 6.819162121827763 7.580940888302526 12.760867410232242 -4.334623848053154 2.300764262282173 2.285633577288322
P 8.075185672297993 8.50994232982399 8.323596679498182 -0.7203644846402304 -0.4333357836856537 -0.8877800672151485
P 2.861487583959323 3.256944729543125 8.078849910480027 -0.9166496990616472 1.3238990700728943 -1.5224347710913846
P 6.788772357392087 8.086306598017805 2.9104791173809725 0.5444058975913076 0.8874216554344652 1.4646965358396515
P 0.9710416995683727 6.04403267009037 11.3177029285326 -0.9321832759208721 0.4136825282311004 1.3942236266300696
P 6.0678260625452065 4.612387683628819 0.5024168527199012 0.3731408593633122 -2.49958175620714 -0.7443518486937631
P 4.082764048220615 2.143486429841918 2.9220775832695387 0.7337884713556201 0.3763457394538551 0.17404465785566156
P 8.16850110916499 3.032649500865006 8.510621477418074 1.4390672653073215 -0.04018042887362758 1.3455007075030698
P 0.7546556138019297 8.314253057947292 0.9504108493984352 0.19993952334455245 0.10666324308720986 1.4735025641670558
Ni 0.6436275245666607 2.1334710932287533 6.836429751353949 0.2642435847392611 1.3288438156726792 1.0358033613063837
Ni 2.4832367495142784 6.626808198600535 8.05578769334194 -1.1148465286834799 2.2886944756018326 -0.8017578974170578
Ni 7.73892864257605 3.294098097925355 1.2755088616750436 0.6604133008975788 -0.6928259129003294 1.0529441347517285
Ni 6.052728732307366 3.518226094637763 8.712957290865324 -0.5917730740213616 0.005459480452674468 -0.6348102556174938
Ni 8.285814333111581 8.584035381298929 5.484275692593913 -1.9290279965758714 -0.5456837358624667 0.7872213943637797
Ni 7.525735758288219 3.958882324287468 10.523195008235152 0.2692289537689944 -0.054004736351229564 0.7174331699260483
Ni 0.7235987796363585 3.459759941292083 9.747806346950906 -0.9435182413177169 0.32793778046411265 0.27946502967470577
Ni 4.3955528587543835 8.775655342009982 5.581159673795897 0.20985755378921275 -0.43212016611099774 -0.5066896139874565
Ni 0.8870968271800753 4.744370867234211 7.636036388472643 -0.19410646160254313 -1.1204901001225027 2.1950811237200454
Ni 6.166149167718785 8.696368808933224 9.56303918056812 -0.2607826227738541 -0.7369419293829373 -1.6540217740034677
Ni 4.365488267585367 5.482291206600804 8.415871561911862 0.9768140272563693 -2.633509234326942 -0.22083205052284546
Ni 0.9965631556688944 0.7327983958834415 11.158798185647091 -0.8007752217888146 0.39104653599913947 0.736029444870997
Ni 2.9974285907532194 1.1205842395734678 12.352769386173605 1.936523533621968 0.06614831369229898 0.4511578994687392
Ni 9.257989493780887 3.4580504589759213 12.433731026106907 -0.4703193028885384 0.2786155371902169 -2.458598628926559
Ni 1.8973395576441674 1.549859404890032 9.159578127292072 1.5569068367263252 -0.17103518160537642 -0.5331709481074366
Ni 7.701728820870011 3.0193545595909446 4.149553708126345 1.3978802495460507 -1.2721139670808026 -0.9502936123683375
Ni 7.319074211327898 6.9420961979552125 10.855512796098116 1.2593630951730375 -1.8307185247699953 -2.108224630946118
Ni 6.093059508038115 7.310387439775663 5.083316615338204 0.816916093214735 -1.2209513281640585 -2.0515063523184667
Ni 0.5212880509839637 0.8065932170195292 5.033317044789905 0.6680826445173784 0.43188876682648203 -1.984905010249149
Ni 8.950793663433691 0.8712980517527228 9.259617218247145 0.028257966404428753 2.4017445960519925 -1.499936075768236
Ni 6.993389958104824 2.8948596517835217 12.612746341935695 -0.6860651971377281 1.4872024302516518 0.3565155921018054
Ni 0.2939789306571335 7.72165729678396 9.76109106849373 0.8000062048332739 -0.7004299504998324 0.7015843758192497
Ni 5.933929001998895 4.254436951688194 3.1245490404223117 -0.9693061489150984 0.3096505521191506 -1.3272047374073594
Ni 0.9499611812239667 3.4348423784010746 0.7166177741343811 -0.7497930743139927 -0.2825616663221585 -1.1879586752881217
P 4.426899561660521 8.110174315790736 12.729510487594867 -0.47897569301195575 3.263121233572948 -0.7193990354031674
P 8.528486496688437 5.183605625175369 1.6836561262569167 0.3108661696938066 0.8971805345934419 -0.4624576407522745
P 4.341862107096242 6.582519599681282 6.573978691565807 -0.2066542163605667 0.5132533832479031 -0.7571006637189993
P 2.9372250830970925 2.8281340974646483 0.24015903875880376 0.1576451334517156 -0.19289855733737102 0.0354601405798228
P 9.30961771786192 1.5660716148992821 2.7710875576945635 -1.6417740669843661 -0.5759283936796211 0.24484923937304928
P 0.8827116334125302 6.630793893783324 4.533542457128245 -3.3828906750248127 -1.6225977511662313 -1.4725581979759157
P 2.4425808005168697 0.5287224409263144 6.041215740534608 0.3712392714652251 1.1653383667854447 0.19943661556620493
P 4.109837045336349 5.664889931828197 2.485750803398808 0.7931657848726726 0.6115692828116822 0.16665247915664844
