# total energy = -340856.65645133605 ev
CRYSTAL
PRIMVEC
9.43570652071250 0.00000000000000 0.00000000000000

0.00000000000000 9.43570652071250 0.00000000000000

0.00000000000000 0.00000000000000 13.81011026889321

PRIMCOORD
 96 1
Ni 4.769428778060967 2.7486684568161857 6.5131652511379805 0.5366514504568693 0.39588792325184075 0.6842507696368086
Ni 8.876489837299454 3.4033932534436433 7.516704524610505 0.8995912009174635 1.7954329620948237 2.9286968169432273
Ni 7.184535577449684 4.17246937609762 9.159058106555861 0.8519445455737779 1.6626264849533428 0.14536065965740771
Ni 4.246520800031619 5.570510816869905 1.6962824183816931 -0.32087830251416993 -1.383418565594766 0.054741871627570236
Ni 2.1992461437645976 9.134603586243712 13.584218531121838 -0.9793470780908682 0.011467891430283475 -0.5392577777314648
Ni 5.346271253950501 6.614618910067739 3.4123128267164273 0.601383600527932 -2.0334016722979564 1.4406464368689835
Ni 3.9214512783763973 1.722629741400412 11.099171445083531 1.4451057581919176 -1.061042595489147 -0.8293363212559589
Ni 7.280270254722154 1.6938697082517336 8.571562718125362 -1.053744519165837 0.5123115881599242 -1.489239001065706
Ni 6.487019852236513 2.6077933600610126 10.765574875542333 -1.0267690190182575 -0.15959711497176385 1.0700172881839316
Ni 3.33340861897391 9.39999226483286 6.3047153993311085 1.7249459118178554 0.4041689323137104 2.210088138651839
Ni -0.08857769395774856 6.747511399196998 5.273058664316673 -0.08416120532995183 -0.9616663729816534 -0.1995039784690306
Ni 2.7772020330109375 2.216560665033569 1.9678165725580254 1.3395311201831963 -0.16492804026637403 -1.7609428987377544
Ni 4.871645785639586 0.7763727544236206 0.6786414816740307 -0.27840419251035925 0.5246382280460771 -0.24533337809831945
Ni 8.20571490406245 1.8063150215827044 6.328386756010929 -1.0245023344712678 -2.270851019662508 -2.342426932128282
Ni 1.1445700593835222 4.373346129936929 2.201994765042882 -0.804275521632589 -0.12151110673331975 -1.771601406892865
Ni 1.199825556141613 6.859947276821556 11.439507939715973 -1.6438795433631432 1.8812916097318568 -0.5467705411687422
Ni 8.867044695179434 2.3021519579114105 10.044742576210492 0.7369627553185437 1.0152785018801547 1.1838906758663355
Ni 5.4310699474896 5.885163318644503 8.722949191825297 0.11224073717498732 -0.32016250739406793 -0.7355805302590365
Ni 0.22638996041106424 0.7768728468635419 1.054716657918654 -1.5714855058714483 -0.6195936957780556 -0.16765752338239515
Ni 9.177498307599976 5.572388522446213 0.4006570785933558 -0.6737784093505751 0.6301377898424889 -0.16376358764462765
Ni 8.028248137835304 7.803593403833702 2.919843494006738 0.3151905081007733 -0.7880994260933589 0.12231766179501516
Ni 2.5594353646912698 6.789009636004049 5.584255810402608 0.5662196510322894 -0.2398394448632837 -0.009981536692744099
Ni 9.315599306669547 9.442594479290301 9.033013109570955 -0.1540666720718379 -0.2469331184852715 1.54889450794481
Ni 2.6651813264685793 3.6557889643012538 10.282482747866487 1.7042135643665102 -1.2407997303485534 2.0980752012169415
P 0.6475225219219501 7.528165133620474 0.5613631995180095 0.6315534392430929 1.0767263247729908 0.7162625466567147
P 6.358326252461308 1.9931137014529092 5.0829357850769545 1.5392988938365746 1.3130821819630485 0.56676086824774
P 1.1682914253073338 2.2219012748636713 8.885369780605302 1.26317501271996 -0.1028937487424486 -1.5439351070570055
P 5.788022721116405 8.917016196345903 9.15273335254682 -0.18325254960717471 0.1736235111578429 1.023355108240702
P 8.569008472399199 5.143318644700199 10.858295788186297 0.16395050684445311 -0.16982676311957207 -0.3966649106271814
P 3.6607993244068795 5.757696360703068 7.4683691749361545 0.5085932587680725 0.9614529714192668 -0.38947739173980667
P 6.8710719746832005 7.5043116678068715 5.035691203064016 0.035675341914422426 0.3757538715061271 -0.3157227264551595
P 7.432836191723788 4.580403271477151 6.7677962808449745 -0.3143227607838393 -0.6109452760744382 -0.5723751291107239
Ni 7.62135217016127 8.928999543491186 13.342265316552167 -0.4935438206341177 0.4276557025817409 -0.6386106032001905
Ni 1.5467293024379247 5.472162448920864 7.203629672948262 -0.8237752822284136 -0.6773131619767109 -0.2851276272771218
Ni 4.480809390281515 8.364951885498504 12.977236521805956 1.94554887704903 1.1853765163832424 0.3556046502517618
Ni 1.0640740479690294 2.548782452150306 6.368062957909511 2.8629627079702114 -1.8915839927968006 -0.08779083166273913
Ni 7.380222692761508 0.41787158137434294 10.412284099574649 -0.3738713097714335 -1.8083450421708016 1.9816736477960453
Ni 1.8053431438221028 7.4281843884618795 9.061103207564269 -1.5941652068571512 1.227284726581254 -0.06676537845100759
Ni 2.5571141809135227 4.656124815446359 3.8663476964915655 1.2372454373383919 0.27959075661929267 1.4147883381552988
Ni 0.4737536090382971 3.4775012916161234 12.075173552958582 -0.21568238800110598 2.0797139251009344 -0.17498825271585344
Ni 4.03032045897661 8.051346747135817 8.479379640746973 -0.5986690298102464 0.5166919766158068 0.445123263238885
Ni 9.108353451001054 6.3024196919606785 8.244566425220482 1.120337376594722 0.0503051760124553 0.3152072202713217
Ni 7.270107998914698 6.568525484237261 7.051883698833971 -0.819077619642428 2.4081304449736782 -0.39098302975105564
Ni 3.4144519013603922 8.208271980500538 11.151373547246179 0.6385620093504423 -3.042482530007831 -2.051313262471054
Ni 8.256903611356275 6.880158559959505 12.269565145779818 -0.3870991213156172 -1.1539342387135612 -0.45777051968925037
Ni 0.9039293515759854 4.430592560748291 9.305017161926687 -2.2521938095726375 1.1310295662012457 0.5309819108759177
Ni 6.252523676445517 1.7109955153924326 2.7511538218855303 -1.7283474813002362 1.252445542117598 0.8765728856454194
Ni 8.785605113123578 8.809411400405114 6.172511716770042 1.104053551833034 0.57597030266115 -0.96573437240344
Ni 4.7215614394247325 0.8240249589536257 4.581877128818957 -1.620759926626544 -1.2089918418093373 -0.5146098972757976
Ni 2.207162701445615 1.9663162952382616 12.48069379463751 -0.43216258931315893 -0.8533116011246338 -0.20652848941597982
Ni 3.601165659872875 7.891260552122538 1.119003069285209 -0.540018052936257 -0.6899609326477085 2.527392350661505
Ni 7.456680221830977 6.927469191917338 9.606520063243279 -0.028617920847008777 0.2974732933266683 0.895085085516994
Ni 1.0457782132330427 6.90114357102337 2.8024991619058217 0.2481507929424565 0.08049866887670007 -0.5282274880592321
Ni 4.875259661195999 7.473485214953613 6.416425671132461 0.6968391478247805 -0.13678860171768054 -0.8853017808779851
Ni 7.314031212270046 0.2750885847823384 4.288868250415893 0.5992917509959098 -1.8586964980401601 0.8148874928204805
Ni 1.738311885459829 0.2861113770147157 7.837209995073464 0.26998177277461893 0.46568617499190124 -0.16603644283920435
P 1.0161689665071396 2.596583740841646 0.42754601116021557 -1.2838420541510083 1.0837210109232691 0.19878329825292215
P 0.05875331312561523 0.8728566267853316 4.261482056121037 0.7377243160749166 -1.1195063960529947 0.7133428019067586
P 2.1338472626118783 0.11611580312586457 11.188716298948675 -3.043797906385145 3.8061454203253806 0.7854388485420601
P 2.4324779348961694 5.3429970638249795 11.638359790958921 2.1607270717202076 -2.7374296245616923 0.9745031197350056
P 1.15214693163365 7.682259655061112 7.030768475021598 -0.9635144819339858 0.7203503435728433 -0.3621735617185311
P 5.851723175114675 1.1019017949811853 12.483151796158255 0.14903270919235626 0.5478889710439016 -0.9274480752287317
P 8.934519431743146 5.415095296531361 3.3472111703157363 -0.1506064814373793 -0.38155710845146545 0.14630733984139319
P 5.463670313148617 3.0713318733359376 8.602828874897495 -0.8398845290854502 -0.40523079791932143 0.6913578129952351
Ni 5.8620930164632306 5.387127862721426 5.59393684518297 -0.7514563209490284 -0.9654849753967951 -0.7715875444812647
Ni 8.42539702078408 3.657874255418661 1.2650451588724738 0.2427810439901109 -0.4203902792685792 0.8846695466106248
Ni 4.889064099679108 3.178285605534189 12.831608659730248 0.3219964752790132 -0.6795970729148811 0.8070489706126681
Ni 6.764731563401835 4.242727646053348 3.4101718649311796 0.4520891530337569 0.8203657423262324 -0.17977796079501296
Ni 7.399245076891342 8.817356265205373 7.903609061106026 0.6729978224308087 -0.8095213434125607 0.6355281076201248
Ni 7.021552620567427 2.052681316042019 0.6679451648835641 -0.3929648360677748 1.5784249133037591 -3.4334102810409193
Ni 9.149408209606664 1.312893626095882 12.419915578915536 -0.23681685598687605 -0.9435658067262007 -0.09793126253085069
Ni 3.379813423116036 6.116960882401206 9.877280489493696 0.27915778284693216 -1.630538603279863 0.09305825070926554
Ni 2.8782678844070966 3.772952130839029 8.012598075177692 0.9423015953017966 -0.9608970989157968 -0.7117937122520838
Ni 5.257264235350934 4.854123678829516 11.083496849589247 0.02177621533482701 -0.6926693327178071 -0.5525079578731517
Ni 1.990547189308408 5.831993113003819 13.704062381851719 -1.2673882794703593 1.1719622998598653 0.819717567219272
Ni 5.734597751402554 0.5017163249950255 6.79349725797436 -0.27026228012951514 0.027119224814295233 -0.08763065193579102
Ni 5.404716019476392 7.172788122964742 10.809725489422247 0.7585289115250936 0.5126142070020074 0.12053614441456013
Ni 5.739126890481086 8.55839330268389 2.6419430687131444 -0.963620668494547 1.9975769492898634 -0.2628474757226828
Ni 2.830985559568505 3.689144186473359 0.14564578991789334 1.032808283233802 1.1347136999210523 0.17075955934648657
Ni 4.8520478234185225 3.2712273137082306 4.2810922847604385 -0.7257092938919114 1.6054281813654803 -1.7016892552827594
Ni 0.11938999325138668 4.140916373850515 5.097256356700887 -0.3996821001869504 1.5436139762721608 -0.1454673604386011
Ni 3.8905115970461757 1.540331893489498 8.334498143048583 -0.010942100833800511 -0.8168674993649868 1.066323127161796
Ni 8.346467336634245 2.5735983600180963 3.7528144462111057 0.10196275228774697 0.07656899480499071 -0.1862633114090405
Ni 1.872874494624298 9.273600977422577 2.3718308754933433 -0.463424375540918 -0.2773767796871094 -0.5460699155572918
Ni 1.4684035034985616 2.4936684909884197 3.60188371713095 -1.61672895109028 -0.7127396211051209 2.5235536936417056
Ni 6.801125083039122 4.733865600588077 13.179595625122841 0.1927574037738164 0.8830574649284986 0.2896424844283399
Ni 4.127140242486646 5.814178499294927 13.179816420652921 2.1918425621780897 0.023326847651398537 -1.5470499985369033
Ni 2.3321575043066853 8.907967353895252 4.573149100386369 -1.4468528227900115 -0.25421705374119447 -2.221639333824548
P 6.1323505195618 7.085356867336247 12.894168336823114 0.7482951496122274 -1.2036742862511658 -0.3974251858319736
P 4.752387892277991 3.2955620005489266 1.4826259437757934 0.15347788944790342 -0.1675089136196728 -0.3624748950090338
P 9.224139004402442 8.637087094173383 11.52347346037875 -0.650884535471537 1.6758874637283072 -0.897526605078951
P 3.0158499196239203 2.6618410863981614 5.240274302382591 -1.1764905267475223 0.03289340829391109 -0.07176745965128929
P 6.789321014315698 5.354253861576415 1.5775010281939843 -0.06947095030762875 0.4260099394482018 -0.47697203231836566
P 3.156687273553439 6.785188174906537 3.524616604451194 0.49927429535999174 0.30636699627187236 -1.112051482436846
P 7.039989990899618 0.21837338424206254 1.4418863377643978 1.634040188675218 -2.3651202599607393 1.1305837369130787
P 3.904561363896038 0.5105160647963567 2.6041445723908705 -0.24758000804065103 -1.324956821913447 0.4910346810590189
