# total energy = -381171.40138839884 ev
CRYSTAL
PRIMVEC
9.20443798909414 0.00000000000000 0.00000000000000

0.00000000000000 9.20443798909414 0.00000000000000

0.00000000000000 0.00000000000000 13.47162539588565

PRIMCOORD
 96 1
Ni 4.0626088140990335 8.943795911209723 4.612550051956865 -0.7343214610409546 -0.09826936259655979 0.45565938688351854
Ni 8.65763913880185 1.4491467158125217 6.66367253442442 -2.1350584633095098 -0.4457344144603227 0.8952642914073357
Ni 6.5762487824758225 6.068854138743828 11.233652060716695 0.64090119900658 -2.1761961138900845 2.0874138648483536
Ni 3.8589053971297314 2.637062277271162 0.1388599922769999 0.11327509197677267 -0.0356678857152547 -0.5067641759791337
Ni 7.648354105250816 4.591983655730929 8.77179257864882 0.5407793565823138 0.788863557952893 0.305374550451616
Ni 7.734001400668979 2.184222337455712 13.078133069611244 -2.6007891183861016 0.5616965663509552 1.1263182767685056
Ni 8.204762381234472 4.603286705572251 12.966964629001685 0.6828775434383658 0.45151348303594496 -1.444942750251492
Ni 7.163593174515411 0.7836483613155365 1.4068145850916545 0.49974172191471355 -0.3061101430660599 0.6223992835476507
Ni 5.742409541290786 8.055273103976399 10.837100940933512 -1.1685085369833104 1.7396168835664687 -1.1686458338921228
Ni 4.7871269453774055 0.18631163140319587 8.335729567942309 0.49707883037056966 0.5071701531683007 0.2583724706704647
Ni 2.5782367141311857 2.638654645041967 4.3852832737548395 0.898858179406181 -1.2841616422739561 1.0351366742566626
Ni 6.043413072162871 1.2360731809780192 6.465275475951472 0.4962823026112034 -1.6783117568990837 -0.33070403035534013
Ni 5.809951707199273 7.82444420827552 2.4378929664515625 0.04860336283000016 -0.5645548617353567 -0.8870285337611047
Ni 1.9617050492521566 4.792373475026879 11.292078151248273 -0.6731497746276407 -0.17617378838352238 1.6123678459081072
Ni 9.115385044061457 4.31930218052802 6.906013420708803 -0.8738362034405468 -0.8238277327329039 0.9454162296713783
Ni 8.772077916226246 3.460997543188069 1.4896784584642015 -1.109504033424644 -0.22816997894515542 0.5345441743058794
Ni 5.244771601819216 1.4924628009536152 11.664366372512138 -0.3837057793633521 1.7864289588240008 -0.5993154051449936
Ni 1.1112886152623793 7.921256486965282 3.750985202683856 -1.9154037209242174 0.19302325584069338 1.4501374070785542
Ni 3.3654830902537034 4.964266354332003 13.491159212937575 0.09258722461011797 -1.4770221472845402 -0.6190072271469662
Ni 4.310723644329231 3.14813869619577 2.8246091442514794 0.0353791508302423 -0.6904664115292174 0.179805985819471
Ni 7.919811390202182 2.368467572532053 3.418007295151522 -1.1136838758339465 0.400729053394226 -0.11023167716475854
Ni 9.083684959653057 0.29703457721444826 12.839038588602948 -0.5788982749412224 -1.0911661543474047 0.3249941244547564
Ni 8.904078761319408 7.845614415633046 8.87825939233741 -0.4449378867009563 0.20487655563485363 -0.15877179085699109
Ni 6.757723481719722 3.592501348630228 10.99830194507929 -0.27960232658351847 -0.014689997912006958 -0.002704800525672761
P 8.276041548963464 4.702225209435747 3.8906321744082764 -0.506272838165012 -1.2114181918626428 0.19681434745200943
Ni 7.063697409101835 3.351998588610758 5.829670374687111 0.20208999402865196 0.20210773464046483 -0.13753447874476957
P 4.223576025520079 3.816969977685868 11.523358984854047 -0.3898738558472769 -0.1768322479031277 -0.24787877022799246
Ni 2.0058311249356247 0.7370803482355677 0.2184627332726899 1.033813841680181 0.9941671738228361 2.8747995527041392
P 1.4222237347165385 2.0880635738626387 6.783031083949948 1.2031225275127537 -0.15261502722697587 -0.1535398530340904
P -0.010241778142051532 6.652406302335025 12.9286787692175 0.7616252910622303 0.2246596517990518 -0.47624183902056044
P 2.0360400903910154 -0.2021423442876341 11.969539513789858 -0.4376315828475302 0.05498998308263432 -2.845585393034028
Ni 6.860942049244631 5.977785429354541 6.6136114371304595 -0.7318753134933073 -1.1559250438913447 0.8186582727168223
Ni 4.914737273553376 4.264995996436976 5.584783540857036 -0.5386250292434723 -0.5619094536927097 0.1917400182528956
Ni 1.032517035016422 5.705186794093467 4.913532412621593 -1.128736656402011 -0.8728882377049806 0.2700295952934188
Ni 2.7912366134618356 4.3644039266375305 9.248769316183244 0.373254502123041 -1.3697757780003506 -0.8665376128966045
Ni 3.661847584383096 0.16812642328308156 10.276829562329006 -0.7912336008469664 -1.0745213467018722 1.4998815683812168
Ni 5.063757124474392 5.084457905494859 9.642531491258021 0.025339764316369258 -1.0388385485882818 0.19425172893115575
Ni 8.120302458315928 7.8972144949575185 11.262359782337299 0.7873844023042053 -0.09725377684785186 0.22052223259191053
Ni 2.614299702142831 1.76001740420081 9.107721428998033 0.06645016120343394 1.2480738954124633 -0.9549671065846068
Ni 0.1300623904542509 3.080062672884353 5.11436772671585 1.0203422895563072 0.8637870467346608 -1.7505875236453592
Ni 2.91538607295675 0.27888986862145265 6.684135840944964 0.42780791188888906 -0.2163706723173822 -0.6134382176996209
Ni 8.855120355695636 6.074063850641375 2.3311168836467915 1.0439856400068601 0.6225844029752632 0.6335902671674637
Ni 7.57000592915201 1.3932021417607656 10.809713135719461 -0.7754927930729418 -1.3558655956771617 -0.5414049059814547
Ni 4.6321794363962825 5.366500294124987 1.7649988460364157 -0.16110455275522576 0.5648225135744467 1.0306439285926314
Ni 1.2002495083538938 5.156077637429166 0.6192110767754533 -1.1519251787033322 1.890312068062912 0.3853510282762589
Ni 6.234690497857104 7.866766214114607 4.833646174936072 -0.9119389238495391 0.11242791348512896 -1.7997693846866485
Ni 3.0660167005245342 4.820980868273483 4.241878130002559 1.487385235686419 1.2631912106698762 -0.02671710427987012
Ni 0.6753158080480882 0.5528507607037945 10.216800058701047 0.06169310613442278 -0.5076360370611258 1.4764611325747476
Ni 1.5141116390861804 7.402126184806833 10.708568328071792 -0.10386819684057597 -0.11717057037643691 0.2983616094688926
Ni 3.9081767536448764 2.3224269737484264 7.1424533418032246 1.4867051789002588 0.14632945132858025 -0.0021152465707899052
Ni 1.293232740843338 4.1243797973931 3.0105581207982026 -1.3813943360758856 0.03425557874876036 -0.515254472838332
Ni 4.767355812593073 0.9383096122754337 1.3642044803437448 -0.44604603216347055 -0.9992646429504016 -0.0783080889832845
Ni 4.08594206438222 8.839546446630882 12.647013762544615 -1.7989047226935082 0.01473730621017462 0.5675599671102678
Ni 2.594013120831533 9.28608134642898 2.770412492972416 1.2548500377940324 0.6868475838297075 -0.9533465402620483
Ni 2.4068868966669714 3.849434030446734 6.51133540405486 -0.9397916843957492 2.154654640273883 -0.5424909399567819
Ni 5.782227939998896 4.230359696312469 13.153196181794442 -1.122238707382493 1.5966933725956438 -2.8740942991069987
P 8.815081050475968 4.286884149957062 10.575845855040878 0.8892394253694943 -0.47844116066472436 0.7789758665255359
Ni 2.4850878017580738 7.254238479757546 5.760265230531161 0.6061648239666593 0.48677976243740684 0.07444577781440083
P 6.875798012146825 0.25046104147169046 9.137251106930385 0.4877506109911084 -0.7357707918929716 -0.8791990104143569
Ni 7.843635461467016 0.3294507668978104 4.805207222904531 0.5288982888740118 -0.09459371351718547 -0.9380975845227779
P 4.599052664100745 7.047782935831765 8.934368725829037 -1.0256459611574078 1.7388581510235728 -0.3713243749798637
P 3.6708771380429797 7.575850747270283 1.5669386699935914 0.4418664468644841 0.11629433841907069 -0.524781952712793
P 4.791664733302301 1.9955129499583264 4.97115127394219 -0.9742570651624706 0.6612393963432999 -0.9992438170147953
Ni 5.334257147875677 6.957211266093482 13.332368851099162 0.8474158044654889 -0.4437760051823712 1.8837192453367428
Ni 6.190113404712539 -0.10037071441342242 12.866291088578672 3.4480902516505973 0.2548624006346772 0.9713440052807336
Ni 0.3111965254928346 8.190974133138138 6.1528418739939195 0.880770982887167 -0.3873179221946426 0.28459515181241957
Ni 6.143143157692778 3.1383359697454374 1.397209754057925 0.7400509073255642 -2.589054860668309 2.14170373654017
Ni 3.9572732258383723 6.309633031902743 11.765362988708304 1.4506521419314435 -0.9783386914310118 -4.299676899664324
Ni 4.846513979234255 2.623209598108955 9.418700729754503 -0.09975931687852496 0.03689353059223969 0.43296065973442205
Ni 7.040805971841763 2.514339505663385 8.234544260767521 -0.1999742332372298 -1.7174727433692614 0.35375217042405527
Ni 0.34811000357397365 2.650279850212643 8.687622595526692 -0.2042610335380418 0.5690113548448137 1.1122839101626265
Ni 8.04800159797099 6.653161066249511 4.846039950678207 1.7371637940402858 0.1205734254103988 -1.2601318550182619
Ni 7.623437691634807 7.524904183042499 0.5872900858554976 0.017604857565956776 0.5622570668401156 0.5253553087177597
Ni 1.117501610899914 0.4090857234264358 8.049053665232277 -1.2158034654145318 -0.41880082329427226 -0.2797735620540601
Ni 2.239633054104539 6.286281372743594 2.6507713672008566 0.7508986486733455 -0.15067950076715986 -1.315821435271082
Ni 6.9809771249618 5.248057586178622 1.4443466014051525 -0.6124797104410935 0.8353814990087742 0.21104283234656557
Ni 0.8683936218115089 5.708178236437465 9.344498232522579 -1.210614979235057 -1.1336063257894864 -0.963956968788043
Ni 2.1100529762005205 7.572666011728672 8.119052495638035 0.8707071708932617 -1.1938002216705632 0.5040897144707641
Ni 6.743889211433479 6.667335900741071 9.07575349544437 0.2347466037214086 2.041012394765678 -1.4458356943794068
Ni 5.798575021854099 0.7195330076675736 3.4779153001981267 0.6980365105669913 1.7678977327890326 0.2337724127335974
Ni 7.3999999596330985 8.283036921829428 6.894279603169944 -0.5822394234993133 0.9088232610386928 1.5560146639293588
Ni 0.23448489846714404 0.8759384996249713 2.3167156199808856 -0.12835564045897893 0.05907186646149181 -0.23285684289786346
Ni 5.099424321652831 7.873678747038739 6.660102132931384 -2.133332224647023 -1.1915718465606768 1.606831232360594
Ni 1.4676936583453106 3.0197367863533873 0.2676889880417254 0.5642758970423571 -1.0999151041846285 -0.07860890805315494
Ni 0.2104152931454358 2.307405330962565 11.75563665909322 0.20311740685190183 2.508122960908932 -1.0930158059616337
Ni 2.3115289191782917 2.1787733101706444 11.38585388584793 2.8615925670955624 0.03968317752223488 0.40603658165006845
Ni 1.0251718935071588 0.9891549276854209 4.848721203462227 0.29365494802184267 -1.850604207950329 -0.4442272337871768
Ni 0.8969384248798383 7.990280567388797 1.3505708668054983 -0.38217134499669664 -0.6216256386064197 -1.0012459350464886
P 8.156715214970871 8.320572619918119 2.8303619179899373 -0.5284740568523996 -0.5080461280153508 -0.1979546317040397
Ni 2.423307614026026 7.015429336326678 13.042648120304838 -2.1917415178238513 1.5784102580157398 1.7959363840938036
P 4.27210182255872 6.425010662001257 5.057504549753537 1.6584157893061051 -0.03081492849832758 -0.010230933699388833
Ni 3.743905148988461 5.571400288031888 7.4043693063429314 0.8945276703516272 1.1399204409329724 0.040133891906408294
P 1.9565229506685535 2.1564617525034087 2.3859596864721584 0.7935113411375495 0.34117073421461885 -1.286232922980688
P 5.738276748637078 4.242923754157261 7.580294649927767 -0.2038208606768296 -0.47271608525548914 0.7209807780679905
P 0.5705969171321897 6.155182562572623 7.163805797032785 1.0293810027198078 3.0603100451075553 0.2088316836278597
Ni 5.972345606507456 5.513228239988601 3.734118990526495 0.3105365542685297 -0.039379273128570896 0.49546957690192095
