# total energy = -381163.64242950716 ev
CRYSTAL
PRIMVEC
9.26809092855242 0.00000000000000 0.00000000000000

0.00000000000000 9.26809092855242 0.00000000000000

0.00000000000000 0.00000000000000 13.56478790692936

PRIMCOORD
 96 1
Ni 4.918733515142147 2.4845435270996243 12.501309194580838 -1.178090010024158 -1.1153574068816277 2.5118420616317323
Ni 8.792434147913148 5.167832000184978 2.317326773487251 0.4283830676660687 -1.1227110190332212 -0.8292239640478106
Ni 7.154920004488574 7.597554768307471 5.311441998904595 0.1777377904365326 0.38957432232898714 -1.3760639250019073
Ni 1.9821666479186668 7.96496970459325 12.667925375888608 -1.1559738948514091 1.0571828554234246 -0.41463846438646657
Ni 0.9652531540067953 2.4263955234102723 0.9009993318873277 0.40179708964742417 0.18607947753300855 -0.8384735076705365
Ni 1.5843523727579947 3.8392140657120146 8.399140847601004 -2.224783535880485 -1.841852687009944 0.6441276763636777
Ni 6.00695570213433 3.7103319905918157 8.618360860489908 0.27463829771002385 -0.19968446991095287 -1.4659172956206301
Ni 3.235564754858512 7.907850459018262 2.1890452706716537 -0.6149464268140312 0.20758804102874573 -0.03982690218895076
Ni -0.08106521260275028 6.675657744561879 9.90641884779269 0.4906878392425613 -0.6237246872272936 -0.13273962845928752
Ni 8.440144736335851 7.328733785360443 2.7809852752036504 1.6598103556607866 -0.3811326193195371 0.7516039022704861
Ni 3.651303518246026 2.7252636577696174 8.586117171482057 -0.00933053337230651 0.5767863708045421 1.2688103566288667
Ni 1.9354925410363626 0.4588446551884667 6.615736755041196 -1.6564944039136764 0.2578767619809688 -0.17162833510468506
Ni 8.801618826213458 3.6584121441353683 4.8951388087678485 -0.3311627151593135 0.1550927993435071 -0.5521012093530362
Ni 8.798421334776922 3.8653037422159238 10.289719292258825 0.3854875538541232 0.2039486445039455 0.36415768202809545
Ni 5.240095306650689 4.314824697737274 10.78852332231287 -0.10943772050855347 1.6474549194192272 1.0554525029958792
Ni 7.193512335913894 5.4913532569245715 3.897991372788441 -0.951250062744336 0.190247235757453 -4.368254648733723
Ni 2.856268125756387 5.0888771319303405 9.448865237697296 1.7319346844308623 2.1414916205293633 2.1011322428757104
Ni 8.589203445825149 8.07460195445639 12.015743705883164 2.1724916684553035 0.4574303627410122 0.2431749369944199
Ni 4.743047579863959 0.5624971326607291 2.523443559150142 -0.9221767995274633 -0.38750741249762943 -2.880546225379929
Ni 6.573986784971156 5.801148470714861 9.625777341430712 -0.6456885930928945 1.4136223428716557 -0.6638899465922696
Ni 2.120057307607889 0.3140631697512316 1.3484331132883653 -0.7687575312316373 1.0957740854330613 0.3927339510038914
Ni 8.616201395258857 1.237874054313185 11.414999941595903 0.807428465439274 -1.4926349141211326 0.0384269365176306
Ni 6.9928118227017615 1.2890061130243988 2.3485528260900828 0.07781058052157568 0.31656733384364194 -1.0370986830790396
Ni 2.709285468678058 1.4150799565351186 12.866269013528825 -0.360427782672018 -0.1521062059113574 -0.8748258210473256
P 4.986529601687829 6.754427250994107 13.343559950474212 -0.4411753343347305 0.9431076361428595 -0.1602074948622531
Ni 0.8405797190643671 4.630885141124951 6.491850181034889 0.7519227190624856 -0.42271095698195593 -1.509144995961014
P 0.45327360561599783 0.1991082551576486 13.29894521343886 0.2887636813678124 0.3103010412189559 0.33240687197905977
Ni 6.605071962588958 7.8310272517213155 11.239810776001768 -3.449550381135891 -0.9951737607104796 -0.5340559218155512
P 5.071230686437111 8.148385227865848 9.179360269625581 3.702740279164152 1.1301785310548602 3.5630501875289604
P 5.635036473564039 5.547545693387519 7.421621374996367 -1.4631672436793188 -0.4803049533463405 0.5833835644060856
P 5.95612022233897 1.7947751135554202 6.312875927027185 0.6168055915099572 -0.2976111044561133 0.9339822768028236
Ni 1.5033399882746306 6.793149335695113 1.1651538309552374 0.450771719773914 -0.6083608031767136 0.6325543697037816
Ni 2.162514433030414 7.3689943731874346 6.168342826431975 -1.5263158513133457 -0.48542787639520274 2.3979817865754507
Ni 6.554607206438413 8.121424350796621 0.23457167902072423 0.29151527597102056 1.2784625350066499 -0.8750186537844219
Ni 7.951920232295736 8.789060562745325 9.715250566297884 -1.1565662770197693 1.0340673524518837 0.930837817636571
Ni 3.979820276099512 7.459135827424386 7.8141315216088385 -3.4831788678236135 -3.74391289674772 -2.901036117803165
Ni 1.4388526102589292 8.224939660520302 3.8106201509873747 -1.661417038026274 1.1551565411564364 -0.39797411635690816
Ni 8.318287874284911 0.2598411294604785 4.307199839172526 1.0853472336727823 0.006433928550801823 -1.8784376852228295
Ni 3.072844879057754 3.3284681002493417 11.432172787632883 -0.5833002606636599 0.6903597107480239 -1.0769032166704873
Ni 7.150953261489045 7.080024560144669 7.556821507833338 -0.5495609594296857 1.010276420679873 1.3715138437373797
Ni 3.2166485808817877 3.494339127031033 0.7943514073649538 -0.7004037252475873 0.30497114436561024 -2.1584267057218054
Ni 8.401867520008624 2.847611728649939 7.169275350824951 0.10078158749545224 -0.7139683513058994 0.011467377209651219
Ni 3.0954497533003953 5.967677531966101 12.561169941509238 -3.289720067107399 -1.8061871152875346 2.3431998057385646
Ni 4.5022347682827615 6.282505319234765 11.114281896248926 2.2006779010815323 2.9743138434513936 -2.2288047412247356
Ni 4.977938081219225 2.956762037774819 2.0293189883027836 -0.2993072612116136 -0.22798254552469766 0.6270936036995265
Ni 7.124474325158079 3.470557205216102 1.6681702084235022 1.0013600920268497 1.5907024451195315 -0.8726547815379357
Ni 2.621868833230502 3.9951033583570417 4.722458515440004 -0.011966942553889068 -0.27913798535259027 0.12404235779560571
Ni 5.134114684688984 4.651868099421523 13.313676844274724 0.5133436289688643 -0.636354203065846 0.0578189678909972
Ni 3.862208199781712 5.7906199192020935 1.651471888651888 0.02822068540859011 -1.0002326632906258 -0.16430840440450412
Ni 5.841084675352639 0.70238228555906 4.464320861127453 0.7533728212454509 -0.805835409920541 1.078568263077736
Ni 0.6369050754117004 4.579104316035309 13.241335685843602 1.6996256878855114 1.1383073308095815 0.12771980664719293
Ni 4.843495151426789 7.659725123543074 3.5494166121321986 1.291589559306911 -0.5273929079730788 0.7001576706750523
Ni 9.067965228831342 2.437925028764042 2.9399506472915364 -0.7229137334246453 0.3565320471620376 -0.4188591873360335
Ni 0.834484095534484 2.676615447478669 11.989943193822212 1.1935503104432865 0.654337269906828 0.18847883100312057
Ni 4.425652531354945 9.13734615895861 10.963794047108866 -1.3456012376366762 -0.41284949080684374 0.38093207327295686
Ni 8.648639714180234 6.80529980315395 0.4457405011533415 -0.7891165545039636 -0.24092290773544958 -0.5098590128543735
P 5.74867253879119 0.929348569006389 0.2822346912255745 0.09119368669670101 0.42676275845382633 0.606100289277311
Ni 6.6496236766046914 8.419272995132724 2.624555652846304 -0.18705726806524559 -0.18807516780679867 -0.22514970406159288
P 4.973285499476787 5.296454568753806 3.5152877933904594 -0.17478487845579574 -0.11922591024356886 0.3197274767391784
Ni 3.9164636052004984 8.800349097729965 0.05230725266527971 2.3001271429188064 -0.6683860346904102 0.03221849371407355
P 2.7385448323451422 1.1519959219916143 10.407597362791781 -0.4543308978800821 1.6711548341393285 0.31399931600614955
P 7.884105609567813 4.7365784522619245 13.552064196409715 -1.429836490737673 0.2136087933015289 1.2616243804033886
P 7.475132552698186 2.1480376747003582 9.929167377447698 0.19097177262830337 0.43195510128804315 -1.795602654903469
Ni 3.359303039406892 0.3841141828665056 8.415784485635008 0.582102640811133 -0.17049550705182248 1.0181586516414274
Ni 0.42603005176759956 1.487964225105897 9.092939027164356 -0.5124386006560916 2.1452338611806145 -0.2755099016816997
Ni 5.357077152772303 2.3489606220993804 10.340071904506814 -2.026212867859001 -2.0173888418094674 -2.0244704312465975
Ni 4.7992770886913885 6.679596683288047 5.549829351039585 1.0065004985772088 -1.4392948079370953 1.7142424093574218
Ni 5.508564102135143 8.835604916351944 6.812249944685133 0.04316625097482889 0.20069054257796404 -0.6691699640442862
Ni 0.14740528203341857 6.200797827917371 4.7156223714296015 0.30044600280174705 -0.8858064884285455 -0.5718321121230603
Ni 8.214179406729524 4.854246137126446 8.327897957967647 0.1300929348650598 0.20300427831280524 -0.9061295162566138
Ni 7.604672662287933 5.790017493279268 11.643132150906178 0.7831580229276836 -0.7673195132335302 1.098422835909818
Ni 5.206062876056603 3.660228689994965 5.816106242974064 0.46652306907089974 2.0902351363472325 -0.7775108519442352
Ni 1.3686653562041853 1.3651156773050745 4.2605099765353165 -0.7079555694529163 0.13192150343336634 0.6179553888436842
Ni 3.59094970887002 1.577466181055542 4.1031720812481725 0.2524908150787071 1.4054282370966376 -0.3650190015871262
Ni 9.194066876615423 8.749050213378583 7.995628550019514 0.7771889498284421 0.009122016905926225 -2.7299803673724985
Ni 7.69748332676756 0.5325565642962963 6.393681633078564 -0.16708005361237033 0.1580703939145923 1.589689687584301
Ni 5.994035983112501 0.825636775750956 8.698542824008884 0.6157414119115008 0.6971695345810058 -0.26312566908473395
Ni 6.409042567301505 6.025723586653129 1.3506565283481478 0.5220028473057591 -0.48504709601701623 1.127201193594091
Ni 1.2643529906441509 8.838218518047894 9.880198491203982 0.7044804664201222 -0.6384090287123457 2.005779282594997
Ni 3.7641796000013046 2.0765343517065187 6.372968376233595 -1.45391590028438 -1.1515315428093393 0.44788694202695123
Ni 1.698961587552787 4.448211065141985 2.346206145418399 -0.13117125553090314 1.4879112833932182 0.4014345641016828
Ni 6.587814776922785 2.937994153256021 3.920332106434151 0.2784281037697592 0.7445557371744532 1.1157518141065688
Ni 9.050355855702593 0.13947550327080946 1.9022312156234924 0.31551086755466956 -0.17322730416068877 -0.22161829386956672
Ni 2.8921727107567934 6.652051916478235 4.333325661231805 0.4651914947436698 -2.975644132227043 -2.594825444603499
Ni 3.488361208258379 4.909799075302088 7.0645412871189395 -0.012817206369326312 0.16286164465564854 -0.16273746037295844
Ni 6.390246878509346 0.8825030024383573 11.457986275021403 1.2673026617350882 -1.7852321103024225 2.5189133666562165
Ni 0.10747741867764912 6.523355203180444 7.2258273892233715 -0.24578100715869927 -0.04428159552619471 0.5495038809395053
Ni 6.99629662496303 5.258131011970976 5.855105443599571 1.373579725127473 -1.22327766230439 4.016346987717573
P 1.3562090417383756 2.5172042802078924 6.746189771606302 -0.05839952298481555 -0.41100575272988565 -0.792972180804628
Ni 3.6319980844422455 8.863918934724747 5.360926191014602 1.011776402264167 0.02638800307522552 -1.0156256008069284
P 0.062075820706175 8.062970500100297 5.7715054080753925 -0.45272447262491067 2.1462661590998713 -1.0518444739296464
Ni 7.014045019458584 3.2842963779695435 12.187053248534301 1.146236098738355 0.11204147667998768 -0.43026048719443966
P 1.2860773962303542 5.2037273170942635 11.058123751723123 0.3388683113336874 -0.5499515099998852 0.35714988325169456
P 2.3639285892588164 2.507593269716044 2.4998683157671953 0.8443790745216941 -1.5975706329942743 1.565142851482872
P 1.666829115638381 7.3699953270284375 8.41475387390242 1.3331079902656717 -0.7244689937269071 0.3262117989119414
Ni 8.180035759041994 1.73266963495766 0.21920981798867115 -1.3028754166333756 -0.32189003160813595 -0.555807711670346
