# total energy = -340895.6057136638 ev
CRYSTAL
PRIMVEC
9.02043132946396 0.00000000000000 0.00000000000000
0.00000000000000 9.02043132946396 0.00000000000000
0.00000000000000 0.00000000000000 13.20231304984792
PRIMCOORD
 96 1
Ni 6.300825472454884 1.9030855197395142 11.384856084706778 0.7790218892721228 0.8148723233118289 0.2646809293869958
Ni 4.8135728209437 0.4880387156503413 5.643236021624166 -0.8496236107500851 -1.0997415547212417 0.7925762309177897
Ni 2.763102472162716 1.6242369231204477 4.811107537035442 -0.35401133762271286 0.012855001585797216 -0.0537864496928364
Ni 3.2737400746603305 4.49812833403629 4.849526456514633 0.8500175037543942 -0.3952304921735 -0.24830557335276596
Ni 5.2127629931942145 4.529654741864182 2.8183634391542 0.0443507582012333 -0.6041524215223207 -0.6367252132520195
Ni 7.109425965759636 6.049958254113965 2.6129754319682634 0.04196914534293417 1.3447789988456968 0.14738746027944938
Ni 5.05148669975934 4.4098814534124635 11.49753841201586 0.5040658032113642 0.40675906163838976 0.011617015413638057
Ni 5.712296444608529 7.919289319463787 12.4966098250602 -1.252428058616101 0.11767553503731347 0.02721461274157894
Ni 1.968745240076919 6.394782286170286 0.4332810887323333 -0.5872497322297112 -0.12180061294928056 -0.7206419066713331
Ni 2.776037770825148 1.6175076812779274 0.3695336998568781 0.032346020430873326 0.018034488904207648 -0.10709570263893814
Ni 0.6451782392340372 9.020792241546648 4.521369475600972 0.3989706759422226 0.9480626661552898 0.7096175305363713
Ni 8.642204734669209 2.2827193966621695 1.3073130854594541 0.9955745956933241 1.1534030488004396 0.1679529431356269
Ni 7.071603296797589 0.6642726884729735 4.796096637102281 0.2775094486102317 0.0798972878472753 0.36612020507110493
Ni 0.9196690654320296 7.460880014912809 2.6382840564153924 0.14983875003341937 -0.14355086014217858 -0.9654371528779953
Ni 7.742407679664891 3.9279468637069392 3.6604604025099077 -0.8754135752299956 -0.40378995170773685 0.5386376276489626
Ni 7.548711955691118 3.837508018247011 12.568245581216196 0.6773740971216334 0.23825255999213807 -0.644224092732226
Ni 7.7522850520744875 8.42153792073681 7.370666680238488 -0.1381579712613814 1.9308771339694684 -0.041722576549766854
Ni 6.843638953842939 0.7282113104946236 0.3540744844819305 0.5894454543294494 0.49002346618568504 0.31935672366332096
Ni 1.7786757295357112 6.494620421174324 9.18734458532159 0.07888607297394155 -0.636146200820098 0.33733876206303837
Ni -0.023168076070145604 5.0548513206806005 1.5164968901887317 0.4451402325197495 -1.074177590209208 -1.2477558499514125
Ni 6.221427635058286 1.9680416464258244 7.037981442749834 1.049157928236419 0.2797041422687054 -0.38595652307074174
Ni 3.48067779196496 4.019558365252025 0.44840745018772465 -0.3494203758179208 2.0073862220708008 -1.0331566677121562
Ni 5.904566940417263 5.681753263805883 4.835096472365197 0.1373323900362925 0.15914640058759041 0.3563587548089669
Ni 5.154094107210635 2.7961533329013135 9.213880890485564 -0.4161117064978834 1.0832960075707085 0.20919189518075582
P 0.24758197721619388 5.483348874628632 12.327791548911476 0.05961899721421345 -0.03222569280292514 -0.12129641961935239
P 3.8898626022335883 6.043463543488476 12.533339217733623 0.7639002031393359 -0.38878782187194977 0.8091819577952709
P 2.474051767602778 8.42040134637735 1.3459097074377049 -0.09969889595423476 -0.6548458341121303 -0.4338206937418722
P 6.209475563421102 7.744653767089538 5.983499323552367 -0.14457724452416393 0.19674415633570633 -1.018582369442407
P 4.729547502226441 1.1307922629175295 12.68033346209442 -0.16840314329916806 -0.5533499941584727 -0.6741694741414067
P 3.963090464535972 5.9822599162746695 8.395509465862023 -0.5039462469143643 1.3434505098422604 -0.42301229027245857
P 4.800619481418419 1.2561040962637617 3.582038575793418 -0.3069673488600326 -0.5091676432143037 0.5072012635165523
P 0.11663688444549279 5.705034997311976 3.5921252222120588 0.14253116062841262 -0.2550241230235221 1.0300859992066325
Ni 1.8792986420736624 0.9818829809653555 2.548917740251812 -1.7128429579067341 1.6852581063099301 0.4447666512304146
Ni 1.9053135663013139 6.618326617727033 4.728012224798027 -0.2716283072391064 -1.0626477351927377 -0.3419145543591789
Ni 6.006164059549038 5.44032141673477 9.169759254259937 -0.45222799260446633 1.013805259768738 0.7205370056623527
Ni 8.732887131777593 2.0062882756648124 10.118741113648339 -1.0870981549256182 1.0867063188038382 0.6668384876976322
Ni 2.2593925609989567 5.226004986525072 6.909589132072207 0.006788483676743147 0.5626051942081537 1.0178951135673953
Ni 0.5827117516208312 -0.06347767797586888 9.177416698496016 0.39669447831353616 0.3238744090280164 -0.5349601787973755
Ni 1.6205475666679132 1.0267957090268938 11.294077168982152 -0.48534611531467386 -0.26448218311262833 1.0304603518269158
Ni 4.075079120668528 6.796471117925329 1.596568553812724 0.8303951015377764 0.45598900230879535 -0.8708228705355197
Ni 5.359507371604559 7.860331779674629 8.171294916250453 0.13497057467233528 -0.23939721511954254 0.23974174294315487
Ni 5.1416278709822665 2.93068404716317 5.000415723164439 0.07503533176928369 -0.04338196653006077 -0.8680383658118469
Ni 0.7439131754748847 7.491450257009727 6.692304979923917 -0.037782618065412346 -0.41477344730243404 0.4456097159570003
Ni 4.906122447356911 4.674604054421093 6.990941696958448 -0.12727731979313564 -0.6292062791671551 -0.18722696087389046
Ni 8.271555207445147 7.179785330869094 9.39752514772325 -1.1351158204554772 -1.3662387113813697 -0.2341663057379064
Ni 4.657871154129035 0.2964321235944346 10.45146604103526 -1.4903710577876204 0.20161254017160116 0.18915914489959681
Ni 8.121319922073603 7.302616545573646 4.817616680351208 -0.6874744187804289 -0.6290856944288907 -0.26894458975935615
Ni 7.2442994564156145 6.101582183155173 6.972735760214803 -0.0915919505763842 -0.6119845159722298 0.23645381622050246
Ni 2.4015184785200647 5.23415945653263 2.6006968207135204 -0.43788560783986524 0.2570388394607057 -0.3295228655630454
Ni 2.2677725417921217 5.084871316460636 11.194202050209274 -0.31360696566373736 -0.049957562865049446 0.8107629291291456
Ni 1.1234766930324305 3.557035743971572 3.7264845482768534 0.11139612978650491 -0.7677517156749424 0.3301196186067798
Ni 3.547456045798976 2.8416433685740063 2.671250125098602 -0.13554213090508915 -0.1646850710176325 0.2304757442601966
Ni 0.9171433446332284 3.0989241136575965 8.16405962820503 -0.028110385082970944 0.9895821255553151 -0.5977118081032997
Ni 3.5653165000190703 2.537564625261201 6.999377604426443 0.1867237959852268 0.5177733826054437 -0.053965141362545765
Ni 4.020965552554214 6.932381958195101 6.050395745038043 0.9755547009279715 -0.18101080476084955 -0.4336679702140918
Ni 0.9457200713853782 7.4788847960356915 11.446722713630267 -0.33361066247917387 -0.3921878486924343 0.06423335605777324
P 0.23294632723028388 5.637156250844196 7.8733049641490425 -0.3582608569276862 0.05232014955995505 0.7350632243029857
P 8.349888633933679 1.5475993377396824 8.011612533048249 -0.4215789002600417 -0.7733500356983262 -1.062760092400886
P 1.6028043780563355 3.0739375186123143 10.318981160620433 1.2164963777164983 0.8335225914231645 -0.18640755029638864
P 4.052555103402077 6.218947016416607 3.6476279367657134 0.08950704302289746 0.1659690799363787 1.4119876354817102
P 6.91564003747162 3.7287125948386532 10.226511816046896 -0.9454008030524106 -0.2325387974368124 1.004673729781115
P 6.248994073490916 7.813596924465384 10.364251097766372 0.28713077375007967 -0.20156008966711092 -1.8264345526826609
P 2.5064621777102505 8.484843308472477 5.677298072725428 -0.5527023332721449 1.496368413021636 0.7824103461283815
P 6.893170142793714 3.8817351935203033 1.4525447375199454 2.205916266662337 2.2572411421885574 1.7599548237928722
Ni 5.389671694287384 2.847723139353978 0.7256819815232528 -1.9216363320974907 -1.507244436504191 -1.3504205134021905
Ni 1.4002505904239106 0.9991120049857487 7.022178548937621 -0.35258591803009603 -0.14355497390723662 -1.1947237619260973
Ni 6.550050972276583 0.9154745648197349 9.215016562801882 1.6191835832783599 -1.5333732723807592 -0.41085997118064077
Ni 2.5519071112258223 1.4949560999475278 9.07026660177945 1.274969948472359 -0.710882256181408 0.24152660275771956
Ni 6.604056295213806 1.8809403605928834 2.5604305168786334 -0.25601116952713976 0.16825864730150378 0.7562354875052266
Ni 4.177497099059913 6.865702929106752 10.546443065544747 0.02153581718924678 -0.502357819381322 -0.9199522810723189
Ni 8.291742932972706 7.236902702647696 0.16491423342829115 0.012398887884985098 -0.32680135286682427 1.0951863312503913
Ni 7.592488109393195 3.9806171627933664 8.138922391954962 0.15669948170899467 -1.0048385374937534 -1.1786731362211378
Ni 3.1947661975406745 8.38019728351929 12.431799829362964 0.11612053184536775 -0.3183375383701872 0.2477486724080314
Ni -0.2167420242196899 4.750971026859129 10.027367751492854 1.207985769142326 0.25433661003819424 0.9301112238831917
Ni 8.584095115433936 2.361413640407673 5.807354653000836 0.18736682888586442 0.3756127179425725 0.2785741424293202
Ni 3.636361417916776 2.534687107636853 11.25589638889256 -0.29592291812041294 0.07670294927969372 0.18657672888440124
Ni 1.1593780101011035 3.173054019102409 12.511409646898032 -0.5477488459216114 0.7840021160955336 0.22899298906708307
Ni 2.865340041925615 8.099977581323733 7.836298644230894 0.7070932214526209 0.8017093035673096 0.6392070991336088
Ni 5.636542861507344 8.038016237870288 3.6108065356917627 0.7127128816322436 -0.444955370202453 -0.2638993140259649
Ni 3.2632312720510335 8.392068171273657 3.631692442611563 0.2392491195774525 -0.2797799898119633 -0.2574882682932985
Ni 3.1452169677270514 4.113875996224398 9.03916144809907 -0.09729928537380662 -0.32576776939598734 0.19090800926990348
Ni 7.2497658378587335 6.293212228332783 11.481523538065176 0.1599583549659245 -1.7292777064239897 -0.5216750316526951
Ni 0.5504546888475713 0.11521436240988231 0.4272653630154745 0.7646555932481217 -0.03172355635552601 0.1083516865332263
Ni 4.543149307274919 0.2503819191302934 1.600740503346458 0.663548761202767 0.49124474018729586 -0.5039182218899063
Ni 6.079382901419997 5.766987320333997 0.3905089090477789 -0.5914596565460007 -0.6958865541035241 -0.018875753858580396
Ni 7.891641697148338 8.812230846585646 11.31678520304966 0.7049993150380698 0.45265376728797524 0.0977055196732898
Ni 0.06787784442463739 4.813834413455004 5.769753886651827 -0.5176674531551988 0.4079381695481555 -0.2502773523671561
Ni 8.118063546329434 8.931986094174516 2.616896613508402 -0.5076632907546353 -0.24718354393318076 -0.7377402569145165
P 8.677646009735245 1.8402762557321852 3.5263247831444358 -0.01480672599552934 -0.9536221625209382 1.0210840528183383
P 1.7183290433072131 3.4308940309343052 1.4924159464584479 -0.13824924542360703 -0.8396047930615024 0.2991509381394074
P 4.542968898646434 0.9561386696804327 8.12738345607701 -0.043924726407408216 -0.597662442922603 0.019192256657734687
P 8.607232522037238 1.6241016166490834 12.389420038445365 -0.8754130610093632 -0.34079715292528406 -0.49468590465836093
P 6.52464041695436 7.853719803440624 1.383443722594174 -0.5383609769488084 -0.7889430050405767 0.995584622995653
P 1.7615008281038635 3.3081710614068442 5.99349396157048 -0.2960818122957804 -0.9651389049112862 -0.4217280242433963
P 6.75315500622589 3.908165057593472 6.067743838753236 1.04119033664991 0.608061783879056 -0.8656881204121154
P 2.5079776101895312 8.396731734320015 10.169266354142069 0.02296740742945077 0.2385569786064343 -0.10896155220308332
