# total energy = -340896.6951985611 ev
CRYSTAL
PRIMVEC
9.02301268922821 0.00000000000000 0.00000000000000
0.00000000000000 9.02301268922821 0.00000000000000
0.00000000000000 0.00000000000000 13.20609113079209
PRIMCOORD
 96 1
Ni 6.325817687218184 1.965284361207085 11.261230615410298 0.44195309304101954 0.834367198811647 0.716840530647372
Ni 4.600229659733764 0.08943790698760773 5.902475974980277 -0.2402737041872249 1.275817898294951 -0.07391278812906625
Ni 2.7638570816961017 1.7668863568444289 4.8289522053490135 0.17081226696129292 -1.2397484062659034 -0.12209654692314457
Ni 3.384974210416866 4.1830596882173445 4.889964915268053 0.14620475282525788 1.0508350588285258 -0.4971917017993502
Ni 5.040128600369227 4.700258779088157 2.7912130517537106 0.28862175647330934 0.20443818254585436 -0.47206353927315475
Ni 7.331468550336042 6.135811084713691 2.6076615125710765 0.018654896097025937 -0.03944277937665465 -0.5771558383288189
Ni 4.935660158741484 4.682266891663238 11.567875899140697 1.2658774992527877 -1.0017696687604425 -1.2242824494198206
Ni 5.662436766773085 7.626674458501087 12.251330316052304 -0.8283762713355346 1.1445790227509063 0.4614163439719537
Ni 1.7960036189909765 6.466468409976283 0.4459064625248874 0.10690184146057717 0.5869669108819697 -0.17268917226903163
Ni 2.729822277600416 1.7329688519145023 0.34719831223719816 0.4707977851868537 -0.7688467485113339 0.14480504426425383
Ni 0.6100531104858405 0.12632669001634372 4.815996963641541 0.045604428102676293 0.09061493137509555 0.07379657426617614
Ni 8.299926554895464 2.152556990848113 1.4241318783869563 1.3405474772628525 0.8055970686574899 -0.9353200217776408
Ni 6.827542311221527 0.6260283545609763 4.804666766530471 0.3585848159260082 0.20581295140619396 -0.6899696743984569
Ni 0.7763797183273657 7.627612851827161 2.5185204627029667 -0.09375964765166432 -0.6175761511273944 0.23015255659282297
Ni 7.673666308906795 3.9197591531388167 3.6403778047359703 0.04012926392071798 -0.5047746563529307 1.3292287098159237
Ni 7.4343128496686575 3.7860651732115165 12.865175798797269 1.1235054899100585 -0.3113703630237347 -1.7938962137353232
Ni 7.828230517326493 8.74820787437634 6.894557129222339 0.7288046449877836 0.15980306033498282 0.4437371815246358
Ni 6.726105601878022 0.617599056049261 0.2590371615538162 -0.36130761417380997 0.10788374575787227 -0.3780755776607682
Ni 1.8050356547544393 6.381697205183344 9.23718568826675 0.09977860015223461 0.7104947909350022 -0.4043625363817552
Ni 0.06863986259721652 4.6009785697920735 1.4984824057540986 0.10877206190009656 0.16702888865946072 -0.1590805803466615
Ni 6.3580478887637275 1.8510530197830706 6.801255568174877 0.3137717733763757 0.3437012139459565 1.386008180698813
Ni 3.6612408148181665 4.555511608541235 0.6477232864187882 -0.46156803905846955 -1.392584291254434 0.08802171672662261
Ni 5.955251576559192 5.649777479883837 4.778029930589095 0.25999817919934576 -0.31513368672090886 0.12351168210311632
Ni 5.354364042425525 2.9604775525468674 9.078197496695381 -0.15718053511047125 -0.20276825104259916 0.06571611125088682
P 0.13222774035530938 5.463560542734641 12.563654684008 0.5900000412813386 -0.9124261478986029 -0.6774797694615623
P 3.996905912157404 6.171569284244762 12.59756767743155 -0.8946305144780786 2.2682038118476484 0.3025275679211242
P 2.4235902478540003 8.557659891106804 1.2772760297601926 -0.20405920193988084 0.10145701629592205 0.5780184434394303
P 6.410327224641353 7.643998642982455 5.661596724285994 -0.7093743041773138 -0.1499757898319159 0.1805102109753472
P 4.679929931360803 1.0473822970899012 12.56296803273767 0.31872963160228335 -0.29585092723189693 -0.5166184430653942
P 4.097918539901626 6.16471179455422 8.283282705575502 -0.4766398457899275 -0.1276447304348834 -0.6119474920867074
P 4.651101405622279 1.0648237807370275 3.691643856281691 -0.3573949093829651 -1.1052115766968773 1.2754319757104422
P 0.31704069672049334 5.583214714821834 3.4849022720284513 -0.19752037238009854 -0.15569649436577704 -0.14429956538274505
Ni 1.4095118908269775 1.1789287999825317 2.6340475087579835 0.06862660002946246 0.005741787579783659 -0.7897565020808076
Ni 1.747423718341143 6.6168549634924 4.7981431283117075 0.749236173369258 -0.22061942029140713 -0.13499088638730947
Ni 6.075826095946957 5.745439461066885 9.301657821274414 -0.4885245130426555 -0.8682227139085111 -0.38732794949697164
Ni 8.630295143750034 2.4796863181251774 10.073777775282169 -0.2964780192929346 -0.12577399577473178 1.0628914757724275
Ni 2.3797293828727892 5.362186994480392 6.845945648027878 -0.886669350649473 -0.3785463466495997 0.7547059382345777
Ni 0.37074296170890614 0.026939106868525825 9.282495649095727 -0.5174334827675218 0.39213874062205367 -0.5965342428554308
Ni 1.4550059211160677 1.1955491894693435 11.356221284444695 0.02639597349502551 0.22967844516988187 -0.03011301733529653
Ni 4.045738457164258 6.873667952403166 1.6591344408767008 0.514112903034721 0.4484430716407374 -0.3962568765554853
Ni 5.751232235252842 7.699039020761798 7.917989643568026 -0.5722476023939242 0.9410404692011858 -0.04901345378422527
Ni 5.402646183654585 2.8797396344534967 4.822454733867226 -0.50907225528702 0.09671487362524633 -0.648483125118896
Ni 0.8580614435544615 7.471650076431104 7.072614555941065 -0.698533504808068 -0.5212903946197668 0.2733136653613293
Ni 4.949077378701792 4.63541038644879 6.992427041625488 0.3689540749754743 -0.7283413321981198 0.014694625897697274
Ni 8.227968028208537 6.99130999264695 9.06171606160493 -0.4229536691203813 0.9085540665377063 0.046749340340396905
Ni 4.781781699290841 0.19216490715446413 10.399929007977056 -0.6123794374178034 0.10530338662520575 0.2120422201453574
Ni 8.298473849842601 7.079500919272409 4.68255021426361 -0.413761718208468 0.7983946373717798 0.45413549403982434
Ni 7.214909271622344 5.985974934975366 6.935258135138251 0.009629809780280189 -0.07602957736175293 0.06603004294687982
Ni 2.3595539263621976 5.260930745391902 2.5438101628406624 -1.0252186438120021 -0.06765960813050283 0.8208534805959283
Ni 2.3606276648795324 5.113891729606298 11.635120803966652 -0.6502024218028479 -0.3608970089989526 -1.2748326515635464
Ni 1.0732151825951899 3.243502393498452 3.7550070610222908 -0.04971407939567567 0.9176470299779099 0.12362429642158065
Ni 3.80219832000979 2.7327547567443977 2.6209469965452246 -0.7721765842155153 -0.1020044041589598 -0.0009999020194240843
Ni 1.0572173809881773 3.3835756434405053 8.35722358816376 0.3205335175802415 -0.1605183412344526 -1.4437960382415584
Ni 3.703008340841212 2.434995335970901 7.038345153513861 0.13334666591566713 0.38877419502519495 0.019055216859238153
Ni 4.191721780458028 6.788923816648478 5.9824252817592365 -0.3974652950412897 -0.01014737284664704 -0.0407499282238524
Ni 0.5138344094160728 7.348901010970418 11.397966252935863 1.1316877686105349 -0.5154092532486414 -0.29351276601702353
P 0.1323179704828165 5.466664459120887 7.852156840237556 1.2237746565454668 0.15057151443438585 0.5093861869830131
P 8.490636952394514 1.5987334912221596 7.938392479999935 0.1367639191273322 0.2375231380252813 -0.05385844058135241
P 1.9887081023079332 3.1917012772966142 10.336513469762501 -1.080435655303778 -0.03301116481869799 0.8673932760286803
P 3.757859235352791 6.275162493635687 3.841969053311103 1.3137763798165956 -0.38482883722420175 0.20676117425207619
P 6.8023139675705355 4.052595946854799 10.48336480688289 0.7077413965595811 -0.7833485416719348 -0.5523914868999454
P 6.424646745876733 7.770708811040704 10.129943322751526 0.10496888610392245 -0.6970787746394124 0.41290502663512757
P 2.444695074677916 8.343354315264643 5.96986615031152 0.17681913527700516 1.259184146393012 -1.0767155261397134
P 6.8426287885407175 3.940737657784222 1.7063726195305033 -0.43980107969502313 0.5414041346505063 0.01591487145804356
Ni 5.361095209937555 2.8277309889583924 0.6043397388120897 -0.8878016644817034 -0.323287683286611 -0.8969295949249005
Ni 1.5741006664127157 0.9755049775177292 7.194203261962009 -0.5771216426567739 0.6227821208083661 -0.5308620974686019
Ni 6.8886281075438465 0.7046648129847066 9.197091931108963 -0.21740425578821915 0.2106661657334372 -0.7912665109674307
Ni 2.9556231716869847 1.3976195600215393 9.236577537207355 -0.46050591634254234 0.32859623998371795 0.18148928705916487
Ni 6.323625095119762 1.8532456118814935 2.6222408965736768 -0.2871911946743699 0.4687858969631475 0.505825209104632
Ni 3.941279038549265 6.817977917705771 10.359861417556244 0.07533537950820574 0.5150202453403387 0.4760101826257286
Ni 8.162424863587365 7.146271213627677 0.21466198484581445 -0.08116175638199571 0.9712617299795724 1.1089458469283289
Ni 7.686081974451775 3.7679018485443336 8.163213474901777 -0.7886504135008223 -0.06219035748581547 -0.2471074392796067
Ni 3.041585414163018 8.306892320739015 12.292467133484076 0.37908139321746326 0.0911083260717463 0.34677831020938343
Ni 9.165034971408234 5.0647163101149175 10.17814606146838 -0.47436879036756363 -1.5596188363408496 0.8819647460849521
Ni 8.786519586515864 2.472837851447387 5.80758997289379 -0.5480771757953077 -0.8354779153773223 0.32961491105621943
Ni 3.8012057886072115 2.7142756266309394 11.407038892256704 -0.3105229274217749 -0.624133749740254 0.003118233914007533
Ni 1.0575783014982056 3.2885994112265107 12.665803309057535 -0.41231135891518667 0.7011274907874893 -0.16211962428330143
Ni 3.1617809670152526 8.18731935576658 8.048188108355701 0.5455536380425056 0.027537800408952574 0.6223458046018959
Ni 5.710547470759882 7.893313508297378 3.502360899399804 -1.0608518196345795 -0.013404189221047884 -0.21602125939776345
Ni 2.9109863276092125 8.422332745871625 3.5038397711896456 1.193723345686041 0.297168617602056 0.546914265835458
Ni 3.224951079282988 4.296090968945514 8.932216880305436 1.0003321649829675 -0.43095365660672236 0.5068145696010948
Ni 7.218058303072343 6.04014008051789 11.499467927971173 0.6527516705872629 -0.8861067932777836 -0.8253143445807594
Ni 0.5756167823227482 0.17954351691876816 0.3559858243551166 -0.3922037895320342 -0.2094991420085295 -0.3482672360500841
Ni 4.548915786220465 0.34465472494277244 1.5289612405247286 -0.19302659827480306 -0.4538940674529796 0.006649129885401451
Ni 6.017654732743116 5.5863727692845835 0.390991504622779 -0.23536006893569145 0.4902607790074718 1.0929975511291887
Ni 7.8359361702156 8.886774281189025 11.394849704331769 0.05291433150052823 0.13495463383273532 -0.0008219816806631005
Ni 0.03020092597790822 4.898620691399811 5.63753505618367 0.15480277890691405 -0.36641151105927866 0.23321885422297256
Ni 7.834754155545257 8.950783533642575 2.245418228873341 0.5245724078051482 -0.8320002412413671 0.9183553688988442
P 8.358558091749591 1.6542791577155427 3.607191163838851 1.0424524911917854 -0.12043227184684421 0.5446979749104297
P 1.949521157931591 3.338929776349982 1.597104837420656 -0.4051490368387926 -0.8583165105383928 -0.15762790706053498
P 4.843499106505711 0.825335878608904 8.165906844207864 -0.0016632466350358455 0.7782253615127566 -0.13033230456937553
P 8.498153122015857 1.7541368398276727 12.27277711505947 -0.7543560110943266 -0.23714467163993994 0.6882141251599309
P 6.321603940263602 7.6235254270510895 1.3231706818154143 -0.8890543059418817 0.5132754947350903 0.11932412638432999
P 1.784860198243847 3.324736577293112 6.125513120261303 0.47028459299586106 -0.3610430476585137 -0.25328605728649284
P 6.870031678264629 3.9334831555326497 6.020168544095464 0.4315537520845665 0.2726058406610273 -0.3941267175863599
P 2.093393096241694 8.426266779430936 10.254741514407899 2.04415762526288 -0.5536299872927369 -0.19959988061694656
