# total energy = -381167.3676972106 ev
CRYSTAL
PRIMVEC
9.24840081838024 0.00000000000000 0.00000000000000

0.00000000000000 9.24840081838024 0.00000000000000

0.00000000000000 0.00000000000000 13.53596944037790

PRIMCOORD
 96 1
Ni 5.080766293295356 0.8400581552325465 5.970851823871384 -2.4302689287439305 -0.4140103438841644 0.6277983430760349
Ni 5.8266960731797255 2.044895440712583 12.172545585525544 -0.6874754472216935 -0.9657099469234078 1.5547136857297483
Ni 2.4615821462198704 6.648878919025866 8.165519569182061 -0.4088467974053539 2.215835582658577 -0.13651863588574556
Ni 1.475545380465337 2.0391151901090523 13.650890456963182 0.2471004973010712 2.3117762971219604 -3.958049280417945
Ni 8.76817774550709 5.435017043883551 2.0161153417475814 0.4809158474574621 -0.6733850305668984 0.8356923453809736
Ni 6.509431529265821 1.1905466563079163 10.189647725526282 2.0213933349831708 -0.57353495374678 -0.6604061018087272
Ni 5.6141493221871945 4.298924972461372 -0.044777982955379776 -1.3692949817091902 0.48164552653463505 -0.0007073104796697496
Ni 0.5211002275693616 3.6829629713472585 3.6153895296917486 -1.1814190743973911 0.3118835552147274 -0.8044115329898212
Ni 8.693672627327828 -0.1169460302106238 8.68040117194212 0.3237674511365069 2.0390295600076946 0.09839946041652085
Ni 4.52805410638531 4.747675884116563 7.192946625553319 -0.8265682715925184 -0.38255186826456694 1.1629366993224874
Ni 8.365835309897523 7.657389299126925 1.4846522808962108 0.17621518314441909 0.21502752802592642 0.398519704447733
Ni 6.801163089326233 7.610213205801154 12.959160930937994 0.8067553506316494 0.8042009596409118 -0.28974815676826876
Ni 3.9019836030157435 1.9600968522585525 0.30971877509850215 1.4905674900691426 0.30518506014862923 -1.9955118392307178
Ni 3.256537699623143 0.5869664144066128 11.701020486492444 -0.8338324093540995 -0.05775571875322956 1.6774386102655112
Ni 1.5868406376859496 5.498812513744594 11.23125443332301 -1.4740100999310937 -0.9174174304656072 -0.259726670705514
Ni 3.7694632655789677 2.667229590092028 7.9598675011094215 0.6590752988124455 -0.1991990456341021 0.07832737225699414
Ni 2.756781856642401 4.70704765867447 9.069194700137015 -0.8338036129986931 -2.0423336846802633 0.8435257253824634
Ni 0.3807603671161302 7.217627833210345 3.8817508762231947 -0.9137129850308263 1.6435188175896145 -1.21101658554885
Ni 9.177817169478555 2.578620660440151 7.201636423100643 -0.22156455781349585 0.04965802934675964 0.1801443429954962
Ni 0.9939996389859569 0.21728285712703968 11.923199447090697 0.5765117769869168 -0.999733355056704 -3.025611979504738
Ni 7.292669358645616 5.091753393642546 7.063935131442911 0.8094498667446769 1.5024418729092253 1.7353213415149082
Ni 3.952017452239901 8.502119746527317 8.210188421006047 0.06446115579786318 1.5373222297261784 0.2937644770165134
Ni 2.3243728694935113 9.398225061291887 0.4660444966208568 1.470690034418925 -3.124948092802915 0.9249420209774265
Ni 4.921092650623436 7.917398843875165 4.607779022069586 0.8125619300110973 0.9872251952873643 -0.2326920351852251
P 3.1985779707714244 1.2667997222696874 4.4227296168281205 0.5956307572045548 -0.8479577930118879 1.5518852151420175
Ni 1.7321885072620795 2.7512975548697716 10.95191203119618 1.6964051240656848 0.5030229637691466 1.4726422730492896
P 8.899856478455991 8.68072486597592 5.995676381743376 -0.07224234240517881 -0.2354616275105622 0.7223092670714271
Ni 9.137355415253843 2.3641779872496618 9.82566580744203 -2.476437456880193 -0.5596965052017908 -0.48526332579288045
P 1.6791859213279487 2.4621647954807067 8.702518722851469 0.6913225888819255 0.23726037128219785 -0.8780715816781329
P 2.836688040985603 7.256915040512419 10.458675386056123 0.7116181059061679 0.5104089718205727 -1.9675932584435794
P 7.992828802150992 8.890487848277791 11.270197600109162 0.896656800879488 1.345700739329018 1.7048136598443542
Ni 2.939844705356445 4.157091495252188 13.067435660403227 0.640137324257362 -1.7478207595334996 0.1970665726721316
Ni 6.106497195994451 7.098378951159275 2.0353085482715914 1.1120702514899234 -0.2426514603907821 -0.6577594082144994
Ni 0.1285083810978774 5.587541672609024 5.311839441102273 -0.31924333801390825 -0.8239488316918003 0.33003220109929615
Ni 6.953909679674882 3.3623301582691947 9.039821778670115 0.06329361785232325 -0.8065874575952172 -1.0714355086876968
Ni 4.0852961585558605 1.3276264554207569 9.894441541223076 1.044537398745272 1.2707399695514117 -1.9993232425570087
Ni 1.2223981492336096 0.08207585920974314 4.779808528431611 1.6239419238989516 -0.21134930784339084 -0.3266162334392117
Ni 0.6601619590091404 7.472550757427477 10.241355535325221 -0.017593030491414863 0.8059644792992376 -0.6964889635742134
Ni 1.162912434222559 4.99532031677373 7.248485123032231 0.04599934954824981 -0.6949380741473258 0.9010256193711449
Ni 8.344203300038872 6.0694203565231675 11.366491950963493 -0.5515167976044759 -1.0261198154700328 -0.9412970652966821
Ni 4.803822926379015 6.294424703616427 8.940860188977291 0.7390083249936628 0.9255338889251544 1.257450451531357
Ni 7.340048916792633 6.280367134148642 3.8864203938707504 -0.05434155086535803 -0.6370807968192254 -0.6874232538275193
Ni 4.217520547161735 2.985309844503573 5.502805048441465 -0.48269376529349134 0.5626992965838568 -0.6858677364149414
Ni 4.800992915683526 8.826636888010954 13.07700590572248 -0.10363319801163443 -0.20186887915678137 -0.2389488147282143
Ni 7.009205869048493 3.69581824868951 11.256025350469404 0.5183261697851202 0.9762635540695381 0.7813019435555513
Ni 2.1009592473663434 5.786280560959842 3.6545629816619454 -0.06268709461657591 -1.7224863945337687 -0.41895586081489783
Ni 4.442302932631819 8.601549305309003 1.7850292461793116 -0.323709601315378 0.39573828504785397 -0.0379206863051734
Ni 4.788479829177003 4.168504022043798 9.95516469228333 0.8585085719445408 -1.4201334045172962 0.494713929682819
Ni 2.343674282308819 1.525172300047006 6.494476864904367 0.5290319862383985 -0.3437827179161692 0.05862603717332484
Ni 5.143766400673352 8.513735738140172 10.501476060885048 -0.569755946320322 -1.2334000954503725 0.41598392267076745
Ni 8.013082800265762 0.8662755222899665 2.421463507670984 0.6672920302952831 2.002913016790796 0.2681915136434155
Ni 3.2142725072101297 5.52572536055463 1.5031019159825827 -0.8797600251241494 1.349084053978954 -1.3272631014491205
Ni 8.573619134392747 1.814952447503667 12.294775227207841 -0.9180697193376253 1.185847799592706 -1.755103409237842
Ni 0.4298444055611158 7.029210160337191 12.848680457842455 -1.0344149655992894 4.825505034253445 -0.6067546350318582
Ni 3.7829474341868834 5.58028167785099 11.59759191913321 1.0187728881866585 0.014132839856956304 -0.8192180018750342
Ni -0.14958548689859008 5.1055520078832926 9.40158408052261 0.9020450617745949 -0.7892440812207633 -1.0181573660898466
P 3.921155538217533 2.8335435846572827 11.61133041876768 -0.026355607175393325 0.19949343694606933 -0.2383806009295701
Ni 7.49084409453753 3.026252515578498 0.4630248937055726 0.3265280446007796 -0.5961136103782444 0.9973481426539792
P 0.4808650591683083 2.1274096741280974 1.7752555360388143 -2.854968376910825 -0.6223877135834248 3.297484798654482
Ni 1.7685162262551464 0.3873221076012577 9.609766511099453 0.43932414005860465 0.26640742515979926 -0.2847165078816323
P -0.2299735129321024 3.947892665409222 11.967232008928246 0.9999362150961296 0.45265325306734294 0.1116259864091239
P 5.59675307997081 2.6183702877905075 1.8114778232608728 0.23900332211523354 -0.7998200569643967 -0.2800885221913176
P 3.4268470034055576 5.092197316888896 5.229554568030706 0.16836791918585842 0.12194459472631257 0.13702720009104788
Ni 6.540654130925849 2.825386495005581 4.334744954241425 0.25188789138738554 -0.8204516171718192 0.8287467673010759
Ni 6.680120017487828 8.039172539389856 7.761389417665836 -1.9291146427524068 1.7709385764978856 0.5282462571123097
Ni 9.122835425737776 7.028516530264767 7.717221829174187 0.24688143931172965 -0.5872983260794595 0.22405544255614962
Ni 1.5963942358834642 3.4394525739217365 5.587160638489239 0.7548110963538742 0.9079591132661847 -0.6953473937706025
Ni 1.0937713886033715 5.250946119464252 0.028993737027307682 -0.4266475730322007 -3.362634752989254 2.149744604566775
Ni 5.600221230332928 0.764881603143177 3.442968815968876 -0.0006286347229344012 0.37602769399280406 -0.37683784859892516
Ni 2.7922494743456627 8.102699805622896 3.2767870735374305 0.0028510962955499283 -0.0725930408763782 0.4700429092987002
Ni 4.450968684336631 6.164965586899281 3.2867365032962743 0.4528604839821426 -0.7216821750103893 1.0161231092686371
Ni 5.923915264130621 6.011173927241514 11.465359206966468 1.247981078588341 -0.1725577888974899 -0.7003137366369424
Ni 4.785372366452545 6.995629216430921 6.692995641312202 -0.09772428872636718 -0.01289973878080359 -0.8123405580289107
Ni 8.88307063070334 1.6591723816382855 4.570311900077551 -0.420167878845128 1.0811229111787897 0.14801660922301604
Ni 2.1972628466216397 7.22611786529681 5.599668175955181 0.7394508118477201 -0.9905614587494488 0.7334966511468141
Ni 6.589698401246682 3.0160422809124223 6.789344557732231 -1.5026043666290188 -2.3005230928056446 -0.532819992525921
Ni 2.0272772368730227 3.5484264824999716 1.8246355233147007 -0.2421583228044475 0.9521368362246633 -0.1855737415411836
Ni 6.466241496756242 4.3638025052353955 2.7491963181703767 0.02793786406084866 1.3316419472431065 -1.466514562884997
Ni 7.523925624791654 8.630062125486097 4.0138078687715915 -0.06451129230950825 -0.6934344930186058 0.057904071405635756
Ni 0.8519552982347565 9.124453895906763 2.47739413735084 0.2115781360247453 0.5895318433956686 -0.9808797126853107
Ni 5.714272511041304 5.045261681988231 5.32327693857649 0.4755137026052843 0.45511431301332583 -2.20364006903365
Ni 2.8650621351482126 7.43008210019322 12.57621516667368 -0.34423574629318776 0.46582578589355905 1.5691242047281235
Ni 7.6955297047092595 5.502604358140509 13.42003372173886 -0.04679639152824844 -1.0977016414730771 1.4419085914108587
Ni 1.4120643562371265 8.876874202056356 7.2579055442558404 0.10745437152993753 -0.6617495032104991 0.577226029445122
Ni 3.4749294400259636 1.7464772867540064 2.417335021479919 -0.5662579604693926 -1.778537471891066 1.012496311149327
Ni 4.018883391221539 3.8503312836225976 2.925623439191568 0.9774429190896198 0.6201449402958352 1.2859809548708818
Ni 7.479006141301499 7.118762426887564 6.000563236813625 -0.6491629247947401 -0.16147633427234773 -1.7745314360554663
Ni 7.235403259866321 0.7466946226442294 5.912457420174279 0.8284639459533344 0.22453495329572942 1.1835386918435553
P 5.8765634511865015 1.262304999400382 8.126847380544204 -0.38617686661166395 -0.17841399056795082 -0.7198924300998183
Ni 9.144791129630224 0.20431104993262125 0.14665096927218985 -2.088899191144628 -0.8989214285439485 3.4026226062361014
P 7.028895714704359 5.482905264083677 9.28970894856145 -1.6479606554110522 0.4245716643397785 0.5991567680799423
Ni 7.449947665467433 7.603804063931959 9.791852728671524 -1.142483059453826 -1.4228736862665947 0.052293410087077684
P 8.155859614373442 3.8512561237191623 5.525693915991347 0.9283775290215366 -1.3223641214856066 -1.0903223182898707
P 1.4642160892824174 7.189790146303744 1.2343313609995856 0.15296366881564624 0.5334941357748103 1.0043032338155737
P 4.789728363307366 6.430884859864569 13.885197770587787 0.7715114398276905 0.8237997077084457 -1.027623910819385
Ni 6.6062900325790554 0.27443057637397417 0.9267794862473347 -1.1614405743929352 0.2571938769813312 -0.8323954197972567
