# total energy = -381166.8612045117 ev
CRYSTAL
PRIMVEC
9.24799024423745 0.00000000000000 0.00000000000000
0.00000000000000 9.24799024423745 0.00000000000000
0.00000000000000 0.00000000000000 13.53536852362887
PRIMCOORD
 96 1
Ni 2.0258277684436505 4.4359465268163945 3.880130285948478 0.013693438326692547 0.8728342445385936 0.8485925983824095
Ni 8.2502986319864 8.816913751155809 2.4721404054815532 -0.5328927547453853 0.43788432228828456 1.8449626933938355
Ni 1.7230855571927772 7.342571389711282 1.1061567466649134 -0.0886871182247634 0.4097960486925007 0.8286012428621472
Ni 0.7809826100838188 5.6820854790225725 8.558088396356187 0.8362024522481728 0.8307308876106403 -2.075102908691484
Ni 5.42096847222063 5.188233547723455 7.339892246914381 -0.8364009414122241 1.5832362186494733 -1.310508250588285
Ni 8.562076129783952 4.022783311095353 4.0803048861124385 1.5350177499627178 0.0183425070629297 0.1457183001071426
Ni 8.05492558839873 0.4757619374260772 12.226796676308492 0.25277903574308724 1.0467377488307006 0.9469732897458529
Ni 2.917361779661208 6.484422623563851 3.26636891210663 -0.27618995846785976 1.1794061577324204 -0.31493288356401244
Ni 0.515473732676944 5.782786845662076 2.7130024638755765 0.20631097408853502 0.04641458270879749 -0.6701063598156266
Ni 5.848475320934404 3.353811435018421 3.8747433315846695 0.0173091807024089 -0.3916638578681642 -0.185224585731881
Ni 0.6952352437984419 8.045585118171354 3.5904869281927088 0.5676952071365514 -1.2210798833221228 0.6560923049247217
Ni 2.900530437271283 0.9364792441928521 0.3567190315767181 1.357122093792082 -0.38735263208732 -0.047055301616589926
Ni 1.5967210174038007 4.214688358311472 11.190826627409566 2.1921096997965472 0.12737065083789031 -1.3426128444323135
Ni 2.233824318823764 6.713245648153916 10.312137149953198 -1.4564458657950852 -2.3809939937682025 1.293236865102347
Ni 4.917831558636082 7.601468878835433 7.454509989393641 0.5966309163342951 -0.039687805507925195 -0.4600307764783368
Ni 1.9327190018602627 8.342871015130989 11.989128873772422 -0.14248539499214172 0.3743531345038585 1.4410339021153893
Ni 6.32214813734626 8.052558102875752 12.904174050791028 0.2511584694205287 -0.5127653878678912 -3.8891766258159475
Ni 0.04684754458496915 3.6976887072310456 1.30696205976898 1.2090059828767241 0.9033043881029927 -0.8625246350824693
Ni 1.3720965804208929 2.446971999814421 3.479144823886257 -0.33546879873383517 1.8150792755708418 -1.7166255648776179
Ni 4.330380717266396 0.08369986122761351 9.497077545123007 1.393929492428419 -0.8627568056979334 -0.7765096643732304
Ni 8.084324949639154 2.237800954663142 2.513544582961737 -0.9406298640263284 -1.2859020220038306 0.3762894322946229
Ni 0.9347961099538595 5.720991774316207 12.94607946934678 -0.6655153980108345 0.5688270067481493 -0.3602820011227731
Ni 5.644122478741999 1.4607940556196688 13.304509379133464 -0.4697621448334877 -2.0825346823791815 1.0135921153166674
Ni 3.970569157725288 1.925542561368734 3.6850984932037685 0.6057120526999569 1.4206995614334113 -1.9588358239659232
P 7.821265864869143 1.308461159000522 8.710848550128308 0.13146101885718003 -0.07346850150279605 0.34571361639029496
Ni 4.933312694438683 6.109786535533155 12.054031269867199 0.40298519641825437 2.6934395921339873 -1.4065669786867712
P 4.033150308248708 8.627829340988551 12.672556283525012 1.0076636656473743 0.055526829422710824 -0.3146870861017935
Ni 7.221718652155491 2.9030458906394476 7.258382309795522 -1.3285468532575506 -0.4770219117196946 -0.404816078979406
P 3.9267059396179174 8.563481824313222 2.760849716214585 -0.2060600344199935 -0.1254675202779065 1.2604735546283967
P 5.187216268787801 2.0897313815834213 6.151174991429786 -0.7023595634223775 1.1096588138349535 -2.1208348635109604
P 5.916614513642629 2.4719415736895844 11.56285940616402 -1.5093506842139166 2.1795462613092402 -0.4917255364784563
Ni 2.6174309574688714 4.4816038550466475 8.943792479206808 0.4025059427889907 0.21946036698629948 -0.03030919250650264
Ni 2.408842535708013 4.853752233680152 1.209707419123282 0.43739966934238217 -0.22576136950366282 0.44123112727333047
Ni 4.031633637835549 4.857155494119434 4.890477852855356 1.1273045519411746 -0.20261964127987683 0.9189724336575528
Ni 7.036906813517983 7.302065192091572 1.2663541342557043 0.6985358188009131 -1.8336200146875068 1.3705288541162912
Ni 4.096425058046437 1.3971308902283257 11.463767189840915 -1.3242672520455903 -0.7511984393019514 -0.5490282268546673
Ni 2.450356764273054 7.342645373633876 7.741757192856427 0.09014210550373508 -1.483268128194252 0.008713211503281769
Ni 4.443983030408067 3.282342965793508 7.897062393565751 -0.228996845721825 -0.3120136530346884 -1.6731664652527185
Ni 0.8664784310323793 1.1662363158056546 8.160785484041035 -0.18847625989995928 -0.8860787682533255 1.4938338195252403
Ni 7.956582459291881 7.120980293554691 6.636079492090303 0.03306824330887853 -0.1944695013689167 -1.4331318736594931
Ni 9.002881588583833 3.5755504990201987 12.240940552710223 1.5037595632793845 -1.7614717746580308 1.1879977560561732
Ni 7.463285407412212 8.261544188220547 8.725087680830377 -1.9665599320830582 1.7696872205892877 -0.10179923012668919
Ni 8.03926874077997 6.517317725146799 4.071330636301898 -0.3031379478116134 0.22600665274524945 0.15002206968881904
Ni 4.059118665078878 3.3241161380876245 12.98104149676717 0.5880202918471487 0.9902027898584495 0.2784054780619399
Ni 1.738723908830889 2.9343965778382644 13.115190070011973 0.05394714364041677 -0.908529641057674 1.3616354082814035
Ni 1.46457648366224 8.700574032878194 5.938264058991428 -1.49208186983114 -0.0638497474661094 -0.15859541318012685
Ni 5.727770551223799 2.102401128327486 9.28338145830613 0.4507879177238301 -0.46850616093919956 1.9694138565920856
Ni 1.0419063338879877 0.6347256431076285 1.8791555667019066 -0.44873514895985944 0.16157017953773464 -1.625758151172084
Ni 3.968423623970089 6.849570273521985 1.1505304538381764 0.6543930628454279 -1.017210428795545 -0.6572133059030423
Ni 7.195916759151154 8.727735380460178 4.95891205645492 -0.279211518903003 -0.5488870732911127 -0.21031315326939265
Ni 5.9549844254974635 6.924220051418401 3.2631746562486743 -1.703817871589988 0.8141974087319913 0.8763509994426003
Ni 8.971308949617237 4.668995882984589 6.749424711100963 -0.460557081295452 0.15405407366634757 -1.5197731650988213
Ni 2.2365709719500324 4.977379368333185 6.6228696627113095 0.356284964148238 -0.21487557582909445 -0.5323584795084703
Ni 4.089396585400095 0.07883079432195658 5.00589369689959 1.694518448565933 -0.8945960616957174 0.9638515535584302
Ni 0.7013333686181763 6.315489584312882 5.310331064776877 1.239289207241298 0.07801729721574305 -0.0854084474734916
Ni 9.012037099004726 5.3178071401549065 10.358401146348715 -1.3032137738094007 0.06940204474290629 1.4354823761695406
P 7.2911988034607145 0.4679575583915399 0.9035869170070021 -0.6650592843100224 1.0193596139280638 -0.7292571591441699
Ni 2.2557975438339084 8.841624381301896 9.737195140295938 -0.9667479012696188 1.649620302501662 -1.0468773597323584
P 3.9577052031844167 6.820318880126748 9.252304511620908 2.062985299492344 -0.06238061911975064 -0.03224934695200898
Ni 6.37831118258473 9.103527467281392 10.788189474275452 -0.3034660205749935 0.31293565062832557 -0.925207358823671
P 7.807292151489375 6.065470165899901 8.408820283730458 0.38451079176315067 -1.4090709760555475 1.197822455456079
P 8.179190834384128 5.842982014681868 0.2093190129964648 -0.5407734430450429 -0.9070227174948443 -0.14217352017867774
P 2.9633982754947508 2.7610892391639803 1.6540622566095655 0.192522662055191 -0.10171438372236676 0.5801002656691235
Ni 5.582484623231642 0.6285470607720742 7.506701947586928 1.1598524039702087 -0.951361905731852 -0.2852986056373473
Ni 8.807249601267088 3.5808958374275486 8.752145450920732 1.2827053694434036 -1.600717149043056 1.3505110162334677
Ni 3.1214556781245366 0.19632928578718517 7.260181968712598 0.8575783468207876 1.481312547129778 0.7734719059881711
Ni 6.306435801785555 6.728865503811379 9.861030354731264 -1.5660810470264253 -0.7542796493304365 1.1981096476791948
Ni 6.531097230729759 4.365069928972226 9.0279824839216 0.649934512853442 0.043389422729228494 2.1521830388049388
Ni 0.3051568615245051 7.88959001738385 8.405017510109174 2.034277132924374 0.007145867016161887 -1.8820395436414747
Ni 5.213212369588944 2.979156851007076 1.6107631659119668 -0.16201703726716613 -0.4681801450583485 0.1301538700099823
Ni 4.81380091547989 4.984333857056934 2.685768981969065 -0.6113121724955536 0.5588524120339408 -1.062570344987583
Ni 0.35583769809882804 2.294222943630688 6.114101647818396 -1.741762983375194 -0.2805549203047749 -2.222829240367591
Ni 7.731190439112071 2.3391589286156584 10.78533369486336 1.990578663595159 -0.20336706096886267 -1.8454949117482218
Ni 1.481750001694158 1.648241571499555 11.028739875395553 -0.7855247233876472 -0.21334139857275516 0.6005428497941915
Ni 4.10056815771165 4.497427166491242 10.803660437288697 0.21164292782440972 -1.176030299281652 -1.1459874730626587
Ni 2.8090770609559153 2.3133385396306743 5.616907492816137 0.20728259397318494 0.42871988218019713 1.2451965738646682
Ni 8.28727209730229 7.180130439667856 11.60502191885078 -0.4038529437351884 0.015882732668527487 0.3983572107279397
Ni 6.248275190637072 0.6381538731207853 3.2402590610245006 -1.5347752949346085 0.5869116321640021 -0.8077259420750347
Ni 3.29990489941904 7.051629614114004 5.531769569093121 0.2574011078961309 0.0477430717122339 0.16570837007582429
Ni 9.045477832016799 8.261285244491472 0.20365184452583504 -0.14083320410069938 -0.9001545296201012 0.18858398912241717
Ni 7.082591885719207 3.161869395841005 0.07765814914885631 0.7171899435669906 0.5939649394663578 0.5966995647887013
Ni 2.165435430376788 0.48022871675263423 3.884854159406046 1.5108097852579463 -1.8287225773858893 0.4422451703601416
Ni 7.375133563642561 4.7414631351645085 11.803762155715468 -3.9105358082180137 2.262749730711613 -0.0718312230096892
Ni 6.823916348362836 4.774607932486208 5.401180547324079 0.6363930267235813 -1.3027756578307175 0.5989950456910974
Ni 5.211834419030647 8.748265918979756 1.041770388430223 -1.651417503611401 2.038221976504735 2.7583573758532944
Ni 9.242321306066005 8.91041093333281 10.301999502959882 -0.4957246303355204 1.2830486117154354 0.9833744540827064
Ni 7.421308779330966 4.738707234047916 2.1946109902513684 -1.2449980847006172 0.8142871402323202 -0.3361431990930404
Ni 5.805583141811067 5.381488801526899 0.30916586533001744 1.212118560363777 -1.240111188921961 1.8119258175435247
P 0.88926270479395 0.7573262508346823 13.100910248152475 0.03583680719295118 0.7923011228795322 -0.716948774090462
Ni 7.304358693691958 2.174489212904116 5.0809069208157425 0.3855299770562844 -1.7672336168424725 -0.30122736105246184
P 0.04766876612575231 1.0761516420582584 4.264737557146656 -2.0247761354124743 -1.6931452223674903 0.24797878614096644
Ni 2.896405833586719 2.1632621526506166 9.165204164351112 -0.0014213058275588425 -0.9941697449259975 0.6063553427109105
P 6.012479181342609 6.6046927377292235 5.6132795062119785 -1.4804070045963729 2.348097757260814 -0.545220423072803
P 3.0561926104071184 5.536799551030417 12.687499186290747 -0.46893656360839886 -1.189138554528836 0.05641283157208994
P 1.6205345924884476 3.0271076808377146 7.47248438338763 2.30512511035403 1.877519544283934 1.6709594302990707
Ni 8.348540033199683 0.2924704683978571 6.795120880890578 -0.11074409802480284 0.33327333374441315 0.17233230315024514
