# total energy = -381172.00033109414 ev
CRYSTAL
PRIMVEC
9.24873861934204 0.00000000000000 0.00000000000000

0.00000000000000 9.24873861934204 0.00000000000000

0.00000000000000 0.00000000000000 13.53646384623469

PRIMCOORD
 96 1
Ni 4.201997896849914 1.700944761116462 9.416830704916235 -0.9657053189377176 -0.637191868475793 0.5954793192283552
Ni 7.566735236204138 2.7238090044497874 10.48676640325607 0.47855711741729845 -0.022829082079373588 -0.7264567135808973
Ni 7.341186248436427 7.9715987675746 0.763829272660307 -0.021349412210053556 -0.6343330588707592 -0.9887670858531873
Ni 2.806964413028927 7.840784609089075 11.27077087425633 -1.4902599861310528 1.1058432967436052 -1.8669643944759073
Ni 4.985523283191696 5.8464328652382545 7.560791996792174 -1.6856221745175681 -0.5117652287381509 0.14944228592594908
Ni 8.932459467462863 6.2105557031607015 9.117634011830352 -1.0205052974967328 0.20445952270209303 -0.9763769397189507
Ni 0.4989296768532624 9.156241946161657 1.499230697545094 0.44540017104935553 -0.5246827081307673 -2.029169122273847
Ni 8.762541642258109 5.409651937025771 12.330432148906857 -0.2079893902322224 -0.7709951623129044 -0.0708338920934264
Ni 4.884490062936048 2.1251566535977644 0.918203667806325 -0.34644278124683564 -0.45993564566136913 -0.9263905804984948
Ni 9.148334274675152 5.5341029633677685 6.970412642600595 -1.0459782449568569 -0.755624079173473 -1.5229986140146545
Ni 7.666658607830099 2.896788162124756 6.252073290649497 -0.6622763222482465 0.2937217967040361 -0.20236150252248375
Ni 0.9229085011223308 0.6034783426434359 11.737129268449916 0.9065478347409549 -0.5132973491119612 -0.8412153320817319
Ni 7.494151135822746 1.1133446528683846 1.181813064581361 0.6471466656956597 0.626464968976592 -0.5922057906834058
Ni 0.8982337914628618 6.645977066801821 3.7206593207771568 0.31134388066117347 1.4974048247059502 1.7475230257874228
Ni 3.2216223585563584 5.2439977803067235 3.3749516462427565 0.5070035456834494 0.6645054686890814 -0.15728157946470978
Ni 4.202266110268755 8.163047656195241 9.176734376234931 -0.6626527317510588 0.08675056332368286 -0.12922493043780972
Ni 2.148685444547084 5.45226087566709 7.721605363738082 0.598194404166673 0.2050465055538146 -0.20854860516980214
Ni 4.747155543751125 9.068896859005458 4.485618789292026 -0.8964966211525398 0.7605904220398126 0.600451832742282
Ni 2.5196708464964157 3.0361019113659506 10.78072368593598 1.5271110935211312 0.2766540425884719 -0.07408813736466596
Ni 2.756346066776716 3.429589494282143 1.9525668678170434 1.0443283680582596 -0.7674226144702977 -1.409480038568508
Ni 0.41298392384432353 3.19509697630689 11.503003000522458 -1.2379812870631517 0.03022306055059956 1.642084399135933
Ni 5.773164358201891 7.557893442120982 6.187653051813296 -1.6056629230841057 1.1878236923721543 -0.1424627692843224
Ni 6.739185854218189 5.28227830929227 0.5016941248150357 0.5205038941627294 0.7591297783338862 1.078831801151768
Ni 4.86882269978033 7.1036139005138 11.570577059214681 -1.0026921805747118 0.9570954657815195 1.70732434208135
P 9.183960415688038 5.0087098708135285 4.823014622463946 -0.5729572268664391 -0.37288014950275783 -0.19039455996859467
Ni 2.9806464748360293 7.016204072187534 5.074847600404166 -0.9443461365356511 -1.2683920381445253 0.6274173055875324
P 5.174151306545221 7.312607646222043 0.34309120638991836 1.6887416939831563 -0.5244893611730387 -0.2021036208754068
Ni 5.359902972200147 -0.25341821173295453 2.1151809641646135 0.29093343532562155 0.888228981827109 -0.5236192998632595
P 2.439567521648909 0.2750963300922744 9.606516783963393 -0.029482325729833097 1.2267021146049066 1.1651573611228903
P 7.747844035091548 4.989435499611334 10.372978247623768 -0.6785892004756571 -0.137591300124634 1.1281761559128507
P 3.8993051805805248 4.098356532314508 8.313256419484508 0.8199561655926394 -0.32571763288434225 0.30851335319091383
Ni 6.694727167860729 7.981208206959955 4.200649430764847 -2.418886912159234 0.0854405862630077 -2.0599879074269167
Ni 9.255675134642841 6.4312953468664436 1.1325931276025527 -1.0976743877795676 -0.17318693784105657 -0.7098941812365258
Ni 7.125635147074464 6.987421997724373 11.895276224063004 0.6594769051262385 1.2546620901529424 0.20639787737538645
Ni 0.7486224966859081 3.2226027248459133 6.120607096094033 0.10733172990914419 0.8398120239763022 0.8163928737214133
Ni 0.731557649130645 1.8061029187791044 9.73125544607525 0.7518203891566664 -0.8180044411829074 -1.780514907332411
Ni 6.250611989953745 1.8265888747353711 8.444222257282757 1.7110115611249501 0.05110298932340231 -0.1807927752127725
Ni 3.609005774009284 1.1087387810551925 12.448077953401173 -0.006106370008053999 0.9832093892597519 -1.0616097808465266
Ni 6.0561572612943735 9.273895149646835 10.462874136880528 -0.3751897714725409 0.014402034357942939 1.200653240036655
Ni 1.541598244109456 6.820574753728414 12.852899865448022 0.0761434772317979 -0.5879007355501488 0.23513998250508533
Ni 2.7712735308459773 0.9501876555661269 1.738325387838107 0.21164549892757098 -0.9915461912602213 -0.6226949604111985
Ni 5.75236394513388 5.006693645802934 11.990735229576059 -0.19831304348472298 -0.22011059897578863 0.668791497658945
Ni 5.680131296818557 6.579228920464857 2.367108279238358 0.11663423825699266 -0.35297646860029536 0.5237815364727365
Ni 3.6995601734529893 3.527431899727446 13.055702505550338 0.16846202156156148 -1.0788176600843808 -0.377521247819195
Ni 0.5156541708287554 3.8917119662057647 8.66987483092257 -0.8052286295744776 -0.912790216106241 -0.6930691392593871
Ni 1.2023267667533697 5.18420468538245 10.43825122015711 1.423705952359903 0.934492640780339 1.2380566203857775
Ni 1.083129023925214 7.432092099946201 6.494470705489681 0.8836585888476072 -0.3939966197663989 0.1060603193958883
Ni 6.261146303197171 8.798435996689834 8.244491123263092 -0.2849610197922705 -0.001576343348184382 -0.3467793386506479
Ni 8.37027489283457 3.168765817567616 3.7785416263106555 -0.09995497782909883 0.3642345580126179 0.8127084828912906
Ni 6.775995833769404 5.296678595262431 6.011530247894744 0.12395982538412845 -0.6596463408245672 -1.5289008384317024
Ni 0.12485612109183256 1.0763866934998783 5.342733613898921 0.14305540856299878 -0.26961024836781305 0.8310129376274332
Ni 5.18563823986246 3.0823271067923255 6.883197037784525 -0.4988577766478634 0.1495955236743617 -0.4799501411100831
Ni 1.5249597634027636 1.9728854216049994 -0.12077095326073413 0.05968224635198108 0.8284711450421861 1.1086157172824196
Ni 5.876685489135748 3.55494689700505 4.629552283454284 0.4664353944530999 -0.9001496445240948 -0.3716426775512309
Ni 3.988712736440223 5.428454622560349 0.8636065142166937 0.4753717777107813 0.6296559651100639 -0.5139033581270762
Ni 0.11770314667351353 7.595480315712976 10.798335133941363 0.36014624687585717 0.5326528708204376 1.5491441620617707
P 9.159848954208133 8.324835840187555 12.870577904371185 -1.1564364363101245 -0.4487451762621884 0.8974738974641447
Ni 5.740488564796252 9.40772439690967 13.0221730535737 -0.4720396280137548 -0.4390014666118633 0.1583025645300564
P 3.3916881635784044 7.735672695119337 7.158880662776674 -0.3849082843118855 -0.13686264948872556 0.09067432385812126
Ni 5.946254500739829 6.488572784896764 9.760684007365203 1.7562197822304721 -0.508402225803189 -0.5690974868007167
P 6.102188233210554 1.860753715052504 2.5526389000412046 1.0326869271645893 0.8945852630624399 2.3234997562064756
P 8.395172497093833 1.9911886752562191 8.004246814764498 1.0027222624816987 -0.5263366987944227 1.0792352072377736
P 3.2122348888969405 2.0115543976109365 5.618769615830995 0.4257746835089441 0.45019065045946344 -0.5644047093107376
Ni 7.917697119126237 5.412334071214176 2.8912934865339577 -0.6565841569594757 0.15380621932159963 0.36056096581577257
Ni 1.4218918206593611 4.444499822436059 -0.004640092145940858 0.27467403604396573 0.27771385131155396 0.5723902986193756
Ni 6.663290705424905 0.637227914598295 6.014251226785189 0.3488727308445669 0.16595596731025614 -0.11920199898416889
Ni 3.4303756370615033 8.323087828595801 -0.02289432748268288 -1.0168910977829133 -0.04367635784202801 1.2107479052684957
Ni 8.302620370116696 0.205932413238029 9.640019414598147 -0.523572248675408 0.05955986184150387 -0.24586868177649915
Ni 5.3902203372677056 3.7635429469543222 10.218487318371633 -1.1044163344890916 -0.43367388375136284 -1.7586075657363585
Ni 4.2560105301612445 0.651141716919111 6.883657624965844 0.6264564843361599 -0.7304519507832195 0.9912109194079898
Ni 3.684688201815212 5.632944232579788 9.673562739682655 -0.6335128769623088 0.9184173324850312 2.068985997160469
Ni 8.307143003282661 7.499469160506654 5.398869757588383 1.6904144536998886 -1.385476476565059 0.3230650257528436
Ni 5.155875799109743 4.156780813928836 2.539264299179644 0.7352691696662047 -0.6004343492407853 -0.8347006708916657
Ni 1.5540655437162496 0.37022330589028135 7.467674771887756 -0.6345724285750749 1.2461149719138798 0.7590035371686671
Ni 3.7821884039330285 4.527849454525394 5.483729708687946 0.22961725291464327 -0.1627516014403455 0.8060812073827602
Ni 2.0395873242490605 3.0762876804991235 4.224757192749318 0.09338298103853596 0.38133805046212393 -0.3520146189076583
Ni 8.441832383233502 8.45907203194794 7.406543384490854 1.1597261628049897 1.8461857671676591 0.7669970968971048
Ni 2.6338927679681507 2.6212034986354205 7.675851853979322 -0.9752963050602622 -0.43981573498304255 -0.06826973091067597
Ni 8.371930417040517 7.862750363218256 2.8544344886682653 0.20414739077831295 -0.013287718247841631 -0.22938765340234046
Ni 2.3933978186540186 -0.12670679368183208 5.418809113094529 -0.3340498068991215 1.7428662437417017 -1.684367990395493
Ni 7.804723777362898 0.9126821708736427 12.261613210001673 0.6153714301665918 -0.7714695308461617 -0.7384144001634056
Ni 1.0310586257158316 4.736112549885761 2.6248558255009415 -1.676127090542939 -2.059264656107647 -0.4926750448759193
Ni 7.063437380119208 6.747509718940826 7.726180714713957 1.5906021720962413 -0.7379022364136776 1.221634470274012
Ni 7.326120053288456 3.1569366809228914 12.947139887216137 -0.4145348489290667 0.22250481023957808 0.19386014991969194
Ni 1.4791137662581975 7.763335672214232 8.878051913014136 0.7900040993152394 -1.1380088257325562 0.0676261837894061
Ni 2.1587388233843128 6.550927780407892 1.7339396360031356 -0.6223216362321798 -0.25989687773479114 -2.15750059436311
Ni 6.977202141592692 4.4586596412031225 8.372397478338842 0.3801044351653389 -0.8005001137505567 -0.1291817359047001
Ni 7.804390822773993 0.8035895998187678 3.6861411786462415 -0.6382745600170104 0.5442840273014626 -0.6534438115582811
P 3.0550988204107234 5.086223548858436 11.889752877382607 -0.5124550557163239 1.4469081015079792 -1.294706507669338
Ni 4.112331376309957 1.9207965259184558 3.308203499905792 0.059770435190413196 0.17469951783084106 1.3715076730897928
P -0.2970361877534283 3.333384115565625 0.822264652760932 0.2954436644911493 -0.08119080984771823 0.11000310609372022
Ni 0.7217586106043855 2.0414093257494597 2.3849084015107875 -0.5545643261815482 0.4797164278327222 -0.20126904078925337
P 4.843638384625064 6.623974317718319 4.448461057170177 1.7726167355312568 -1.0231658750480315 -1.3159281360522757
P 0.8082916585131993 9.17536833754656 3.6089299343529224 0.34034772409269126 -0.2895152148218562 0.6352864239229639
P 5.666674382183627 2.022921097326626 11.473113852051187 -0.41680924678554027 -1.1033195018804869 0.8720616280386271
Ni 3.4090942895872955 7.851383663502566 2.787672469223429 0.6409945300513348 1.2773857570027032 0.9898798593013919
