# total energy = -340897.24076966447 ev
CRYSTAL
PRIMVEC
9.04248746572946 0.00000000000000 0.00000000000000

0.00000000000000 9.04248746572946 0.00000000000000

0.00000000000000 0.00000000000000 13.23459443474369

PRIMCOORD
 96 1
Ni 6.4455845789848025 1.8539540908817584 11.57270032764918 0.2543147556613233 1.0301168524445676 -0.2557761706981982
Ni 4.815368757066095 0.37375584983754817 6.059577967041158 -1.0188371657656905 -0.7446009885900918 -1.1514811491873782
Ni 2.970402898789488 1.7926821953762164 4.813487919659785 -0.3751936281272829 -1.6746476777839354 -0.2795483334171315
Ni 3.390498784473738 4.2221454051260725 4.8843195329823965 0.21704635822816812 1.293006751369412 -0.5681515779476796
Ni 5.1704581998947745 4.538786190975774 2.6271066681978694 -0.38726675724173304 0.07931030499555372 -0.5780081590267853
Ni 7.252138296740461 5.999717603839101 2.6035627434151394 0.7160362895785217 0.7064820702311833 -0.6919501951635953
Ni 5.050952684693883 4.426767855449997 11.568901578637687 0.3503323461092289 -0.1831605041140007 -0.6491151022759402
Ni 5.609561394367787 7.767713808257506 12.468800895168984 -0.24985466300744066 0.701758696613585 -0.5978830435738413
Ni 1.6925909009029507 6.631425782708224 0.47696137701626057 0.7429225724464044 -0.2983940053687248 -0.3618346903218736
Ni 2.612202840250373 1.4510660589677338 0.18090219703435295 -0.12586552704727355 0.6187642578982246 2.3618050795445775
Ni 0.5226024285768677 9.200459787488784 4.920767991719666 0.7731636307191329 -0.8836282498303041 -0.3618020373117253
Ni 8.591059425356994 2.3468962561103783 1.3830412337745384 0.7515542799794734 0.40882699991101207 0.9133494310438206
Ni 6.872715519967652 0.6441678224371699 4.6917832714915155 -0.47396589850219023 -0.38625605658903156 0.4713695985299237
Ni 0.8281724969431803 7.445973059440697 2.7158451195768007 -0.15342209650930352 0.6138444519991042 -0.3345912812248883
Ni 7.586240126011236 3.932686336792556 3.7295215354585207 1.3953325434235324 -0.6054482575156088 0.27250222520362744
Ni 7.722166798567215 4.023735143735488 12.64816948631819 -0.215552547291461 -0.8781507716555005 -0.547075988224303
Ni 7.889470902853451 8.754213027866808 6.947844123364678 -0.24326672537727786 1.00787115367249 -0.1799376263013288
Ni 6.9729514942414035 0.6478336468819671 0.45974628925601096 -0.49928432266232076 -0.17619178610565142 -0.23450080625918968
Ni 1.8555365261995669 6.516513851172742 9.43540531549693 0.18109590827548813 0.4909860872092705 -1.435023177144935
Ni 0.1636012056425652 4.8328388429747 1.2843243974058836 -0.45770701344116654 0.08442037252860944 0.9259792039926892
Ni 6.3712010765602765 1.9736675832958481 6.894945571312225 0.3938413251354572 0.0140554496518016 0.37401863398257523
Ni 3.1653498874559554 4.331514291805461 0.4625557901316857 1.1049272126872391 0.11267756760208983 0.010476216940975506
Ni 5.882897707434719 5.456924204855751 4.6915047628755815 0.24241491889994377 1.044699121134117 1.2909367562142606
Ni 5.226539707557905 2.654774871543185 9.51041907930232 -0.12741590225352892 0.7141773819929119 -0.07027930514153703
P 0.21552316904174218 5.697282565899555 12.375007693260594 0.37551527313275973 -1.3570570448821015 -0.6034592521100381
P 3.9482846277823818 6.06900114329652 12.567054756176084 0.11906187386187883 0.5025280264105991 0.9772048349368848
P 2.3549169425497842 8.471101785779585 1.5022194109268323 0.30918441111600947 0.6740509462856713 -1.009184730277591
P 6.366752172695352 7.619579777535577 5.776596032525619 -0.7965534703979831 0.38500495779074984 -0.6405049920094259
P 4.639763649227011 1.1706313931894898 12.704403812020585 0.7499532540409407 -1.0036625149077811 -0.005856973001409268
P 4.089175625992514 6.267140130061195 8.192015354892114 -0.8047429481873107 -0.753714777965902 -0.014054421210537085
P 4.724943881762756 1.1926136803757317 3.738468172621033 0.6999008174692397 -1.668282654797856 -0.6645010978137073
P 0.3081146243573487 5.634247385325598 3.6811360889324574 -1.0093312831577843 -1.4297081926899247 -0.2319667269834263
Ni 1.6056654682738516 1.062718347002486 2.7473690396050507 -0.6838000552526352 1.0616295783408685 -0.6352915661292866
Ni 1.9331210692098313 6.576212353848006 4.847395439401031 0.2508517368133874 -0.3608383878468754 -0.13469263842060028
Ni 5.892763061330313 5.486872923556216 9.353841173724565 -0.048618789448967886 0.6851642825900135 -1.1455169611841431
Ni 8.62996020671249 2.1907324964615125 10.22713839619037 0.24617747126616954 1.281760231921315 -0.28046441747349765
Ni 2.310238011662405 5.261100094898842 7.035549922667645 0.45649525252125256 0.12363689482707094 0.27896906387489373
Ni 0.7034747854023704 -0.0373427607540197 9.053415376514259 0.07602340671416585 -0.003627826560574397 0.31848589102259345
Ni 1.3966935814478365 0.9805854327644634 11.425253525979556 -0.1301548984512468 0.9034573687410892 -0.40316774474270567
Ni 3.9390703329889716 6.828533925894441 1.5373304857583656 0.8305516817202987 0.3967770107250135 -0.4045797945988839
Ni 5.637249491185669 7.908387786766911 7.905513179981016 -0.13382334844176952 -0.4568793753335486 0.6677694841523338
Ni 5.400408657791165 2.9206330474225304 4.782201817053584 -0.23912159286065274 0.2813190521643091 0.1897096180864281
Ni 0.7622753690658723 7.474185620535339 6.8617135253894945 0.7132391864493587 -0.2865497044356291 0.43253385660964866
Ni 4.941493373139192 4.585707658770676 6.958101016970336 0.8487167826650995 0.05694402148521161 0.10065380366833634
Ni 8.049875589154043 7.3331137725746 8.95399684311325 -0.1058003808662823 -0.540483936829082 0.676691469232312
Ni 4.72045880794771 0.343931013216248 10.575115922576442 -0.8433532043603411 -0.41331640314093343 -0.23589717238608404
Ni 8.221104133028446 7.24721918352396 4.697262114686145 -0.26036327584824837 -0.34232644508561694 0.20782072586484207
Ni 7.250148949483788 6.040300287875239 6.999313962387339 0.0005602433788441964 -1.0386536862709854 -0.1971259651551573
Ni 2.235981104063303 5.351362205426634 2.6093725416533786 0.19577690732643055 -1.0764573873823202 0.32457040665377646
Ni 2.369565772348925 5.137905244785573 11.377608659182227 -0.5780762932605593 -0.1798376103883548 0.07618924286806879
Ni 0.9958853216657884 3.3260168058949273 3.940984627599143 0.03816776931897298 0.17765345825284243 -1.4605375193659555
Ni 3.7098975290201905 2.7629230224059778 2.4921403078176123 -0.5265752971677898 -0.6249259066242464 -0.08579874093337482
Ni 0.9160130293103494 3.4161794490598862 8.161483395745941 0.15609758645893762 -0.003331378366078134 -0.3675032014615606
Ni 3.5491401857059155 2.6646854378764306 7.085789079137427 0.5815987045915209 -0.05834655825969306 0.2244544777667812
Ni 4.0776735818539285 6.895611098394458 5.986946898700011 0.6514044125307491 0.22361861212904713 -0.13869970269746434
Ni 0.8503039851736724 7.617120220927325 11.54723668276376 -0.01263388671392663 -0.612440629673042 -0.587725129204233
P 0.23836810953837761 5.642005839626624 7.962223140527505 0.006477894414859812 -0.00022908529167057318 0.8110442078149903
P 8.551462372461662 1.591622485139243 8.047771402305735 -0.8521571758052163 -0.045894962759901604 -0.2936672893170168
P 1.8308324502666948 3.1878023839937746 10.204031223555356 -1.2238160513063632 0.9632892532970571 1.0822891635727492
P 4.020751122850477 6.1507181031081455 3.6735792821033573 -0.6570729236704361 -0.13485847457450323 0.7692799793940106
P 6.916589669464832 3.866875112546786 10.401729841177303 0.2699601755080641 0.10553272902719245 0.7394307572430621
P 6.3946844166765535 7.909246823082292 10.2851721769113 -0.3479607605532588 -1.0259493513304394 0.12791392493587003
P 2.5009531161646756 8.532617828448446 5.771685961796648 -0.38788999264802876 0.631845259451899 0.4581083626446433
P 6.98289823052477 3.942605945613332 1.592915560856081 0.10303207409252578 0.5957811667394901 -0.9779193445054062
Ni 5.354481863624598 3.0032271285245997 0.38216988448452377 -0.13733778935293123 0.007551587095012801 0.49636843456710644
Ni 1.3768362788312232 1.1695553371733804 6.958194154591898 0.9887588583230714 -0.0943736270865794 0.22174350659352135
Ni 6.745749952554235 0.7617617557741494 9.141346333756731 0.5456490259697893 -0.02918639175596909 -0.05572583280739435
Ni 2.78709359157456 1.5911974882253173 9.232664606828068 0.20628937682198023 -0.9647799789099706 -0.19876581475142543
Ni 6.463479661807334 1.9990860157436168 2.6297931912431314 -0.0967171876180915 -0.12827387937845006 -0.5416532745468349
Ni 4.073830524653537 6.686702508981155 10.494451508313347 0.6070644529627932 1.2995944318892587 -0.42712605533051595
Ni 8.251812420681459 7.188171739950879 0.3005144135881031 -1.326741681728012 -0.3220478973422389 0.42209569199546015
Ni 7.363017278837415 3.694751362406881 8.246435757595924 0.8513297948079145 0.22075877408274885 -0.14399643232002943
Ni 3.0920786109976603 8.389529505768444 12.455897265463197 0.804887187074659 -0.9124809123959381 -0.039919204792440925
Ni 0.16307583711705279 4.897818158367679 10.153726056926603 -0.46118468757712183 -0.8337087392920417 0.0051738308914556054
Ni 8.597054594589606 2.1861569977711635 5.725642519540941 -0.24753887039007047 1.1921606291846114 0.2072049466577141
Ni 3.490246464420851 2.6087395675262552 11.479250740266945 0.20017272240128106 0.5229760098523057 -0.1331548616198352
Ni 1.1787515469917298 3.447683475615569 12.695430047395481 -0.7694581568430877 -0.7376973194917231 -0.7826887966007489
Ni 3.127235802515598 8.553198530067487 7.965585137391283 0.003036987054110899 -1.0258732466768654 0.03833849056888236
Ni 5.650460565467486 7.725991770792546 3.5026410020786796 -0.36325856725259376 0.49088298597250296 0.4679957969616843
Ni 3.117714063146157 8.412108597131686 3.6111779799052766 1.2089902991474404 -0.13595864961721746 0.3379553126011147
Ni 3.4507307939132916 4.20633913692305 9.086264020965704 -0.021504449730679092 0.7278584790244303 0.28736140170364705
Ni 7.326449459264744 6.060980456857114 11.276482904135493 -0.3097503109218085 0.6062792380573364 0.2617691550568395
Ni 0.43018187627558446 0.048131352626461024 0.4308962327904808 0.8889144379299079 0.73127676067736 0.22163911980517315
Ni 4.7503713566980545 0.26975548800491944 1.595377830210591 -0.6939075760002823 0.23988495338923846 -0.18897325414103586
Ni 5.96122373442247 5.60939862959224 0.2737658312246225 0.0857419195535104 0.045240874115670474 0.8835835126352977
Ni 8.023950777404576 9.039241277310461 11.217258227806818 0.14195317663775553 -0.6043372838396173 0.27450460034563695
Ni 0.19764255419926002 4.86725455051515 5.835820708854294 -0.6627854006741811 -0.4587529382071777 -0.23311575298620496
Ni 7.900394227790094 8.717735633169442 2.6136604892402633 -0.3732002518463379 -0.16898678371677994 -0.6293011528738065
P 8.579873868281972 1.4846227301928026 3.5361777798311813 -0.4340487505922783 0.9932940271892635 0.06771925772384467
P 1.7262470394908533 3.1624924613963703 1.6645546683151509 0.11077289438020922 -0.155238580892752 0.013105941254338718
P 4.735966674062234 1.0487024913304683 8.141314127309533 0.14002947725248144 0.0363620835688019 0.20689435739583076
P 8.56517982604518 1.794110908406009 12.518695532863857 -0.21882144785071994 -0.6908073398084038 -0.6010681261700422
P 6.3060589963917515 7.664376260760851 1.3157795945289028 0.3281354982972155 -0.32583436096786467 0.6935247387395669
P 1.80280073892266 3.1833625226163806 5.943550192544433 -1.1332183463224483 0.7064519883241962 1.167660072940086
P 7.054758878928333 3.8477954638577816 5.849148431225253 -0.5623308575008444 1.066433427487415 1.4697868058783656
P 2.524065714292209 8.494693635746227 10.249213820998175 -0.13217347154317236 -0.02180809701402696 -0.03741803563714201
