# total energy = -340868.6849057445 ev
CRYSTAL
PRIMVEC
9.31195450259574 0.00000000000000 0.00000000000000

0.00000000000000 9.31195450259574 0.00000000000000

0.00000000000000 0.00000000000000 13.62898668133577

PRIMCOORD
 96 1
Ni 5.847833005217152 4.579023316624195 4.6563842420140755 -0.11761357145112647 -0.36402835553908275 -0.1618404024799858
Ni 7.874207449900052 1.9479398509254262 3.90429584643568 -1.8214687240369531 0.4590385877683965 -2.0364844249883376
Ni 9.008422146427174 4.0668658125685 10.081811155381715 0.12719453027134223 0.862259811456857 0.1907588852865489
Ni 6.452644457733829 5.551768720054484 2.0023030419922834 -0.12089789862935307 -0.39641319962769145 0.6412956062315215
Ni 1.5983411386570094 1.8812941917158514 13.240261340615707 1.105729139763244 0.15421245362108282 -0.22667179713307414
Ni 2.2640434624286003 1.0459839265102533 10.725372444655248 0.8221829980406292 -2.0636620138443944 0.4882136666704559
Ni 0.8569149311175913 0.9597272908726552 3.7954679639966167 0.8429428562957998 0.8482930648641196 0.6594172555328965
Ni 2.6902423133945104 6.4918291627714 1.5990888886129309 0.37168715763592114 0.24931473134357066 1.6617618229602025
Ni 8.255978965377786 5.840988718572043 3.795359014127572 0.6469003540128084 -1.1050843070903935 0.23467435572257644
Ni 0.6211911806918415 4.667756932190498 5.6298895009412915 -0.3974791789983606 -1.1966855136381584 0.6207208674039633
Ni 8.457331360108627 2.245745471601883 13.400332909324197 -0.46329299216937636 -0.3147505923498773 -1.7388450383974505
Ni 4.75316617995775 4.957256289346634 0.4853968088710529 -1.084826585282622 0.038695359687668844 0.06486173367039151
Ni 0.5468138055619498 2.3177268808082565 1.5720357980532471 -0.8231528181530662 -0.08641631991271569 1.876373346494633
Ni 5.9235671321350605 7.759307241853811 7.09455566864884 1.1453017598495436 -0.48459946695663636 0.23339034680383033
Ni 7.97607092147942 7.5770816019107965 8.617608723014202 -0.6683819209253521 2.3997710172653894 -1.566118328022264
Ni 1.8835569966883159 4.223176282806298 0.6315274503191474 -0.7596843652857755 -1.0695555180561644 0.9893363280930961
Ni 7.775202748388777 0.06309780449966149 10.403155534944572 1.1429155190055542 0.5125172764128271 -0.08180916015800749
Ni 2.928963582012179 2.1313387971504607 1.9101975676583693 0.12180446960402247 -0.9307951373240938 0.9272182186061128
Ni 1.8350510250769319 3.8445522079898526 3.0329678719585 -1.1998112037513338 2.853836320188911 -1.0365528378778988
Ni 6.8275065028841215 5.522836477052647 13.186372128038967 -0.9004486638217524 0.24094501922263664 -0.500920315603847
Ni 4.681054403386708 5.932208626021672 11.423503650388183 0.8392173278150966 -0.07484866967977431 1.775669920535284
Ni 0.5505143763276177 8.08299078441701 2.8816178799463468 0.735623724792146 0.09375836210008369 0.620942496496466
Ni 6.811015031253528 7.33000750999971 10.827957592717603 0.6399162093854914 -2.537546151266056 2.093430246245762
Ni 0.8465283769353419 5.4062228693564744 12.035881066032957 -1.9480063374505872 -0.13576067467379846 1.31632897103512
P 3.9718000678611443 0.8211477134252655 3.9358466110764345 -0.09925615198986132 1.6005515699994695 0.3014770151694227
P 1.8455642218420025 7.891220390989321 11.295990399810243 -0.18500115686716526 0.4515224818970095 -0.10235278863731405
P 4.275658459040078 2.8073308307762614 0.4656247356281174 -0.5039300489644483 0.7411089162764333 -0.5596818499137716
P 0.8005878488215461 8.51025119820951 5.287147180858987 1.6968175290127552 -1.5320141872497035 -0.8180584343492943
P 6.622652813216463 0.11294283518528546 3.060525670458544 0.45412186719306946 -0.7775435049543835 -0.15268676100517575
P 0.980884051767465 2.702794828221185 11.349293890441436 -1.865921812144006 -0.737019319588092 -0.9332556830494444
P -0.1489270214202385 2.272554588950544 5.453802301483248 1.5844577497614003 0.5592144233590497 0.5482453259420559
P 2.0853004935131634 0.3725731667048932 7.9267417730797 0.8565365358198345 0.057956264799809865 0.544974625610584
Ni 3.384932751895654 8.13179473857621 9.479560490385316 -1.160758460724246 -0.431938646227811 0.3128582604231709
Ni 8.805207360772492 2.9764638625246898 7.465168668906394 0.6271378266739006 1.7026927568466097 -1.3770206324882222
Ni 3.952123907750787 7.595482024238325 5.743160116929173 0.36342106097238697 0.2831339938858608 0.345997723289617
Ni 3.685140856863863 4.399153601199835 7.867796169144737 -1.0596608846502718 1.4350661145677286 -0.9059518530281687
Ni 2.6347989355918267 2.9438347735390327 9.575113250319253 0.7008606102793479 1.4276325411078188 -0.9107940116118184
Ni 2.5428247598180436 5.954715620336265 10.512037426720426 -0.42273486824135587 0.08850431278999596 -0.8246808247618185
Ni 2.3638583039917456 2.7577912322021465 4.760482582702051 1.0927350414964212 -2.0353996765645914 1.3274569626274815
Ni 8.185813387322156 9.011355412132218 4.6753694550916896 -1.5191982664319579 -0.21093973110979802 -0.04769704896564689
Ni 8.21823761330619 -0.0038728419261229653 0.6261730764131105 1.8473018830499732 1.2301533063783008 0.748218530738021
Ni 4.993889518818545 8.698389929335713 11.684635068992405 -0.4312655314201863 -1.075141239674058 0.34886064665970884
Ni 4.287642944634982 4.563500288273997 2.8585977969322363 -0.7891162973936473 -0.13044671866005275 -0.23638285377325094
Ni 7.749315514547416 7.5428042969575415 2.3544616105855165 -1.9570687047631714 1.2133416341376007 -0.6087292422597259
Ni 0.4386805949374783 2.1005720990886423 9.238926546288864 0.9922547872914718 -3.0411188168910854 0.7247021927836358
Ni 5.798563453326993 8.530644378825546 9.417998227202357 -1.0863939297697418 1.9079899449586493 -2.2631207408977865
Ni 8.39106749103844 4.301247710333624 0.8274407323569172 1.3423598478812429 0.8938527557717896 0.068611687631127
Ni 5.96470734764266 1.5970467769649415 10.77136977569222 -0.5120668191389698 0.10942795031654057 -0.6958947816336403
Ni 1.9871152440083772 2.3813554667212116 7.119687702970585 0.11358053903233342 0.48071221608708825 0.20789580207715164
Ni 7.326161672741983 1.8990148413561787 8.88555463000875 0.2846781984445291 -0.4973657654833692 -0.41340227798652024
Ni 5.0804534489585755 6.186508794717253 9.148988894990298 0.7433185223332425 0.11643137821756722 0.558824901230115
Ni 4.1814307902484495 1.393282585987729 12.349947221865452 -1.2840197173794532 1.0236464142288757 0.7954478960386301
Ni 5.103509848595702 2.7063706187949554 8.477801829948001 0.25940553992066934 -1.2793061139538677 0.012616917433062143
Ni 1.6090312625598446 6.411429746589276 4.268080390370978 -0.07361094061793129 0.4093669315748821 -1.5417910641308092
Ni 2.7818626348927644 5.809747110824645 13.082886513964937 1.6155984370302625 3.0560589831406855 -1.3950227254925975
Ni 1.7995911018870396 6.731909976763471 6.461407007030492 -0.0185628506038519 0.8960016837939924 1.5305016072599191
P 7.035312082166064 0.6860238023370588 7.146658848329619 -0.6148127294496443 -0.6874163118489839 -0.46749726005871106
P 6.90079158573718 0.7450727689682947 12.473916342515325 1.0382441095373924 -1.3060833820477118 -0.2449394850940104
P 7.43289529658719 3.733563020883674 12.094145034889795 2.3654809857342682 0.24432293455593407 1.019786159942521
P 4.4022544820880265 3.39780187317938 5.962423125174572 0.7426112118535726 -0.46337758146338265 0.46304925158968646
P 7.748766109224883 5.0435781086665665 5.830902940523994 -0.923505545641216 -0.8421918370623883 0.03683619499174301
P 0.6701031535246222 5.932702159616489 2.384323186658349 -0.20994728528954165 -1.284155214516053 -1.253345685334364
P 4.39492597380272 4.246986950767578 10.023860999395543 -0.39071203547785616 -0.4071946065139116 0.8738495731769853
P 1.4528045999136197 0.267660961183201 1.7236716670722092 0.21824732051480478 0.679088765819895 -1.650097499248397
Ni 6.285802166821723 6.95131825150093 4.733483501479158 -0.003493357865239145 0.8637435950912349 -0.2680670722504093
Ni 5.883581599000239 5.284999844123801 7.195791514486875 1.3780292762583946 -0.6604166433316885 -1.3064662193084273
Ni 8.576915481328323 6.963060626275734 6.000952268606952 -0.11628611088895457 1.142592845558813 0.47177094773340034
Ni 0.34819353831638017 9.60816789563101 11.772405828451083 -0.5645862291939244 -0.5742474064327723 0.9186003950301147
Ni 5.402758822238135 3.469326996609413 12.187421953114804 -1.904089581462979 0.7470476503583714 0.429977408736382
Ni 3.1721825247109185 8.264387660398919 3.5215260894227693 -2.564481542204319 0.3905413142279468 -0.35871979884197575
Ni 5.765468766610376 0.1684271855882936 5.265191454257851 0.21069624764042424 0.4216411209565448 -0.7313402669254437
Ni 0.11737718797494584 0.3832688777804999 7.013053717039803 -1.2475763869507546 0.16585260896317242 0.026095411535471184
Ni 6.6528421700918905 3.956174608010136 10.15925123238586 -1.4900172739926276 0.13237324625880428 -0.8784392494301968
Ni 5.0685900187737225 7.739854568654315 2.3660326453953275 1.8234268762045887 -0.40968960502162344 -0.6773139333076593
Ni 4.67627737066706 0.3497802953834909 7.378201531131351 -1.099147115670352 0.569947750616154 0.9503560901751567
Ni 6.477069714699977 8.153575400430505 13.640162300541549 -1.3872209700599916 -1.578145434390127 -0.5695908814973674
Ni 2.6272841882141367 0.43828483686616254 5.715152551021021 -0.14999687287783847 -0.4807903776231913 -0.03845341888019184
Ni 0.8542200514507965 8.532702320796387 9.255771872194988 -0.21923076747399664 -0.019952017641894672 0.654951506452059
Ni 4.471432992954022 0.3545200802846609 1.033860692791524 -1.1170731040211537 -0.6889186074261232 0.5533032000809375
Ni 5.474451560851311 2.1003393002231623 2.813567977980198 -0.05284825414928318 0.02440002611091927 0.5998597076842379
Ni 6.137285802600191 1.7803712275530224 0.5490263259794704 1.8086008669353497 0.7361793401852998 -0.24938029447418342
Ni 3.0000044838020132 4.909011052464588 5.2961285610892 1.6110984922773801 0.5126296336209752 0.10816142489929113
Ni 0.2573991871928487 7.286259947198735 0.5813658131764707 0.696260135392859 -0.6455189002842496 -0.403306327203099
Ni -0.2839736432851058 6.463800179367625 10.359216145878442 1.12140078486223 1.2762465011919377 0.6980439667661591
Ni 6.890473940019113 2.8932149882290914 6.106548902793154 -1.1046068532333426 -0.2845609561403744 0.43849187396529643
Ni 9.514955229892873 5.948597666151454 7.92780426710175 -0.5279747486184778 -0.9233561645475452 0.9780399292436704
Ni 2.4474610325628734 8.886994258192876 13.355929784918033 -0.2929265544962504 -0.7693005482193009 -0.24473302551015919
Ni 2.548803034683566 3.863055061818192 11.87578156146061 2.682044205812852 -0.32587164196370333 0.2490429657394227
P 4.173375949502846 0.7387853372094146 9.753448355622371 1.409585453798121 2.0320886099134876 0.07064388756980737
P 1.5109950043289657 4.3158488551765215 8.069764084075906 -0.7827759569979164 -0.6262438541047214 0.27766808567528306
P 4.260880387059417 6.452895880508548 3.9421163501215384 0.062072600961028575 -1.6035625889116512 -0.25180047387990184
P 7.423117744237035 5.659647714317851 9.12846348461867 -0.24222671414853764 -0.5359274278066511 -0.4754959619934714
P 3.5999923438259493 6.815810687882412 7.775159913397529 0.1311468300508709 -0.30387405464668954 -1.2666691419161475
P 7.176481314193051 3.504004715611293 2.322815864007646 -0.36647655996925915 -0.4203136603943729 0.7729579424662302
P 4.309358422806943 7.557954847122971 0.23031909196476938 -0.38084234177262793 -0.2953030251482269 -0.4834653533521932
P 8.26888533447999 6.878321839241065 12.521890601517953 0.6115384295737468 0.30908619497524836 -0.407683116114556
