# total energy = -340861.1609264044 ev
CRYSTAL
PRIMVEC
9.36149050501026 0.00000000000000 0.00000000000000
0.00000000000000 9.36149050501026 0.00000000000000
0.00000000000000 0.00000000000000 13.70148762804535
PRIMCOORD
 96 1
Ni 5.132128165343141 2.582535624974931 13.570555924371337 0.47657119733552117 -0.9502697011089375 0.18316101833463294
Ni 7.598047704797778 2.610039683677558 5.152773060052775 0.5895981778572298 0.971368944981398 -1.315821435271082
Ni 8.494747421234075 9.10556594479739 0.16254730186426014 1.151770912513655 -0.5720830517916019 -1.6556688226885874
Ni 0.9982718869344277 4.001615865463407 1.6582635109563155 -0.1072240006866863 0.9059708791915624 0.6596175444691608
Ni 1.5488960274283432 4.17991481102169 11.615751291459436 -0.30176677849569966 1.40350942280737 -1.2421462170741189
Ni 5.94134475428589 2.7790239463191924 6.717674427564127 -1.4673825673122471 0.5563322167152485 -0.22673813159463535
Ni 5.477398653113834 4.517555684142062 8.64243242098932 -1.197876448622466 0.7695797700226166 -2.0239371844509466
Ni 3.5151647414454983 0.5999882153560064 12.66738180119619 -0.8626637317634949 0.9839059011061441 0.05923076063685928
Ni 7.873378498025472 3.2371097545205725 7.981253759988706 0.561886056653942 1.7961335877062745 0.48547312781084134
Ni 1.4495331686571777 8.127318285761165 3.6876455207397645 -1.0765514897580235 -0.6542796771960151 -0.560864300257647
Ni 6.298382635449775 5.583380085575522 6.694957835035947 0.057824624317952024 -0.38045487652622223 -0.9496441517097968
Ni 3.586265260794189 6.389891203801776 6.792841578328891 2.1487197628466865 -2.194449146563001 0.46948806523649467
Ni 8.98557036125407 6.088844396531837 7.023574231441094 0.1928857018215646 -0.576146166117382 0.46284664866057706
Ni 2.1467114408698227 4.354955957931739 5.8551254279920855 -0.8780438137639911 0.1360704926047334 1.0686936842765016
Ni 5.531667212779977 2.1814800160983996 3.3876237966651743 1.6591020167398522 -0.2606831210815123 -0.29305639520589527
Ni 6.049704005301174 0.7195503618952656 5.194686324730584 0.9682869636219646 -0.553988141963104 -0.3978584167146503
Ni 5.309743722104525 7.536149530481313 7.571003295272243 -0.38148408912168497 1.2081505768549645 2.0774536683118483
Ni 6.8173742999885585 5.383662050054131 13.411714836543963 0.8175429281654565 -2.039076868305863 0.36047149142575985
Ni 6.08218837687984 -0.016199122933637174 12.372127884166273 0.8545436737595219 3.9689870103763703 -2.0679922657886323
Ni 9.276338252099405 1.930573351242098 9.41427794038105 0.4316699659474565 -0.4789366122439041 -0.2807927473471938
Ni 7.8427477015397695 1.1679863458248048 7.014832471734996 -1.224705653000168 -1.1547729325647726 1.2139047057299224
Ni 1.7372772981134916 0.8776556365796766 4.4861544369990325 2.2188612568587787 1.3234516981228304 1.0438748254606087
Ni 6.747584389291457 3.8518694655290218 10.248479410968264 1.6399575826009176 -0.7396223044285778 -0.6282652554101245
Ni 6.756655673458525 0.867161405876598 1.0239317320344623 -1.0515670518985436 1.211166737973469 1.0735461272727962
P 4.917843650808377 8.797600996145134 0.3441620873110632 -0.2963533207896122 1.218720896171643 1.3900106169899868
P 3.5408994784684804 4.01692190221589 7.574620575150629 0.031006475683843373 -0.0834055581108499 0.11478150131897007
P 7.475973870392652 3.2882422149132715 0.7119319810333875 -0.6772843656213046 0.5106059183227271 0.7796590086354894
P 9.15290700159085 7.329232508866552 9.11938163228321 -0.09936953763927402 -3.1650760711720523 0.317489331437279
P 9.051259939169771 4.131993341825384 6.158804686353645 -0.6157262424028492 0.37934930216686924 0.40220460949848796
P 8.987189899087818 7.455079023890179 5.327425705112531 0.2421477812814862 1.2484415631645274 -1.3537356938183525
P 1.8764639369122191 0.5013293406605513 6.86945976010077 0.005406001506919722 -0.1869726787712393 0.05279914607890261
P 8.843491021931479 3.7185431197009695 10.39805917637409 1.2359228618722264 0.8730553594104641 0.3640898049046375
Ni 6.717140822613123 7.55323425040381 13.322833102389358 0.9232862305415582 -1.1815175476484685 1.5583818786099548
Ni 2.3210691989829715 7.815880224182199 10.590098917495245 0.7418702199224901 -2.106150007805276 1.4072192675587893
Ni 8.946364439590827 0.4192477931096205 5.070728958463318 -1.0510276344553062 -1.308690480653256 -1.2701241903442835
Ni 0.9165657351472735 9.285353367324264 11.752204375070564 -0.7142210907466539 2.1037578534240158 -0.9725922758655378
Ni 0.7749825548142125 9.064337941214553 9.20298723046613 1.7452519703650586 2.3929941035528723 1.2496888053080673
Ni 5.7589173914751015 6.108063536258349 11.525896898455546 -0.09027785975065097 -0.34523153454755384 -1.3001947844774189
Ni 7.532704502025709 6.027198982455322 4.64307829159894 -2.315912430777521 -0.09847067997408847 -0.806612654406198
Ni 4.889431527540006 5.822538080019368 3.5397789080713724 0.3150825217679993 -0.6110979996022186 -1.161357784871142
Ni 0.9545818113846793 4.460338255009844 8.790367372537402 -1.0489540397557289 -2.7275329342732704 0.43962161669436545
Ni 7.621779082881902 8.794698934130903 8.72072256494101 -0.046457520131590956 -0.6343382010770816 -0.7625172067488803
Ni 1.319754827678784 6.486436253972026 1.6144330130510396 0.8247597576288698 0.3159155591922559 0.008339887324263056
Ni 6.91782309164247 1.0403143401793218 10.015814546244005 0.5933126505943395 2.9403269449829876 0.8601232247298284
Ni 4.86030793100363 2.05757132958105 10.955106235409827 1.3809004271586025 -0.5407616159705009 3.484562378434702
Ni 7.370132860286491 6.084491303510488 8.707117510988482 -0.6749001816598441 0.24700896602852945 1.3671920764335745
Ni 4.3512300847650796 6.840394204804679 1.0531526880706705 0.7665204143710025 -0.9267441071831716 -0.13960704500308216
Ni 1.6360327797782594 8.122862216345762 13.48631936173758 0.08983305890374851 -1.63813441334925 -0.20480070809159567
Ni 2.8777034162934587 8.687163494268043 1.623503361069071 0.9177264770655936 1.311530264094896 0.8566447792629247
Ni 2.8727043804366845 2.6739131324617738 10.310369159943397 -2.0457131426754573 0.7554099062801377 0.7499784508519213
Ni 7.724221871984302 8.200085150395447 2.2273550635001538 -0.22469564724330982 1.7219456915389506 0.08739385333463659
Ni 5.376566040354814 4.5871958109932685 1.2906883362336559 0.524372118868884 -0.6041192542915402 1.5705174855312243
Ni 2.2840725890466946 2.239970607920732 8.131106880913293 -0.2539195771054336 0.10747211214175038 -0.6123904931613969
Ni 4.70954112861908 2.3805240243132593 8.862711097807027 0.19733551006280206 -0.7506189126493976 -2.7452102969483754
Ni 4.366461229594615 7.830109689542305 12.227056612521912 -1.7306635310279226 -2.075594760726238 -0.6151510866256696
Ni 0.3520688020762908 5.469319686925826 4.507528591808372 0.9412266170700628 -0.2999083851307222 -0.2652918234981173
P 5.508731561377174 3.9460928660878856 11.820519851034629 -1.3594242595626975 -0.1689397325289284 2.187537764155149
P 3.1277675470165955 5.243604792651134 1.8959845166285967 -1.087723704324759 1.3493175101459987 -0.6903651100646626
P 1.3340311004907333 2.47414828948854 12.747329865092142 1.064747812254876 -0.671204992196444 -0.8645349806442788
P 1.550740241030936 3.3318667600304406 3.970786605381891 0.23079687504504123 0.06933416761944834 -0.2934613439537978
P 2.181171086916239 6.224323885144641 12.196845210804717 1.1590563904314748 0.3120097963799465 -0.25935771740186947
P 5.694940966296833 4.4231918612276715 4.910887127315552 1.1066673353067973 -1.236520129136593 0.6419409531250042
P 8.193213816464974 0.5440542465533084 11.651361464672139 0.34515363012176686 -0.7043226006860193 0.07029138932639507
P 9.084755351708234 7.058938197457106 13.11825645336672 -0.773763726196977 -1.4593712669719963 -0.33178337946244796
Ni 7.367202713801153 2.4553785012997147 12.328461212342445 -0.05939376857728481 0.3214845686396012 -0.18986825515147945
Ni 8.527222431322372 3.9531139838642537 3.1036476670821775 -1.0791573028119867 -0.47220597838829 0.030099133378225583
Ni 0.4874574842325211 2.226312193473104 6.26900627867345 1.1095613690251407 -0.1976494417587951 0.44010832652279686
Ni 3.61536077285946 3.4796472469874424 2.757547751264837 -0.402932488803448 -0.48788610812770816 0.3163757866581261
Ni 1.735601591337532 7.026509994820652 6.079377121322182 -3.6770372179710935 0.44871020925919497 -0.04328503594088029
Ni 7.554460605642082 7.709262210375453 10.791634018297161 -1.4720740592506454 2.9934284527936574 0.9915937566687052
Ni 5.184206136263058 8.719994240990342 2.6658163794420657 0.5081803396003699 0.8512737447589984 -0.5125018497938593
Ni 3.929401328760865 4.579378966535578 13.170869901535717 -1.5230490076366157 1.5177813314797732 -1.1988305850056191
Ni 9.074504519754736 4.53873137535559 13.123476420396193 -0.22973629499101078 -0.03011661687972233 0.7506554223142878
Ni 7.172549244569114 8.130407577582767 6.549160111738991 0.6247562138156014 -0.4367448093672026 -2.321798457244653
Ni 4.257624542570535 0.8638820758005155 6.665389567707068 -1.7383732409673545 -0.1729725078374053 -0.2555563413779083
Ni 9.25602381799978 2.0162684340752666 0.4245267375284127 -0.7966938526305892 -0.1494991073058135 0.9855781466022446
Ni 2.62913712402928 2.8522401624911624 0.6432907252044994 1.5159373362924988 -1.2428311589562855 -0.23987106943216752
Ni 3.963739275432491 3.162442507341487 4.949100730999733 0.07689063981046758 -0.7340183279782391 1.6484424801434772
Ni 8.48522678552932 6.159102381747363 2.3157022565547156 1.9145431726961348 -1.746834227250514 0.0488617586977094
Ni 2.6363641945937553 6.10172580727888 4.157374214512437 0.7576652779732177 -0.6118798720735656 -1.2512075559454388
Ni 1.8970404927421625 6.317536244743708 8.59523085040235 0.35513516681451096 2.7050851467927157 -0.5303167664880932
Ni 3.424302115928923 4.956132146415507 10.045560681889887 0.07038137793704008 0.8677797128338216 0.06962984448299622
Ni 5.104858143899726 9.068017006929372 10.101791409937265 -0.8270984330643755 -1.5562496627583005 0.46841874343171586
Ni 0.3049908031621854 1.9022829273485176 2.8546778945831175 -0.6453589776676175 -1.1444226996787001 -0.09665368137000774
Ni 0.08919066333676308 8.561925476118368 7.135337320354362 0.5867779347996153 0.6352229176748801 -0.6547964689314336
Ni 8.532155936746566 5.861257204183446 11.016118812737432 1.7184248228698857 -2.4029805253416225 0.5159700108481178
Ni 3.2487741715197127 8.682716786343011 8.706651308768132 -0.24672768734268474 -0.11368415448973325 -2.9048382651580744
Ni 5.250794417254135 7.666910827948399 4.812263826283497 0.37085463443229677 0.43917990117125655 1.3797843112762884
P 6.487306872576296 6.409016728624604 2.1563125853917477 -1.9490928856465466 0.14486315119569892 -0.5542809906131745
P 5.037530305169538 6.460617263535728 9.504063994505248 -0.11642109380492209 1.0589700292308344 -0.2928247388110634
P 7.572322329265163 0.7162326497086723 3.306785455035179 -1.1176171494500817 0.9954550393963243 0.41282069445143743
P 3.829373804173537 1.3520145234886047 2.4266293643780785 -0.3476154613986981 -1.1308038233436848 -0.43857723459025116
P 0.7664018127424534 9.234164737989353 1.5997036441052557 5.0907842593460714e-05 0.16916084740079898 0.8702389730075916
P 5.6715746863370775 0.37754609811413964 8.131600231455712 0.8155909466454081 0.24945357091428005 -0.38687903488501113
P 3.2534361937232212 8.154728729560107 5.231131542884157 0.46159683541387597 0.6987080827127192 -0.9295592080344637
P 2.7395652644160022 0.6064570052006338 10.291776303922536 -0.15391831941943168 -0.47811334501166036 1.0467122949094037
