# total energy = -340897.4644837031 ev
CRYSTAL
PRIMVEC
9.01749663460640 0.00000000000000 0.00000000000000

0.00000000000000 9.01749663460640 0.00000000000000

0.00000000000000 0.00000000000000 13.19801782728133

PRIMCOORD
 96 1
Ni 6.301092981941037 1.7983683659287666 11.314106008225696 0.5517520535437336 1.297586143209978 -0.004748056207946661
Ni 4.534718693975652 0.3726561630515598 6.049931354181539 0.3041535335603213 -0.8271341713983175 -0.09311738608197512
Ni 2.795667420730968 1.5247685013608474 4.802402179019396 -0.6454376534243529 0.5742515201978303 0.2721661820204474
Ni 3.334039020688072 4.416291911029457 4.920682878520549 0.2501580531804724 0.44398272187653864 -0.7970723190159305
Ni 4.959623134120682 4.47312919214648 2.4884467218116755 0.12772443463288327 0.7986692311894052 0.3036341707217416
Ni 7.222013840477779 6.205227975506787 2.7399212567034517 0.41179559562103274 -0.5656807478096839 -1.6074760650334445
Ni 4.994836458372938 4.6947972937518525 11.66545112154477 0.5799182315653044 -0.8612966762126392 -0.7153855433684002
Ni 5.77678867669162 7.691798361238298 12.310675547552352 -0.8002581729430799 0.942974452999105 0.3195377293258755
Ni 1.9500787288532146 6.571653950152231 0.4930631882527594 -0.7151860257630844 -0.9546796572511752 -1.2473524438654067
Ni 2.560355846758461 1.5453283936259294 0.44511625704106295 1.0153198966410515 -0.19932940056437928 -0.7481347127749632
Ni 0.47573877377044554 9.064297414885033 4.6833829465460886 0.14619189730945148 -0.018734857405341924 -0.09775025686829616
Ni 8.537558385551593 2.5964709206714667 1.388313037447294 0.2604283247582289 -0.7219282295829245 0.7892458809929763
Ni 6.783141298087744 0.6130851663488193 4.769050967816585 -0.4029695126889705 0.5299658109065777 -0.5099184053373992
Ni 0.7364968214196352 7.364264849460968 2.478086519959328 -0.129479469650777 0.20952819547425203 0.6659481146728788
Ni 7.513811013199618 3.804707256116125 3.669576462454212 0.9801340927685377 -0.1708168949469832 0.8277239824635164
Ni 7.663537526870418 3.892736057998463 12.638395721509458 -0.7302344354557747 -0.7288290704678158 0.14194263511479427
Ni 7.728652869873118 8.833296204290907 6.952491687875768 1.045510818402135 -0.838536499697988 -0.26202138027696165
Ni 6.782086250984667 0.742531330149369 0.35874757628416387 -0.42400036521734075 -0.6445755625343738 0.46242447352149396
Ni 1.8770009363460982 6.519758257176113 9.120173430863696 0.6192648516837271 -0.257465385475163 0.38005712686717125
Ni 0.08779344522088281 5.004385987280273 1.4961145041408803 -0.21938477655335767 -0.31526532720276673 -0.5353497009263103
Ni 6.4292225912368925 1.9121060506390652 6.956807461752114 -0.3390143499932484 0.7321617343854746 -0.2128953121742721
Ni 3.4668937982062538 4.252948977481345 0.40112169459243024 -0.1813792438438618 0.41550106949707805 -0.092223413512796
Ni 6.02187521698665 5.7482392824323 4.644660012614196 -0.683675613859629 -0.5204861535509165 1.3444010466809881
Ni 5.432771181115794 2.956097702874861 9.062867239923085 -0.07763857372008565 -0.003571005180709979 0.24070359263579189
P 0.26086535585881887 5.4818985026334115 12.453425224097934 0.36577979101255065 1.2042340154093776 0.18240151446078906
P 3.924694065975415 6.329579253724105 12.644360795515315 0.19529559681463785 -1.1728678423932704 0.19413525795794953
P 2.269298108758437 8.47809701292179 1.3706405475959307 0.6973137734683539 1.329193485702614 0.6684145739355004
P 6.176480196322102 7.788132277496136 5.812578218977096 0.01753338089807303 -1.1712668164547377 -0.3122627929310171
P 4.658429729933837 1.0529820963534657 12.540888628942984 -0.318351165216942 -0.21609376450691167 -0.04312125666950638
P 3.9315563808937166 6.123195808868432 8.163396300566584 0.26028048632645495 0.5340538649330222 -0.24358605638990952
P 4.722012098513263 1.1062664838071368 3.745438857913722 0.2893702046035597 -1.3665428728853497 1.500275975606158
P 0.18076744224276986 5.556635514516307 3.679317162289625 0.05164883452454331 0.09686451182923318 0.2203674521816011
Ni 1.490934854089537 1.2887715976461702 2.5913913648324667 -0.6450144498440052 -0.6727360841289898 0.38942519834563255
Ni 1.6845675587422158 6.572718014751914 4.914348087153785 0.57521851209679 0.06811855004479238 -0.8155405530234471
Ni 6.058783830601115 5.569783024570031 9.092946001607036 -0.11880167822195667 0.009017115896945762 0.8361721132308697
Ni 8.657743580336248 2.1589960902555925 10.258357343913053 0.5767287780937294 0.9609644618186224 0.030266512194025295
Ni 2.28845127155275 5.151849109302591 6.983611970417884 0.18881127464187483 0.28165560956812136 0.42807247840418533
Ni 0.6427860949249161 -0.15304134542371375 8.829103970118084 -0.473415682425675 0.28397037374422707 1.422002596515551
Ni 1.580920452735701 1.0025382203311546 11.516286397912618 -1.2802332537538275 0.8956980365106445 -0.34966334506666236
Ni 4.107514792195711 6.999083289347359 1.6435099949386434 -0.5286185528500638 0.3035781206728255 -0.721255628995932
Ni 5.6108577216171565 7.751782748671336 7.970018791067896 -0.5489171551980999 0.5022932846919737 0.4069380104184153
Ni 5.245504829068005 3.1086016055007684 4.587076984527734 0.4167351990144952 -0.5987613324137365 0.9514732344987354
Ni 0.6973266196560108 7.248335913075048 6.990725873491535 -0.2605872189335964 0.43873715720688305 -0.4143201618150993
Ni 5.11877293174631 4.566766876918679 7.115856263415738 -0.09225041009598951 -0.6260458791613025 -1.107070484282487
Ni 8.093085977768306 7.098347892002631 8.920039111157017 -0.14039328834980336 0.14180379554408482 1.1337852745695118
Ni 4.720650456525533 0.1706723547906824 10.318434611561146 -0.4663600611304743 -0.499328802747011 0.16050728549085908
Ni 8.099190822971577 7.1679900183022935 4.734142434949662 -0.04978787005640457 0.22583361750249492 0.8183165731066875
Ni 7.371514916733392 5.985399443209343 6.931123827914655 -0.7730186205008365 -0.027083743590669486 -0.5803964567533036
Ni 2.2333814197707955 5.299122863896153 2.56766092076019 1.291997336268291 0.00907393727681018 0.7126748293054564
Ni 2.448223276444296 5.177864587015207 11.416232764304189 -0.6981825492265523 0.005950304046163946 0.4402098850976677
Ni 1.0015102257179005 3.482322734901673 3.6969229226660927 0.0729607086284421 -0.6281117605513956 0.479859895389122
Ni 3.658371321169742 2.587913316390957 2.692711956714248 -0.6675306286686503 0.8197484204572075 -0.5292685277292368
Ni 1.3116038990563406 3.2245125068934724 8.192115223762125 -1.211377311322378 0.6974351295375666 0.5139378109094375
Ni 3.6598862605998006 2.4311261028764903 7.184459574106217 -0.20360668778349453 1.3627731214302723 -0.7253560243175508
Ni 4.014950189519804 6.737161082886142 5.89547516354011 0.24300755817862021 0.7208002866260683 0.1684676779885163
Ni 0.7525317338870777 7.321657177990567 11.207189157949305 -0.48998130009384 -0.38703227263342377 0.6460876283035261
P 0.29033904352040696 5.408640360194147 8.074059059926498 -0.3778369792874009 -0.46230106056975223 -0.20295208491863112
P 8.528279381542484 1.6245561188193556 7.890104834382639 -0.49124011220160557 0.6675306286686503 1.0469426657526548
P 1.850922336157231 3.215017082965783 10.397371973363812 -0.4928964168581059 -0.6233565052545974 0.5820329639154621
P 4.0755297317289365 6.163170371329444 3.641069450428947 -0.9438136610709488 -0.23970986126395488 0.9164537810007573
P 6.772329319655362 3.9163168116270555 10.456076778028248 0.7583047113294296 -0.14323769977713396 0.028446685376467138
P 6.403008728598912 7.526706033348332 10.268902404445853 0.12193302476208677 0.47228413992439305 -1.1030382231946423
P 2.2159596163251205 8.56605367483127 5.826595015703782 1.326036171020555 -0.8829165684752601 -0.2851512814262057
P 6.926230934255429 4.146181817648637 1.6598623232866694 -0.10382088854240829 -0.147716561484094 -1.1481880802584032
Ni 5.455287870144703 2.9167633826729804 0.3623834309163047 -0.23323890882763057 0.06590225911976393 -0.16333447052700903
Ni 1.4228076672199337 1.1355733477814862 7.076737461382778 0.7282271752177587 0.38404927874569983 -1.5450046859721003
Ni 7.081043316012854 0.6432766467403637 9.227129958125161 -1.1319122259165153 -0.572920974311865 -0.39299646063665866
Ni 2.7691289282151192 1.4963724045438547 9.28777532805953 -0.2419878586648542 -0.535317305026478 -0.244936656880533
Ni 6.237438473388749 2.0107033585453844 2.523434608648745 1.3265385645782704 0.23213950511586473 0.07873103545331603
Ni 4.1844701082440485 6.66751895658648 10.397055459232888 -0.15747132687801266 0.9660992119420265 -0.4997797742415005
Ni 8.153304820113139 7.225368349215766 0.38924655331002384 0.09442684892201803 -0.8273295752385751 -0.6767896853730732
Ni 7.698795938605712 3.800658400139361 8.251281724252863 0.36081884746284953 -0.38023607564719675 -0.0006965118463923488
Ni 3.1019557105010467 8.303446138627883 12.329865682082755 0.615105835210031 0.7262019172576138 0.20356837834639135
Ni 0.2656996357900954 4.796262165579354 10.282021058510432 -0.5451839134079126 -0.467603189508956 -0.48133930814812587
Ni 8.562608991127208 2.2155177589913535 5.675358973100888 0.1686466267685418 0.44743622764277785 -0.17083232156595093
Ni 3.7997566504786113 2.604649790094462 11.1544891042758 0.2736103706661417 0.0018128848390226843 1.215271761280778
Ni 1.045254101760845 3.4091547674284817 12.672248305523643 0.5409153679395459 -0.40744888861656275 -0.49511399333471506
Ni 3.0527382140173542 8.396254213712192 7.917662304015136 0.550429220967252 -0.4234120968140386 0.2026440667599091
Ni 5.499112903657115 7.921176422443075 3.43429554797017 0.3592697578081748 0.4750624740004786 0.81048370732583
Ni 3.1154458854258547 8.408310606676409 3.6113739323508143 -0.6031676890115483 -0.38304243474774036 -0.14379871448692652
Ni 3.41667535959913 4.301138479351782 9.29792452049126 0.43454008840639996 0.15176399208059024 -0.45371229045947664
Ni 7.2972287796808715 5.85197656340489 11.443486344301013 -0.020106540941887956 1.1054298633552704 -0.5238679255389559
Ni 0.3097311699748188 0.21328453500938654 0.613028356120192 0.4915121349160696 0.3749015508081608 -0.598983989947504
Ni 4.5731332295235685 0.5687957317611215 1.5742466034964961 -0.4691684771135468 -1.2805250739626335 -0.5985116782967757
Ni 5.88868679209399 5.705911153356732 0.53635709121499 0.37107060709784484 -0.4166904618194888 -0.4813099975720872
Ni 7.933205762917471 8.886445329295466 11.39779468899085 0.31257466774448106 -0.45406864535763086 0.10188304808974712
Ni 0.09836014774554211 4.640169299303665 5.852607788167415 0.05325371711781796 0.11400297128173272 -0.21811439448136627
Ni 7.810297284157352 8.707835773990867 2.5252822937036203 -0.1191158670282658 0.49617457338874543 0.46851773090342536
P 8.427274402041965 1.5482680975199719 3.507174955551921 -0.08057065976521607 1.0168039373857456 -0.4078849477127168
P 1.925956925428173 3.3014047004655582 1.5860721485475613 -1.2947029081249122 0.19928286359716002 0.08708557806559841
P 4.826524884194098 1.0526935364620258 8.308970257049632 0.3774181465824274 -1.4025789405733005 -0.4234527202439868
P 8.37529755159638 1.7524693081966318 12.489403232062507 0.7813441096473962 -0.23583957967527125 -0.5655876738752453
P 6.251821380477699 7.727345332865032 1.340443656706422 -0.02618180060169039 0.5932704845024943 0.21208952844352502
P 1.887371057444714 3.186756248597903 5.9466701970298255 -0.7818169355187568 -0.37847229887855466 -0.04251704742660419
P 6.914084366325137 3.922006851986383 5.836783885120587 -0.2626191617619606 0.2926437331485089 0.8406100943975652
P 2.3048991853648158 8.455959058750398 10.194861543301057 1.1109286816863124 0.03971351653953806 -0.2131565362554587
