# total energy = -381177.3825034986 ev
CRYSTAL
PRIMVEC
9.11745832951433 0.00000000000000 0.00000000000000
0.00000000000000 9.11745832951433 0.00000000000000
0.00000000000000 0.00000000000000 13.34432187206474
PRIMCOORD
 96 1
Ni 7.362903647035343 2.4886557981087893 10.625469354053036 -0.853887785343078 -0.9855357234000834 1.1902410435643953
Ni 2.9894504236797497 3.4226026269973384 2.2924608624703735 0.4622105577384749 0.4671146799083116 1.6423489656512298
Ni 3.047601571965503 8.055128424598728 1.6699080533517077 -0.09541183854310664 -0.33249223260401445 1.5567661973834028
Ni 4.202482647523913 5.985237480796094 3.0259986665487166 -0.2083406029240541 1.4879992151213342 1.5154567971116544
Ni 3.6446127337326937 1.4589847757658463 7.189386565133389 -1.8571337815387305 0.9072386901603924 0.8176624844624563
Ni 8.897016278222106 0.07150822452260348 6.796049389951432 -0.88563551006832 -0.03909362356735202 -0.6771848639289627
Ni 3.378729418224832 2.7976099860691286 4.65628771711571 1.0428062749867784 -1.7955879996154496 0.1742652585068999
Ni 5.7393213987071405 1.0118372741386574 7.317959136926435 2.349487438519489 -1.3688761490042167 1.1274927566925808
Ni 2.082363626595815 1.8394836580815177 12.226200516939317 1.9668656362489352 -1.07620439083125 0.44999576083983794
Ni 3.1284460736666286 7.307378326706049 4.738274636327057 0.8781258319548361 -1.703347873932105 -0.5869391429678279
Ni 5.3312513228486464 3.8524816628275347 3.7082936204059216 -2.542002387265196 0.7345888557697284 0.574716632759707
Ni 4.596475367949168 4.833757217139625 1.2864997901301118 1.8184417642851716 -1.453012414633504 -1.5374345869343264
Ni 6.660996128882515 8.36460230767545 5.425467488719714 1.7989047226935082 0.536458874830089 1.6243512435222283
Ni 4.807179826538658 1.5578909621258108 2.6562538261588915 -1.1795259711397363 1.3536799008797524 0.16427780827688482
Ni 7.429880494841418 5.349677705834773 11.035687503059245 0.19886197400965752 -1.560189621242655 -0.558818730582528
Ni 5.5905062462580855 5.877405302875804 9.304862064609319 0.655079033168859 0.5556601303488882 -0.1598439408752473
Ni 8.604163521411445 4.538761857656157 7.261646068210202 -0.8377816238098345 1.2454775954401969 -0.3731801972416799
Ni 8.593113162094678 6.792533698076395 6.4715955230814375 -0.6693568832441117 -0.042680826697978104 -1.1259986886455575
Ni 9.037963064259966 2.6699838064353916 12.236529685313874 -1.3041727952885602 0.7343533427201546 0.6357091132826794
Ni 6.020950564495576 3.8502843554056367 12.489377770858717 -0.5476948527552244 -1.5570788435278151 -0.10357637663177001
Ni 6.030505660670469 8.96881626140654 9.944322288180965 0.7015082711656757 1.787583384143418 -1.1041551104079048
Ni 5.879575257923157 1.7218866824481454 4.918450197939436 -0.3830627464627145 -0.14823798120520276 -0.655848821455348
Ni 0.6405862296571407 8.86938126247201 2.174764506542816 -0.8048236808265753 -1.7849222923714871 0.9782178495824315
Ni 6.725146564652124 6.059015952406052 0.16675831015152592 -1.6461197455475713 1.3498669548915656 -0.07827055087712972
P 8.562442032769926 9.05252364497686 11.453217853527535 -0.5089812382351105 0.6999226718461107 0.9111807055272758
Ni 7.291951587461851 2.9368518074269256 3.2562144856480075 1.4128188731337539 -1.6166929556460221 -1.4249483094074362
P 4.209439268116895 5.06301570312979 5.496152406768468 0.022823168542102628 0.05485834260077649 -0.5114685234333385
Ni 7.019330470357379 1.0591659995621987 12.7905456495315 0.8928901347482042 0.7615622990347787 -0.11803497525926122
P 6.293389332436404 3.1004828294219737 1.2855543097166229 -1.8027850315845209 -1.5801493521940333 1.0246637997497965
P 0.0808791480422174 5.252029728703945 4.716349884636441 0.013232182419557856 0.39968981349643423 0.8638976041705961
P 0.8502193869102277 5.190304536810788 12.918370589753609 0.11477301667853783 0.8921386012941603 -0.5277916860733943
Ni 1.6789161020356718 6.017185054266347 6.384417123181173 0.009243887195771176 0.1457841203480715 -0.6809119350715629
Ni 3.5596744933077833 0.573800848472891 10.038853006359316 -0.667123880148535 1.8261075083605451 -1.3301193399509932
Ni 1.5884617994105603 7.463906848777202 13.20686155456993 0.3391416195997321 -1.1628703648609262 0.04380105634535037
Ni 7.821137977812027 4.223671620339231 0.6393973131101883 3.431073405377626 -0.46878769673536036 -1.1214594060143075
Ni 1.5895832467669648 4.815631710273511 8.49124562531715 0.19854907075492903 0.2725906711523757 1.002088228442126
Ni 5.334761544248775 8.668633068217428 3.596828135400045 -1.426193494668447 -1.5415498946542807 -0.266272956464464
Ni 2.1373510168923624 1.4337385340594726 1.4946978594653284 2.2733326484337817 -1.2700228888797287 -0.8879189067858578
Ni 0.4422888081619211 2.5423211569689252 7.39153975969384 -0.22221864645772696 -1.2766110836202078 -0.49701635256375043
Ni 0.4900314661869321 1.5102431256658946 10.235721722157392 0.3579512961070674 0.7968203509061245 0.672316737203384
Ni 4.486473234981526 8.148591488423948 8.579825378540013 -1.697138916907916 -0.9068735935114898 -0.6153948272053595
Ni 6.808616894309708 5.251090630511182 2.541893548180182 0.3303726151578504 0.7636808880396784 -0.4159695244930643
Ni 7.8713022327302165 7.620180082019256 3.2887884284953754 -0.0542505338134485 -0.48303109402825195 -0.4854448456760672
Ni 2.9299225392084915 0.21777231217229234 3.7587213698655755 -0.6576943593045189 1.4639185200230467 -0.1905943346842266
Ni 4.239235121456161 2.4303496530339395 0.5881872857385059 0.2504424171901106 -0.0006391762458956734 -1.8635142311437776
Ni 0.43376307301579253 0.4763425144722519 13.356598482041198 0.19330427741622191 -0.5390914273569297 -2.285848521512605
Ni 4.235816074637855 6.871955876301105 13.25407357652874 0.46541389516712106 -0.10992648721951391 0.416084967025006
Ni 6.227324230448544 5.290195408654426 6.783078893941505 -0.0940085304376768 1.733047972099699 1.5435286156472061
Ni 3.4215997065973016 5.328680199641281 10.315227780997377 -0.10311357806273855 0.4331912876879894 -0.11890863611346618
Ni 5.2509356337220865 3.27941294624667 6.626697162947084 -0.7280957918462171 -0.06194070336885462 -0.4587367402572616
Ni 1.822178722451797 8.656251560006067 11.193323796299529 -1.645538933343437 0.5047746563529307 -0.38866955112653057
Ni 2.3108288937241332 5.555331092591351 1.4754417877846273 -0.4840795898974244 0.6058331516588534 0.40064394987958746
Ni 8.736895477627186 3.9474946945437215 9.63425303508495 1.2190037175193844 0.40298853885236396 -0.4875505791651603
Ni 1.8409880386815725 1.1988272239963744 5.831909186546875 -1.4202064238470768 0.8433547470222379 -1.2144932312435406
Ni 1.4135524816441922 3.375401545988347 0.639518575304011 -0.5359611092580641 1.4368437752934418 -0.903408774891341
Ni 1.6575356625985296 3.77617765530112 10.996815220099647 -0.3226881020293991 0.6996511633522788 -0.6853262620891746
P 5.379172683054028 2.042875915208923 9.980765680280836 -0.1885528787741656 0.08510557152109213 -0.9039152822141142
Ni 3.7397078225725195 5.6599265728569765 7.635314150855806 -0.0604144965323153 0.36471895384820413 0.08603476820358086
P 5.421568863601027 5.617439217728157 11.510932275566365 -2.567848658904339 1.3259348695560003 0.2534567785364022
Ni 0.8475124135759473 6.226357779881236 10.334576850751537 0.18562799181788678 0.45860921354046175 -0.05062502124571926
P 4.553641549409426 0.07005946041745983 5.613088366683636 -0.9399503214608006 1.2075947043514945 -0.5866964308294025
P 1.0094576175531162 1.5678381090025368 3.1907474889168967 -0.7760718055048634 0.6004636598168239 2.369889142104293
P 2.3736299456827834 7.146136078754724 8.778789286228347 0.11352063232867546 0.1921133424319143 0.21593949831723455
Ni 8.412915718582664 6.9854773481270565 12.099829811297262 2.0297257661082657 1.1085329277606262 0.9796779790677256
Ni 0.034450315741254275 6.453838361525882 1.4231449593976324 -0.879829187799188 0.036248697919389186 -1.0788135463193225
Ni 8.701027397138608 1.990341121163374 1.3683937112680027 -0.7768009703614042 0.670195319985007 1.3226844809395026
Ni 2.2419647320743534 4.6527939071403095 4.219007128733243 -0.07157539824514124 0.5352769387068459 0.565578932124497
Ni 6.2153074205644705 6.32920270817589 4.544061836097441 -0.935216406320241 -0.7959793430620679 0.1499953302159417
Ni 5.231424273212285 8.949660481765841 0.7408700639484282 0.0519509391459944 0.15505834656114587 0.24648214699078197
Ni 3.206382106207648 4.885371147908777 12.753128512897772 -0.7936648359962782 -1.0214617478727313 -1.0663493524140408
Ni 7.654042321707761 8.289428864963622 0.6420149353542838 0.14459112848123484 -0.7015890038049402 0.820353401031058
Ni 6.104785592480447 7.831066889772388 11.817210489550245 0.6555132924928001 -0.9609608622741966 1.2910406287819767
Ni 2.7718531667045547 8.403369739865951 6.598259810876959 -1.648637883983735 -0.48739168498979296 2.457862007870851
Ni 1.3019456760364925 0.27245700285719243 8.517200293524278 2.0388493256760887 -0.6671958710370509 -0.6774895396535752
Ni 3.799427173665603 7.578759469497747 11.077307787914942 0.6761649073048807 -0.2561055290131589 -0.6941554303450304
Ni 3.980390483664919 3.123075890797342 11.2354783642047 0.021201316667963488 -0.06340957460489725 0.3356672878978864
Ni 8.018822706117406 0.6951587756064004 4.279910837644188 1.5025675998538122 1.685208226908601 0.6450553303842697
Ni 8.404883237924189 8.438699890321784 9.418688971284372 0.7582486612805134 -1.4494876893096973 0.5604220705139057
Ni 2.4848538180468327 3.625566363590182 6.693418721924059 0.3991408829714997 -0.23110386476249878 -0.6628725610713488
Ni 1.3662693435115618 6.6284559206304206 3.4820676010071394 -1.0750376242166582 0.27551967187371257 -1.3570300482989082
Ni 0.03476122106526559 4.464864859089831 2.5892386850284512 1.1140430589455783 -0.6723766439070421 1.308020965390057
Ni 4.116450312117145 3.6431083531326394 8.778228562550145 -0.37215175597716554 -1.4468355963988309 0.32540010164392347
Ni 6.810440385946138 7.600459019971265 7.79576591518274 0.0686962769251333 0.4611525487876058 0.6478976849290713
Ni 0.3170504908260887 2.9582595992386143 4.7477230582412195 0.16962518863172724 -0.32509156926456917 0.2421238700220862
Ni 4.862759851617044 7.326069115979457 6.458878492408975 0.7665906054873056 -1.8053929015210133 -0.30002819853803814
Ni 0.6598477718127512 8.374987092544918 4.742131321138107 0.8321295677303798 -0.017590716498569706 0.6254221295343745
Ni 6.575720542504865 3.6727036223918983 8.787836539982495 -0.6377369423459854 -0.04596078300083052 -1.0184242465979878
Ni 7.220397775648337 4.196009252214587 5.118534641238357 1.4833869131603032 -0.20906976778059475 0.5340885748256996
P 5.9322650487578015 7.254497069249578 2.0073059756029004 0.15535350920406146 -0.6303925861657724 -0.2652460578618464
Ni 6.841257394601805 0.6302315323996728 2.345891902655228 1.4700912244926616 0.734889931949915 -1.276535493187266
P 2.0004706172037428 2.6471719260636517 8.815552701110413 0.9749594905461338 -0.3096731778269699 0.9192825086988039
Ni 7.909841728466166 1.3107531406404496 8.547798483183573 -1.3559465854267423 1.3095782825748479 -0.06727008600156802
P 3.2112234765023695 0.04220927265426404 13.212053035258846 -0.6817524286949872 0.2942396168807191 -1.3311755491296495
P 7.991497683945502 6.2756376413557575 9.135148786260958 0.16067877807171682 -1.0736741682102284 -1.0446631256898589
P 7.482925866545168 1.9346425691286186 6.3791864374220735 1.1676042800014859 0.5064399598704955 -0.24347087096828393
Ni 4.873746388726535 0.8985255038508956 11.894394331791236 -0.3907035508374239 0.1325290551103782 0.8337303365585965
