# total energy = -340861.16637915757 ev
CRYSTAL
PRIMVEC
9.37314328484740 0.00000000000000 0.00000000000000
0.00000000000000 9.37314328484740 0.00000000000000
0.00000000000000 0.00000000000000 13.71854264921947
PRIMCOORD
 96 1
Ni 8.163201793471961 7.4631029681482115 6.607014416069215 -0.9216067859566065 0.3172270789148279 -0.16428012226973
Ni 3.9041766656998154 3.4659166006906776 10.95033315957021 0.5560679073102682 -0.5255172882169207 -0.466229706200197
Ni 9.032176543069502 8.391747148501535 10.535429093234846 0.34775892895509786 0.00703762357307175 -0.0776966806515307
Ni 2.0698712525604286 0.9329970681389012 9.384731396956795 -0.7044472991893416 0.1981772892378071 -0.2234646030496861
Ni 1.4062527012708468 1.8545607759831266 6.572978657828499 0.43486379029440586 -0.5253905328310694 0.7496673473694057
Ni 6.714891797855968 3.688238188516067 7.97768947701337 0.7106608841992212 1.0798756690352498 0.4153043801052396
Ni 3.3540106418792885 1.8891383019111954 2.10314872350172 0.3732259628779508 -3.40609076729036 -1.342345963924172
Ni 3.443421056579166 8.932108864346795 10.744815743196119 2.07729811657059 0.7070597971115242 0.7763381717923726
Ni 3.997598785766246 2.367196733710949 7.531534413335429 0.07770696506417586 0.8404200898739462 0.4649768076297024
Ni 8.192999016276334 1.2366175523832925 9.699599653256941 0.5904759524764928 1.0544564576311968 1.493517830946718
Ni 5.747649013064643 2.1805212101589246 12.13513503803565 -0.4161567008032058 -0.2890557586869344 0.588674894712012
Ni 1.8845548347984749 9.048954469719336 12.52861022397612 -1.071982125219786 -1.6351992419803258 0.5675458260428806
Ni 5.58483751255758 3.640735097867259 0.4505276350646156 0.44385288116689364 -1.2950232675788085 -1.6626457682270528
Ni 6.283389769223663 6.2228955018504575 12.999513198119738 1.19836830065722 -1.062230702259977 -1.7750412858123492
Ni 0.5465029993877023 4.001938551151092 11.890643154174027 0.534433102649312 0.5883334522121932 -0.20329558430097888
Ni 3.077887211053868 5.2886180623258765 1.2095694725322141 0.5603917314966026 -0.4688933690752893 -1.3324117355295957
Ni 7.368556070876206 9.03638508444703 12.496769655914951 -0.14655879373056693 -0.20527636217643355 -2.014865046946349
Ni 0.34501041078089606 5.30503980952728 2.2369728407924243 -0.9436537384543167 -1.3752874518471991 0.3122571365040622
Ni 7.334672157558242 9.504086192812109 2.465455395761354 1.4220015680742863 -0.7122364562164574 0.3953729312886352
Ni 5.427640524935016 9.072556044749664 3.956331647408016 -0.06104698790999164 0.0236250956181077 0.12581513342531236
Ni 6.958143614848443 5.378609611915301 1.3843795338797542 0.20482461935099563 -0.7548954285375644 2.18161368536123
Ni 6.305379163592666 1.5598504018355699 8.187089249375372 -1.0384184303317279 0.62029072184508 0.5384093136882405
Ni 4.032644968863305 0.06298377425487958 8.261813823027785 -0.7437422401342224 -0.8900601214985768 0.09911499842630674
Ni 5.856649297428294 0.6430135701977755 10.429631611964071 0.9093205123900856 -1.6385648160184487 0.3769764310593185
P 6.111739394509452 4.5547946671216195 11.03400252394996 -2.6563748260712057 -2.8243177419045034 0.8471520092811411
P 9.456751818744138 5.913113113148188 5.8597930497178785 -0.5380802124835959 0.1783330008183703 0.16128375864556738
P 3.172987123785282 3.0981988127578868 0.4017273013720438 0.86005071962068 1.9199864551988932 -0.511215526882268
P 0.5812098746944123 1.2260915123677814 11.029351570204906 0.8748479325345128 -0.5931429577856947 -1.0738906550964085
P 2.479768185702303 3.9556633422850367 7.48213419846655 -0.46214910837292017 -0.8589194342297144 -1.0463898785729786
P 4.072115275635627 0.4210341021057483 12.926009007735372 -0.475241165670188 -0.3772312273826019 -1.1261881789485444
P 8.93611119656997 7.30440627758488 2.379412751477837 -0.8850531552022887 0.043180906262848213 -0.16634291833602963
P 2.428459598841298 5.02151159543182 10.931620616126782 -0.6244451103330859 1.3327608913388982 1.373899313250421
Ni 0.23639067603846403 4.896389504454918 7.904830158893536 0.183839018238264 -0.5575997705737622 -0.6503818848035057
Ni 5.794636580827563 9.343599231863235 0.47949346005120025 -1.902374141433769 0.3174224827550856 0.6044378139732236
Ni 7.724238742709338 0.8921376615176929 6.27914186064394 -0.11120458260098912 0.003159371564588107 0.8384534530658785
Ni 5.1472429407284075 4.839588255573353 9.150624955959987 0.591826038746484 -0.430856983127858 -1.2743094320702246
Ni 6.999910341748816 4.338293801335084 5.8839382670642335 -1.17413899579621 1.029504929892182 -2.7296355824385703
Ni 2.3375119886271336 0.9836926514228677 4.31380927619838 -4.840312274469606 -0.3451844833597023 -2.204281559272391
Ni 8.046628009257434 1.9561375307899798 4.133231919729251 -0.032840443568788596 -0.3032428488205939 -0.5350385974437947
Ni 8.231325799556322 3.689897234894291 10.274241766385131 -0.9999536985976261 -0.5673753619032873 -1.213922189231419
Ni 1.7672499454003234 6.955266059830845 1.5250769772108632 -0.2769908571026004 -1.897275129644307 -0.17638744705622525
Ni 7.238194392749999 7.5871377744930575 0.8065899192046295 1.82738431819044 0.5156190552666022 1.0590649029374857
Ni 3.7096839405690414 0.5940126512368761 5.868299177335044 1.9458131864540105 -1.853271984590479 2.4792348171196723
Ni 4.44159521452382 5.1018581804834335 4.641984584154823 0.527057379010531 -0.6467175485780411 1.138068218215582
Ni 4.636481611676545 4.206863584863579 2.295414389765454 0.41295362048487594 -0.3200496359652875 3.1253759243689534
Ni 0.5750114149773529 1.3150613893288083 2.2424195744104236 0.00791616952328314 0.4121583782770901 0.593139615351585
Ni 0.8016249651563514 7.318587843518512 8.168541673255431 -0.059954011956129004 -0.009923686871615168 -0.679552592830191
Ni 7.814605218033955 3.2804783320647863 2.0701421364041046 0.20901988837926586 -0.8653405072647097 -0.6445933031461867
Ni 3.1071314183988323 2.9175970861159706 5.326663651304469 1.972821596722054 0.4508434535521138 -0.3252779742437624
Ni 5.237543804049366 6.655447322541299 3.0749431067182735 0.04275230336586186 0.5987338216099107 -0.11926267701877524
Ni 4.41442247186579 7.530927033644418 12.71976423543501 -1.0155551525803093 2.2046731382838547 0.9798998652705447
Ni 4.455101914134105 6.36689510359427 10.695182137057083 -0.23571668094416176 0.5734984440818897 0.47594924748080614
Ni 9.399763106994975 0.2907455344979031 7.932157558417333 0.8636530922599578 -0.23944863718276826 -0.2682262235360929
Ni 2.0897141970954576 7.3052686067758215 10.048421184136064 0.4016500225465986 -0.09282428032158851 1.0915754739706813
Ni 7.201629760425413 8.858801509973409 8.667909946529152 1.3802828481792617 -1.2345480930118868 -0.2828411452357903
Ni 1.7187907941267766 8.175818044461167 3.580388926159454 0.09017552984483179 -0.6971307109232704 -1.239775145738781
P 9.172661216045888 7.248279895026659 12.42718906334937 0.3952268926290742 0.9270202436626939 0.3219987892718583
P 8.62765042108425 2.744531366751411 8.200190091877314 0.68420551822117 -0.3252448070129818 -0.3326891791061689
P 6.519049340078503 4.130959869773988 3.698780162875324 -0.05521855415367265 0.2635961809632492 -0.2308038170235767
P 3.545241513113894 7.4110257835300635 4.611734638525206 0.5863647585215965 -0.5658003041066836 -0.5777788166247985
P 0.5849647559323587 3.6206765710344953 0.17047779447739808 0.22337847109378303 -0.49697470069253763 2.7603864904681816
P 0.7517617170045108 2.815467315849709 4.359835159450531 1.0106494877485757 -1.4511043989775136 -2.041165889624407
P 7.035275211720787 1.7144510287419308 0.33335490698811937 0.5579918638058584 0.7117284062317872 -0.2571203434309185
P 6.542575929961792 7.811652677869319 10.39418332101602 -0.2861200730973782 -0.7233639335881865 1.2584284991739103
Ni 2.971830093711472 5.38234012298046 8.872343827528539 -0.7459898985178185 0.973256648922414 -0.06377467125379985
Ni 8.964043163841762 9.253767025711268 0.4193328765823153 0.6747286890789863 -1.1390953739285157 1.2717020763543645
Ni 0.3577007096028024 5.755006930617784 10.108357749478172 0.9958260495824977 -0.40366345343220156 0.9683653822683841
Ni 8.88077215805565 5.472050478268491 -0.03744945705963835 0.0052234531824684235 1.111395336910086 -0.4685439561556705
Ni 0.022543347142748207 1.697635609518576 12.96225307855637 -1.146303975861813 1.3370880579593425 0.7050090852300825
Ni 2.755657287943229 6.609509546836917 6.658445791108496 0.13516932094670267 0.1862481419003889 -0.7741532483259119
Ni 7.569806832383814 3.6995796920056208 12.659553974306213 -0.3214089782066593 -0.14702184940991453 0.5543784354229873
Ni 8.965561613069289 3.2913699246721095 6.0119454115734365 -0.6037441303403086 -0.09340740651856817 1.8077989398593446
Ni 3.6295435646717826 8.725899709991275 2.2506501316122227 0.6408572331425221 -0.1278473333639927 -0.46814209273156154
Ni 2.3433702032395063 5.506009376733492 3.6638248992690494 0.42738059454348326 1.5573053577163245 -1.1510137226326564
Ni 5.226605345725143 7.329095137247263 8.5332628672497 -0.024587202421060883 -0.647017339206647 -0.2867728761900287
Ni 7.835235506612887 6.3369760299259585 4.176816099130966 -0.0019172716273708915 -0.05231655001552925 0.11920971229365275
Ni 2.373092440896841 1.9086063207110324 12.47307716139384 0.7934730317004464 1.3195719034524502 -0.6800416166514675
Ni 5.654545579873126 7.138998416361614 5.502644418260146 -0.038368315365553275 0.3239811098092098 0.9036579147876695
Ni 7.610720603236625 5.7781304753357405 11.219298320796478 3.036218294265674 2.7098920812630554 -0.012745986811758694
Ni 1.6365695803992029 4.495322072376812 5.505223907318266 -0.8492577427702341 1.364320154202418 1.1923310933242046
Ni 0.9798027969202522 8.268893358222545 5.586848989126885 -1.247835297039096 -0.2194878777901252 1.421934462281777
Ni 1.2500586399899205 3.437431617959476 9.798620351864125 0.7890219379076283 -1.0282659152787583 -1.578120494689463
Ni 2.122473333207846 6.412795386725131 12.795846977563155 -0.8215996147333334 0.05884663782456317 -0.9135242660587881
Ni 8.017693115644002 6.656693950610813 8.970390656538559 -1.7448670762218146 -0.4051310391166636 -0.7253670800611444
Ni 2.0380025650691214 3.445923685861572 2.479269534474498 -2.6383475362558495 1.994321932687675 0.6551098864067944
Ni 5.644319480445769 1.7699587838370847 2.33768070520797 1.3424228399086944 0.6923006365244786 0.07121415825098057
Ni 4.258040947717267 5.1398006648848495 12.77876817301083 -1.0129683656897392 -1.6052204362300484 -0.07804532224020108
Ni 5.821640606904756 1.9565499490986908 5.342741404143835 -0.32642880001875396 0.8359178311282184 0.41563656663367776
P 5.17706828296292 6.571060912692993 0.962646195277873 -2.105360164914129 0.4642928941888004 0.5149832214548163
P 1.521308036257847 8.84490113834117 1.4857182108447604 -0.08707195121884359 5.030151219045046 -0.8807912946021412
P 4.207182271738493 1.6153675300741035 3.9493214734742668 2.7220426005826606 0.0860522517050776 0.5176787660091084
P 8.346184298532346 8.912406516962465 4.790515163408428 -0.0559582605331746 -0.11298070066480542 -1.260675643336874
P 6.051142022559069 5.7752810397482826 7.177678567147019 0.1466366981563539 0.21348075236409683 0.6937013735267472
P 5.8193629330634655 9.173214231505298 7.192920235596906 -0.353031747318263 -1.215535813575442 -3.6744632865963296
P 4.237316927704538 1.6416498241110524 9.663012525388245 -1.1370793719397514 1.9704993763467809 0.6349742919991839
P 2.151042674229465 8.802778231992365 7.258056083571787 0.14134922450516946 1.1099570618016628 1.343905337991492
