# total energy = -381174.8708495017 ev
CRYSTAL
PRIMVEC
9.17376139657960 0.00000000000000 0.00000000000000
0.00000000000000 9.17376139657960 0.00000000000000
0.00000000000000 0.00000000000000 13.42672710190744
PRIMCOORD
 96 1
Ni 6.858294982522786 2.066252189193029 3.0324529409439833 0.31660667172200957 -1.1247607024733983 -0.4653383047341792
Ni 0.34378671516420084 4.777273037187945 11.225227499044909 0.8320727463505153 -0.9639610825531011 -0.6512648016290913
Ni 8.392267177392739 2.880818001056268 11.76949301287064 0.19897587387970248 -2.7262931483288986 -0.6136109958320594
Ni 1.2613371745106505 0.9646393775302481 5.5823366668079 -0.2951199626031434 0.7634623442709689 -0.32565566929815526
Ni 4.461576379977921 2.122514868955592 6.948627178036563 0.5142671692243981 -0.6608910118649456 0.465721656215527
Ni 6.1568416509257125 4.201078246187324 3.4982662805004363 0.9708693796371601 0.5170195351585547 -0.23615171159905135
Ni 6.34917873618609 4.0257217936092395 8.434133473109746 0.0024281498255183985 -0.14155054188269817 -0.26120582635420175
Ni 6.693286533005548 2.8595073529087984 6.220293807637553 0.37536512070814065 -0.4808621114013912 -0.4136308490575586
Ni 0.2291257039435387 6.330436741280674 5.2905871968230835 3.7208215621458947 -0.18542024668245485 0.9242046285907697
Ni 7.44552580870266 8.420650795717437 9.049399314674327 -0.21888675387101655 -0.08546835417714958 -0.014915226548935604
Ni 4.974967599210321 2.313852014203884 4.516496021045353 0.6050579640557256 0.10393144597834357 -0.5412570675496806
Ni 7.323734949982983 5.592646140070116 1.8214962302715918 0.9622258450295493 2.2333568793717924 -0.1157880882066135
Ni 2.3285667277762228 4.728633753297336 6.153724406741248 1.0849610539779573 -0.5367082718367338 0.907773993838572
Ni 2.565387382932029 2.5504524990818 11.053754299743117 -0.46708819754575037 1.6218565021248326 0.3555043772284716
Ni 2.045730484541333 2.4559902761052617 7.366614028978287 1.3707749086888263 -0.814878751069732 -0.8940802984015636
Ni 6.971645980590001 4.5276641583913415 11.757382730210514 -0.555669900540901 -1.6188670804792056 -1.1356284984258378
Ni 3.1605168178312204 9.101105387060716 7.689258893208065 -0.2250723138564382 0.6385959479121712 -1.9375244640826566
Ni 2.3838845100961725 5.400942044358673 9.860172693500905 0.4757597571778194 1.4787463290644987 0.8014051420633295
Ni 0.3299279135471612 6.801867175051805 10.137326708813907 0.907678091690656 2.102258386060354 -0.5028591844977727
Ni 7.669732541687666 5.798633782559694 9.414874636963042 -0.03126512866186874 -1.4016132342259215 1.0169013821955581
Ni 0.08598750203007571 1.3522399779946284 2.7989623612412684 -0.26674218279139866 0.28356002567968586 -0.39833304235822364
Ni 2.7155068174069315 4.844681837268706 1.9005401121627006 -0.4853993371501125 0.3773955208746081 0.20970123071700658
Ni 8.830635374434003 4.347170399329149 0.21536322682307615 0.33285887191481384 -0.4636855996221046 0.4742150383985188
Ni 5.051394206923008 9.066190050491938 9.068747695220098 -0.321008400334131 -0.7386252306226311 0.7312543920798568
P 3.4975975132813444 6.495720403645275 3.1645046519895095 0.07114345291404522 0.33529962014582254 0.5169089777226195
Ni 2.5834229981958803 7.030046146800415 5.263304429887837 0.36205323409058293 -0.5344552141364989 -0.24940112040978982
P 0.8362892792817536 8.198242120001868 6.4081605188805995 0.3076396923367089 0.11737780129123655 -0.22776400175598835
Ni 7.83640144205066 4.995498477623595 6.7179290913584255 -0.6134739560335628 -0.313890301232111 0.27663990152108486
P 5.729848918242118 0.087901148695406 7.043460020980884 -0.12456069219292097 0.3685226438650105 -0.7300320896369814
P 7.8180447451315525 5.605838009220379 4.30820759915182 -1.7638497879719042 -1.5985887898461437 -1.9283728794903756
P 2.1888962077395324 7.214741488665681 11.155461959614563 0.851264745897934 -1.196996617120674 0.3414566408861539
Ni 1.415474716557052 3.5607405142279807 9.205928456364312 -1.539633137247542 -1.9471846128802404 1.3706394115522265
Ni 4.777309732234261 7.582535937881509 5.944522278194471 1.06481594648865 -0.6191126423765789 0.5191237259857511
Ni 5.099492238880471 2.743275793705852 10.23414658851619 0.505210972559401 0.6230202049611012 0.9071715843678828
Ni 7.940404377069114 0.34380964956814775 6.678292937081215 -1.398759052606578 0.4899918416168013 -1.3844128111872351
Ni 7.489816729604936 7.220493437175567 5.7444507945470376 -3.5733610825366653 1.6789637886607862 -0.21258652268460163
Ni 3.8851155498915158 0.39430295067382565 5.139697166375564 -1.0252276426730667 -0.09008245591039325 0.11417009298721628
Ni 8.67123209324139 7.010671162346065 7.694454911766279 1.2802929033471693 0.4003081638067235 0.08812456085307403
Ni 2.064619259632009 4.480327548644916 13.111145552627216 0.3610664446972814 0.5085374658294726 -1.8726197929894715
Ni 1.177250475879695 1.8711262804127078 12.815610071238844 -1.085584032273937 -0.36638657135861413 0.4218038717866542
Ni 4.174795419264163 6.836094479502176 9.028211594932012 -1.8735639020702959 0.6303473347501338 -0.7588443858829834
Ni 6.258459407933687 9.25100465125773 4.273311527482358 0.036877075532007454 -0.22953523472379822 1.3161297105401204
Ni 7.3475775563261925 8.646738149826088 2.1871733753150404 1.3876189768293585 0.32787787376045474 -0.37226128497183636
Ni 9.155340665514373 8.642701694731432 11.897946774624975 -1.0745298313423042 -0.20515989120322733 0.8609714316627366
Ni 3.5684097789078275 2.1805205634181206 13.361352560678757 0.33951982887475723 0.2108829097299336 -0.5474678243460829
Ni 6.7884734831468085 3.4444539124555615 1.1122718052411478 -0.07117584881387742 -1.1054807711978638 -0.37479947801265767
Ni 1.2071844599112036 6.7978765887650425 13.151909162202456 1.1338829764896408 -0.5563432724588419 -0.20246691775209646
Ni 5.40884065307799 7.609772836008861 1.6453645948401021 -0.9750559069146821 0.5556804420638624 -3.0880643324026877
Ni 5.018194363769458 5.4436550782694 1.6064137205528257 -1.2807341046496457 -1.9308277687887716 1.053210758149554
Ni 4.772897152914874 7.6852270249942 11.172420575269067 0.40249720103824227 0.04135645145959974 0.31782408906887843
Ni 6.469015583689492 1.619288177552464 8.780918173557888 1.9833312380041264 0.7125637576488889 -1.4160872594723806
Ni 3.8732630499317517 3.8741345572817347 8.628538324229977 -0.8884572957878312 -0.029580284760278092 0.4650788804252055
Ni 0.5639579104307074 1.1774064298265337 10.55156791290302 -0.20717769296420446 0.8989448255827163 -0.8618489491716835
Ni 2.5221055758034177 7.68031906254956 1.4622783307557512 1.8803729545723296 -0.4080006473549747 1.448303182083293
Ni 8.9276203818447 2.716974619259534 7.378872926575989 -1.0358295865586291 -0.43406340588029757 0.8167129760649935
Ni 5.623011290895826 0.9306230695961892 1.0733934036703436 0.5786866731510485 0.7065921134464863 0.24348912580072904
P 3.3506246790279577 1.7221627398967294 9.268536627010906 -0.26952488774285843 -0.6349141281852098 -1.7250646967839065
Ni 4.332318079333129 9.172357993242981 2.7306471935165244 -0.24336982661404538 0.149382122111975 2.2658201421068203
P 8.620235152625037 7.2233464770265625 1.0016041324357219 -1.0535799685635143 0.5155897446905636 -0.7134335618483519
Ni 0.3778599004200481 0.2697645503613077 8.233591375493322 1.256012947753882 0.049001369599367225 0.3344894655397014
P 7.27385720827924 7.573820864381682 11.063623432449551 -0.599703898832664 0.03139471226119754 -1.1187443210759893
P 2.9517311780601183 2.6188245441283318 5.193955379233167 0.07113214006013556 0.040379946478943364 2.0225858126293748
P 5.126536488014668 3.9649639706730824 -0.06116146844562314 -1.2706656646700503 -0.8878556576480904 -0.4982353125725161
Ni 4.070471402590453 0.828533781243066 11.13498612377076 1.746786147621398 -0.6246615972192662 0.6266022658854047
Ni 6.490298710552225 8.31570296325637 12.937255984525578 0.16508744866237376 0.849023515272241 0.38159361811635567
Ni 5.4635804884184775 5.530475557850829 10.305536801122134 1.1091993577000314 -0.06336586585115539 -1.2717750956841452
Ni 5.815531851387779 5.232667735719395 5.641212951244253 -0.18406116155139912 0.1620113808402113 0.39012222441265715
Ni 0.7791615138023131 8.97328736698379 0.9469606215918109 -1.7252724419193384 0.6153742583800693 -0.24801452447490832
Ni 0.5075612937490946 6.720422519755534 2.7333461141729973 -0.015822054633921136 -0.21978304043304087 0.6418630486992172
Ni 2.0013753473080067 2.63250262264227 3.3389455631620324 -0.437737255187459 1.2920610996266908 0.22840189245030343
Ni 8.271861556671455 6.261651876963097 12.436117241257776 -0.7432069364560426 1.6472610582408662 0.38337642104839137
Ni 7.207338263071618 0.6533360347402946 10.892177754432494 -0.23432725679580288 0.5909166395583371 0.7806465693597394
Ni 2.2979905804342002 9.062208637966755 12.225464741005394 0.1846085494144369 -0.23840245530644102 1.0196948857802954
Ni 3.7339136115503186 6.6331616996183245 13.100081996163226 -1.1747398626050025 0.9436925621120522 0.3527116449746829
Ni 7.922616453367889 1.2311921939628303 0.23829854814614534 0.7601399647659554 -0.03407508730683809 0.167057427904551
Ni 6.146273477586977 6.593943868869106 7.88536914660579 0.7107914962398146 0.7262363700399751 -0.7449324037875816
Ni 0.6545689882964805 4.8932110360203716 7.673991919188686 -0.025085996434350343 0.8026115036666048 0.22867211539255455
Ni 8.85982628377763 8.674066785569227 4.225028185541004 -1.0100468211675702 0.13860765720429033 0.9240886718381955
Ni 2.5418750320056556 1.0429374326050034 1.974990691631322 -0.48360933512922516 -0.16478277293776136 -2.0524455763032847
Ni 1.8943175496838247 8.578109239455351 3.7577919955636845 0.9960093692378975 0.6223530036907475 -1.4382550538186714
Ni 6.024822048045713 2.0520695537922595 12.464299954203899 -0.38025895846533214 0.8531624771412791 -0.4714886406062912
Ni 8.681947046765387 3.9437725814261357 2.6789007565791874 1.0945718375948439 -0.6828369200084174 0.37252559437681654
Ni 2.221013547026787 8.788124163278008 9.673030709422582 0.15339432859516164 -0.27188336067270596 0.9970959174338571
Ni 5.976329544340364 6.7743917591234055 3.561224888839339 0.08308494154663755 -0.3783064627246517 2.1648068982165363
Ni 1.506542647749448 4.838608807103565 3.993404466319568 0.9111596224813534 1.1045482320812654 -1.0355351952466616
Ni 4.014447240628938 4.49849159657087 4.4111362866894 -1.1210323457792177 0.7003206786154779 -1.1539316676104
Ni 4.3950390872471425 2.9440710871418503 2.1010684491367564 0.4954060706538371 0.12134449924846845 0.3168159595193382
Ni 9.081225845719535 3.743711188916439 5.110105363650943 -0.4751730314364139 -0.9189832322908301 0.5677245177125899
P 8.286530401435899 3.4083459868815438 9.531633687456768 0.03978036522173149 0.008680044272501181 0.23023148945987446
Ni 5.950698054489296 5.973632458436207 12.995957967491934 -0.21746107716808352 1.3722453225867657 0.26319894552483064
P 8.125200630311747 1.7797831363729495 4.819242079034635 0.0062536942191956804 -0.8117898277317632 -0.18005743970864474
Ni 2.053574050691177 6.832360758539618 7.646695391611073 0.22145271482597992 0.12829830485848226 0.5986397192342077
P 1.3585790472455546 3.118299167045746 1.0295281453053233 -0.42308376694034233 -0.7663736043804931 2.9238163489224744
P 4.4790157007391525 5.371677744922414 7.330550137459847 -0.8289020619320178 0.5630862476096303 -1.098760935975527
P 4.013181261531068 9.066446915816146 0.18707042873800847 -0.08356239540368834 -0.8199934465884781 -0.08344386754795306
Ni 3.9854031114705695 4.860754267554703 11.69739183374234 -0.8244162582465221 -1.7267513404577102 0.4213701266833453
