# total energy = -340861.58904909325 ev
CRYSTAL
PRIMVEC
9.31895338837866 0.00000000000000 0.00000000000000
0.00000000000000 9.31895338837866 0.00000000000000
0.00000000000000 0.00000000000000 13.63923025813818
PRIMCOORD
 96 1
Ni 7.741757910022039 1.7396436046375874 10.897649475398426 0.46321303086106036 -0.9183443131552507 0.049857804062391556
Ni 0.13633256237160268 0.13897355379830692 6.974856494135168 1.0423925844881274 -0.5075429631266871 -0.7397176923558615
Ni 5.560200210657066 2.1656409267580194 10.625110156527697 -1.156187553524112 2.7180954430094544 -0.48749247223371517
Ni 4.289998889435941 7.59487256468784 10.220734670357299 -0.6903540543210691 1.6163054903996164 0.501094379287866
Ni 1.280051455088543 8.099959845306644 0.4897426917577914 -0.6199690768396032 -0.24282989495017532 0.28649288305576465
Ni 0.9393784713693243 5.182018439032115 10.997434033971894 0.028528189346679902 -1.1829419387998208 -0.015868334490824285
Ni 6.364416580216516 5.646661461387348 2.497670581090265 0.29601650627548376 1.6677324387213406 -0.2197136206476861
Ni 3.596780575216907 7.740033903621403 12.666876097975576 -0.1468364728719858 -0.10185810838908263 -0.3509859205328278
Ni 6.018301327643397 1.4864569565355155 6.363901242087029 0.8433385490723219 0.9357041445899369 0.6907381771333653
Ni 9.03184587804834 6.559639337443145 2.132780432866543 0.3420685634385399 -1.0063544599176475 0.8192110598964989
Ni 8.140497293105387 3.935291561720193 9.205430025208607 0.8023927027875793 -0.838092470182034 -1.0060184167344675
Ni 5.030576125428126 4.508360608245163 0.9162823769729102 -0.8570605266441046 -0.3660253313644535 1.545783473119654
Ni 6.656202333785805 1.9430577220056182 8.59315148176106 -0.2079747349442031 1.988555462517543 -0.7175807512475061
Ni 7.171633652808426 4.157669749495221 11.26334478120601 -1.2624862141830515 -0.9284155813483237 1.989393385037806
Ni 6.56039417267802 4.212865911176128 6.905187997642433 0.5552505536152954 -0.0844324567134675 1.1237307185469874
Ni 7.071212609709749 8.303588298605566 2.178703303902731 -1.3907413245084241 -0.980148748056557 2.8474368444204705
Ni 2.577958025115566 7.5943134274768225 7.394426534014958 0.10343085219284123 -1.6833997129449523 -0.9093428809875888
Ni 5.137175634708541 0.42251110160974037 11.666615971384651 -1.4110586959095377 -2.324200381817926 2.3204139181923003
Ni 1.3394038700380109 5.000466586614854 0.4416242752730091 -3.3792525640515927 -0.6329174094701552 0.8739994684912884
Ni 3.325170356011821 4.266524445526739 4.274016884154368 -0.2962113958951092 0.27910918899718384 0.20547125179605905
Ni 1.327475609536312 5.80325715628621 3.848704505117432 0.1276267327127544 -0.5696453888843866 -0.001462957698771674
Ni 3.8176024977546046 7.472440153382123 5.360408370521074 -1.132429788982882 2.076641456823198 -0.522912503604222
Ni 7.905193716802346 5.429893283629523 4.9647749946449276 0.3208459066143377 -0.47031878866790616 1.0752877925542512
Ni 4.228428563549438 3.2689677473510823 6.858391940661707 -0.35104068503016317 0.06894310282861675 0.2570658360438992
P 6.325919983237987 6.445435562092898 6.768495723665078 0.7566903156544581 -1.623490952404462 0.41461378179611824
P 8.94406133591865 2.017096807697803 3.2705240125884134 -0.977999048703406 -0.7397017515162616 -4.064246125391698
P 5.048207585482199 0.08194808154202184 5.291258007843883 -0.817493820095076 0.2827056480991905 -0.5111926440641326
P 5.435987879229611 3.6546046817895945 8.89348737518215 -0.3917008817536867 0.9332621108073477 -0.7171320937458617
P 8.198694157818752 4.20723726325189 0.5940609212172568 0.34745039657574356 0.35591035441763863 0.6104485389436778
P 6.2409404461169 -0.047279710668256564 0.1585004889977284 -0.3649873770182424 -0.12665382727652383 -0.07552486981119251
P 5.237065497456751 3.6573817299376468 12.540045140609857 -1.6821313877554902 -0.600299623435134 -1.6598643488271738
P 8.08594413921715 5.739944186092038 10.352243742388525 0.6142807682055743 1.7936884685998915 -0.5574326488682787
Ni 9.258781034093158 8.998046033642353 10.18884614331764 -1.8328237440384563 0.08678115945130216 -0.9562457161867146
Ni 1.4325188535793965 3.1416335664954484 2.978685140984079 -0.03503899388200417 0.5722134067218791 0.3893285248667682
Ni 0.31342809121705734 3.174203309037196 12.785605157153656 -0.4588418983765581 0.227801282751827 -0.2890979247787795
Ni 1.6537974048394246 0.7030237171095711 2.4034233446965696 -1.0626870730711053 0.9076765490287594 -0.06987049973889257
Ni 3.087919118423737 6.215769952667613 0.93923868706657 1.0755073647642253 0.8146170127679131 -0.19219793172592062
Ni 3.256116910451205 -0.07164784221973465 0.9114290659812815 2.3615374277054877 0.14533366307421422 0.9589934541351807
Ni 5.15674543709414 5.731585084787332 12.668226414340184 -1.3546049837971832 1.440607098990616 -1.9507072813215178
Ni 6.945453331998481 2.6294732001572774 13.166986125520976 2.1036220991771 -1.0563408191381034 -0.6975621420337341
Ni 0.8970210319487218 6.720186268633197 9.066978332807249 -0.46581473014996555 0.45791630123849525 0.8574626471785297
Ni 5.293053770186599 5.414032424743671 5.166090483680939 -0.7788614524348586 -0.09965313031796386 -0.4021758131430816
Ni 5.048841274321352 2.502632923838042 4.381971369276148 0.36426052615454685 -1.8646452594244274 2.7390201089772637
Ni 6.64725613840953 2.7523715591388416 1.8072665908333505 0.6200289835432612 0.6479226246297357 1.9305524036401975
Ni 2.27818592838225 9.10085272884137 8.849159908988065 -0.702888182232338 1.8951508842124525 2.094642778496625
Ni 3.8903555678614494 3.850377257273725 10.496819851041225 -0.11559139881477513 1.5508313199562065 -0.6927714055133101
Ni 2.821741849119033 1.7504815475778026 10.797919898650706 -0.3535739929749781 -0.2422745366673376 -0.7431120627493912
Ni 9.032255912003086 1.5208904897806532 8.860330538568835 1.0043209744273864 0.7266919695201549 0.039088995581661706
Ni 8.228347067909693 7.713968790634487 0.4800733455886019 0.1957270279251016 1.2444337275567148 -2.2377889470012167
Ni 3.6132751229419124 9.152200162719776 3.558898097275145 -1.9177395681462455 -0.06278813897081445 0.9674413277922176
Ni 2.900859764477957 4.290315733855517 12.649240910340097 1.1691196882047477 0.08473456133491858 -0.6660347608494143
Ni 7.248869139556924 5.9358472269254055 13.326932916104536 0.7238339312460695 -1.04021408877957 -0.06272514694336294
Ni 0.6735683688331888 6.856093886724427 5.944945321244006 -0.27052478976228245 1.3577646124720872 -0.4464836339215214
Ni 7.168763415125205 9.196297450761993 8.763628689818775 -0.10154777623751543 -2.1894766330490745 0.6605809368236946
Ni 5.597429429957289 7.61890614580806 4.18860774327615 3.7058636552844826 1.7333688457742278 -0.7167132610408883
Ni 5.8965398809909 6.112720964677156 10.406841627253646 1.5611401580813822 -0.8663080133843015 0.3133881647847119
P 2.9795303700680664 4.088923829400666 1.7727594378554283 -0.12481471718525602 2.5470906004213814 -0.03286255505597566
P 1.472869922307799 6.668792239987207 12.475312893795055 1.4603570279240334 -1.3566865489165603 1.5116291958354484
P 1.6588482776456124 8.959055532127426 5.253163057761934 0.09167191188470018 0.5334522267932813 0.3167753360893899
P 0.42622843216765255 1.1233905275150609 13.52059661240778 3.3329989324006926 1.4377755430790917 2.237919301931494
P 2.8690169003105312 6.265141768400426 9.457087433038547 -0.014430316492717084 -0.7888087934555577 0.20132920460322745
P 0.2651223637665843 2.708786813540057 10.641286927937776 1.057903792749849 0.7853234060101184 -0.4051048138644185
P 2.133574407706187 7.720669118213176 2.5983693290037464 -0.8305102869594019 -0.22885003573131554 -0.8554165632827784
P 2.7496317868048576 5.9318773527271835 5.793644655733475 -1.5022973769115613 -3.9592867523694717 0.4810261477830812
Ni 4.878341700775196 2.0204982257314903 0.4463275511130149 -0.3936451499642511 -1.3196616349527788 -0.4762084146794637
Ni 3.7846134023045934 0.7518615568058621 7.286431977393055 0.139120849395283 0.667645814090276 -0.10824704263456196
Ni 8.363108454718338 4.386151851823853 2.8838647889490914 0.8288380414633016 -1.3487654942972707 -0.9919380273820014
Ni 3.7848836519565854 2.4077007443608505 2.6710935103546887 -1.5818395954122628 -0.8955735951176382 -1.4642563629784395
Ni 5.323536067140549 7.2474992533899325 0.8752892323471895 -0.08574937575267812 0.8336909986802288 -0.19151993182228952
Ni 2.6616608656048295 1.7033835565031268 4.904407745657463 1.1197563072802714 -0.2724114652620341 0.1945134672329747
Ni 7.437512715600587 0.5882980803623735 4.3657945978660715 -0.4529373599666651 -1.4616096693842118 -0.9770765368891365
Ni 7.252494212475019 8.46877606864706 6.3890381873036555 0.6589850530914845 -0.47574201656600645 -0.4559041559044729
Ni 4.639114845041518 5.700245444109822 8.40108412219527 0.6314161423342802 -0.7347806600655604 -0.9391676776585052
Ni 7.769136995454844 2.8195425760890327 4.815793816664765 -2.514661019137766 2.81388523371727 0.9084558503969451
Ni 5.049689299091395 8.057884770177607 7.142729054684896 -0.1216489178627647 0.6533083144216812 2.3952214502214946
Ni 2.1369944636469085 4.723824132510614 7.837784134642121 1.5610954208863759 2.345238176324832 0.044465686512542776
Ni 3.9955572341143224 6.788838999192583 3.0703817798001847 -1.3521950888041099 -1.9676973881216113 -1.2706142426068248
Ni 2.5081590632735944 2.4163207763640315 0.48119627948739463 -1.5303247153624226 -0.19248049596334593 0.4141005896051256
Ni 0.8963733646792936 3.043831149335036 7.346499156077273 -2.730349577786459 -2.365798516974687 -0.1741739843446742
Ni 8.242735532139868 0.2925322017459956 12.676587379435594 -1.4758214421082196 -0.18572672217928013 -0.8886796962112824
Ni 5.314161199902496 0.7385606144511162 2.639040969733132 2.773068199700908 -0.30472740378592034 -1.3586696407848602
Ni 8.210240341226255 0.7735942883027461 1.443071636541993 0.8524389687116931 1.3182470139934395 0.48489051583449394
Ni 6.96955214579332 8.315199714687688 11.541066370127513 -2.732639145151584 -0.9968627183771285 -1.4324096507814879
Ni 1.6989943293966423 8.240126225155121 11.12287460347288 2.4312662596601933 0.5404888219250885 0.36933974044966716
Ni 0.18182862533671462 8.490237618596598 3.4695339925243327 -0.3647670334773202 -0.40385268662487217 1.0102543091926859
Ni 8.865949867539559 5.583292577472073 7.530778666188946 -1.0105857243901755 -0.8905128927652793 0.04343184593138971
Ni 0.4042021536349845 1.7688305670526814 5.082522768017672 1.7354666088435207 -1.2597976116072949 2.5077486082886487
Ni 8.837238171753828 7.226158849836112 11.733052654797707 1.0489306427169611 -1.2021956448231101 0.16652572377079708
P 6.122412676334787 4.000449684710722 3.714344765205368 1.6952771811088285 1.2253664265126187 -0.3181886714971488
P 5.045663511172071 0.1671810941987693 9.440925571954097 0.0009034856508758633 0.5153215786308415 -0.9963466979726583
P 8.156684315364332 1.9625250159025311 6.829872215318427 -0.023950854388642622 -0.07730484452975073 0.08866500673757634
P 2.6298366393444383 2.412863444609242 8.267187534272999 1.562523154471838 -0.7017347853541851 1.1815116341111973
P 2.5777902839522606 0.7914531308226331 12.747688199083882 0.4987834717665023 -1.591263459829324 -1.7211576484200162
P 0.45594377924715773 4.342604382039136 5.803997081195457 -1.004170564892451 1.7795168050852 -1.7332207502321373
P 7.665435680718201 7.398978842807989 4.315165655303821 1.8161578533470013 1.4431704888424177 -1.2489827803799782
P 8.690082576767638 7.789126150748707 8.106244547558477 -0.3916540876761513 0.28142729560739915 -0.399221615610764
