# total energy = -381167.8380078848 ev
CRYSTAL
PRIMVEC
9.24486326286386 0.00000000000000 0.00000000000000

0.00000000000000 9.24486326286386 0.00000000000000

0.00000000000000 0.00000000000000 13.53079187029694

PRIMCOORD
 96 1
Ni 3.100209477378638 6.399701230552799 13.283909111984563 -0.36738673048835435 -1.1997266144573273 -1.0872853312357598
Ni 1.029803825636246 5.732933946399871 5.3909655241553 0.4836728413773089 -0.2978147358264871 1.5916666088050138
Ni 8.941641140828809 6.075798195909454 9.536421447020288 0.0018241976929323422 -0.7465514274482433 0.04923559709736037
Ni 4.158663134741101 4.964519388987907 3.3176958137266275 -0.7479110267999314 1.1670129262743902 0.5264236020812739
Ni 6.689814289410625 8.592444159879259 7.474355586565478 -1.9289279806628972 -0.6966370591163035 -0.8584527790059409
Ni 6.2435369977295485 3.4348827779016355 12.449370668989582 -0.05609298633882598 -1.2117344375514807 1.0614863678947848
Ni 1.1184898003860348 2.12148352211585 0.9416309408060454 -0.8539664610998132 0.2917605592126072 -0.0036321974359485834
Ni 5.948330019129501 2.655170997395307 10.227086703103604 0.0925057206399052 -1.197636564697518 -0.8782800981445132
Ni 3.0360223906812767 1.6504299964798652 5.784345556342648 0.462936380160906 0.16758039028755656 -0.3010769515175266
Ni 1.7364626954292595 8.025632338980236 6.138162195541178 -0.7667646691713246 0.9417297819587265 0.10775827592360153
Ni 6.872714667232978 9.223849841465947 0.6429358752391361 -0.75428273465423 -0.3772039736890923 -0.2103208665788765
Ni 4.51951788845824 5.068930876408331 12.103726489050805 -1.0947253324535726 0.8625032949262308 -0.09120782776408808
Ni 5.813003708445938 6.653278589190553 4.8097095286551035 -1.3733591244762349 0.7128807746686755 -0.44770336526123544
Ni 6.375461198676019 4.82996964683129 10.431726377248705 1.1890624498752618 0.4998430233792682 0.18967747929691203
Ni 4.056867943667409 2.691087291766508 3.39810948469177 -0.4260580190773178 2.4842988619061406 0.6931156762266064
Ni 8.359399642888466 6.926926546304464 0.7480296335796607 -3.366493978834344 -0.3573087774270621 0.7932827700665113
Ni 6.766056678002465 4.461293738664206 7.919545682308833 0.8951097681073423 -0.9259869173021729 2.453381603501994
Ni 1.6731538707564193 1.108033859862527 10.19089213834358 -0.8283536456277154 0.1754158271715753 0.292751719481283
Ni 0.722452794452926 1.6116015701326212 8.073418113491254 -0.11119455529866012 -0.6429976765242926 -0.9700006038789618
Ni 9.011125534263543 4.342164428685494 7.213711454332527 0.3675949898444185 -0.7834858385807474 1.1133216073985213
Ni 8.1026975204161 7.982486561417716 5.541739077120674 -0.6777582199339296 0.590500377956525 -1.2048582792569378
Ni 1.7990596656190667 5.661942640228327 7.966551190347538 -0.5117883686666025 0.360135962463212 -1.253529776320712
Ni 6.012480126373198 9.363567462272114 5.218921389442368 1.4681528698193684 0.21805705888086963 0.03292837529690458
Ni 2.5452957956960214 3.912278279841004 13.35926214471578 0.21507329366219735 0.8679712600193374 2.1004002498056926
P 8.885820655522938 1.8908149350229715 10.577899686178272 -0.5364110523112892 0.0402696461533242 -0.20539591847343336
Ni 3.6356257421168885 2.24073301531897 9.336125009708029 -0.02763164567433951 1.9922509090912592 1.597727470287113
P 7.658232221964562 6.120968598560081 4.3405160695384195 2.9009258174775456 -1.7573878343966445 -0.38582359703730323
Ni 4.01091172762642 4.250566321959662 5.678778460995223 0.6133366591247502 0.5688414049258526 0.018878067851425553
P 1.554486803948508 8.589226947410488 2.7488750840073064 -0.4524701905222594 -0.6247500431680144 1.0840961348745006
P 2.1646755239954514 4.359618730814922 2.1801486518948283 -0.14533212041231747 -0.817567867866121 -0.4938865486855172
P 6.492584373293457 6.488461164209917 8.992320557589037 0.8206899584348705 0.3314049130771066 -0.9262172881454241
Ni 8.09537558859062 2.0069489092548958 13.324271261172523 0.8521150097133712 1.0461890754160823 1.3693263491677579
Ni 6.75663616218155 6.22469596608772 2.3970608822246837 -1.054984819330841 -0.6888651284803684 -0.96685408783018
Ni 4.218227789730457 8.424317073795692 12.660626891881522 0.5217925310671658 -0.9672986315667663 0.8341067460614087
Ni 6.283382359052554 5.711550577318639 13.166868216651526 0.7717520950835869 1.046928524685268 0.7533944185120056
Ni 6.5350645206900255 4.080368386470907 5.712443631124626 -0.572147329370634 -0.48257446610680754 -1.231655344845124
Ni 5.658448081857075 5.979013720807239 6.885400468812429 -1.7321560564130491 1.9491453361510365 0.8510284615174118
Ni 0.06664067344797037 4.4991699440796005 0.22460395669197603 2.9177313190706586 0.35573911894709703 -1.280940050012865
Ni 2.56316611667917 1.1408808595796125 12.428681589150893 2.6802596031086035 -0.08701307295645015 1.040938368540104
Ni 4.215158495076341 8.762410973782613 6.383246298158642 -0.34219300483154613 0.01028235576261455 0.3040887417606569
Ni 0.7495624319340353 0.005449846983738212 12.597032400929127 -2.1989856009807744 1.010999929109459 1.0448860403339424
Ni 7.135832724916054 8.311243149354466 3.148371517830687 -0.6165410249946608 1.0230470900819801 -0.22694973338480914
Ni 3.34248036805861 8.673198041818111 10.082091189773234 0.5455716357646345 -0.3107877510473873 0.30315208887900047
Ni 6.284195907033164 4.0245756357552835 3.090337812223022 0.3906647271796885 -0.6420543387744169 0.7179373632559765
Ni 8.703382520871385 3.870962985234853 5.054211204877358 -0.13086375159281333 1.3831619694992694 -0.4209705772520815
Ni 7.792347455540626 0.009190318721856076 9.234075584890396 1.0492669430104573 0.9532634936299388 1.3185989980162194
Ni 1.005341917037482 7.108199828165599 13.495774571375616 1.4992634751812437 -0.36349613718469653 0.19823513905893603
Ni 4.72239641612259 6.37149515227055 10.23294609753667 -2.1172242633415665 0.019995212175004273 -0.7482570972854404
Ni 7.396306751662151 4.27186648727015 0.9879883839192887 -2.5832343973317897 -1.7696846494861262 0.39306125243632306
Ni 8.21828604770648 6.556956357259139 7.377854004283794 -0.14508915116357593 0.19227172238664952 0.14974901853309047
Ni 3.9736087037428174 3.0295602311534853 11.758691545611143 -0.6126699720750287 -1.7596959137045305 -0.41365527453759077
Ni 7.288992377129102 0.665722614586919 11.65754904189462 0.4107296162503636 -0.057242526562236905 -0.2767859401806459
Ni 8.409432843695914 4.057616777604105 11.580233324660185 -1.1387739860333548 -0.4974598678590723 -0.7339067421010392
Ni 2.188832352101487 6.612656659340602 9.970448370188809 0.155732489810035 -0.3825917203635669 1.1459607335897812
Ni 7.300724108804019 1.9692113767907409 4.295336422024375 -0.5749480320442227 0.2547281890496581 -0.7593745473548406
Ni 4.187368435647813 4.556256975673466 8.374044431025768 -0.29478777607470524 0.4323752195445973 -0.04279909744339726
P 5.21960366036247 2.2824088595983456 5.6371848960002495 0.4056504019552433 -0.7610640192421215 -1.7856848815691244
Ni 2.176277827582545 6.390465612000205 2.9510112491393516 0.9851775687297162 -0.6001155324487858 -0.9338382950257916
P 3.211249531868341 6.4097134176323385 6.18589897227609 -0.07233618767056575 -1.757500448715109 1.5698986210003028
Ni 0.26529799647657126 2.706859028754222 3.351779776168775 -0.7581347614104685 -0.35333873703572055 -2.1138689737160883
P 5.026154893382449 9.69388643212617 8.747562798650158 0.6649754663469645 -0.3892871301058715 0.3447335118652127
P 2.2058613905137787 7.83138851374644 11.873527541019461 0.5617585299371421 0.3137779440239628 -0.8554705564491654
P 7.90005011433715 1.877483841977084 2.1300710757429826 1.4224661664155307 -0.46872933269359923 -0.7817089491859828
Ni 9.085324808040445 0.29440359996919724 3.7900556385632944 -0.13234522123434625 0.647639031951046 0.7740429480002928
Ni 5.304970729145912 2.5356903826067865 7.725973958645379 0.8344718427103113 -0.7661728012235965 -0.08903961646817568
Ni 0.4968171110037231 1.7455319064403658 5.628728619433626 2.2401800729412127 0.26678023511818566 -0.8228748819013312
Ni 9.594504150404056 7.204864120043404 3.894053880589022 -1.650805066838383 0.6092948849552087 -0.4828392897324201
Ni 3.667853335985101 7.487220738495199 4.5385928151444945 -0.28796226851243956 0.7190169694734004 -2.4409503197171767
Ni 4.640033927949354 3.724441144954502 1.261679791891256 0.05523243811074358 1.0815610271574727 -1.096805612021369
Ni 1.8680448364293374 3.825385808593921 4.47926020622688 1.4139779264388617 -0.5919862184734321 -1.2402803675099736
Ni 1.1373123423010325 8.306907308412358 8.59331132806768 0.7575709184871986 -0.3625306879476337 -0.36378847161413475
Ni 4.382490522906132 0.6875515860848029 3.789135774653402 0.12231791890533127 -3.4359890975116887 -0.39466099282327516
Ni 8.63800284679336 6.605436421012698 11.770179212891879 -1.0934073849730976 -1.542948060553388 1.458670641360546
Ni 1.047322841809586 3.6179218286752284 9.182279388629514 0.49197750458826245 0.6276412486728803 1.195595108787457
Ni 9.172531604643671 -0.15544405796314278 1.4895240732105435 -0.03739155327458076 0.6899725026119343 -1.1004871746380145
Ni 7.80700980891842 2.411494887476101 8.647989148255332 0.1329514873597775 1.1612513412002647 1.4890960477299386
Ni 7.803959003991136 1.6436165321422656 6.537496844254778 -1.8507330202187093 -0.6626151936449041 0.6741373353518907
Ni 2.0872313031595313 1.2400320197163255 3.438850673279787 0.22082433721336162 0.40102755847125127 0.45173922589350585
Ni 1.2357424030912967 5.096046060807489 11.555418262278929 1.3645096445054048 0.16510287528134146 -0.004360333851224749
Ni 6.033336538239717 8.16989843258708 10.673169852652943 0.21317247709505865 -0.02658649223927679 -0.8217153143755912
Ni 1.0672085430174245 2.7820752375068833 12.101182302638719 -1.1974673861095053 -0.9282291763691305 -0.8652155516510711
Ni 5.807724891435396 1.7565148041785863 2.0044648144550137 -0.3851260567496464 -0.4417013820415296 -0.1843722650339147
Ni 0.17110947902157264 8.255191542463194 10.640574313220775 0.5231924967384861 0.7825805531576587 -0.6347210383377971
Ni 4.436369586894641 6.326287770166259 1.4469015549173685 1.440673433452177 0.5818558149076495 0.8213126796205338
Ni 2.9701527388422018 8.288768886390145 1.3133826150316363 0.6852766397981618 0.4630389671770413 -0.8112640371352803
Ni 2.092020142409025 3.6267506732375185 6.783513753590918 -0.815768095653221 -0.5790880223545253 1.3338386977841092
Ni 3.324120069314413 1.6786730542157775 1.3001763276418654 1.1523854061692025 -0.6661599735733689 -0.3719170142585401
Ni 3.7579537748375396 7.278564171195842 8.120924693127106 -0.10176554867527636 -0.2233895268373766 0.30166419147956436
P 6.969212551569297 7.638586887205539 12.559633230466 -0.2619257352393618 1.0900045299391357 0.4020863387530688
Ni 2.952837109664014 0.6556854663761562 8.066084163343332 -0.8366775921123785 -1.543654342591793 -1.895363000223258
P 5.085127877113181 8.50852853465213 2.040660303701378 0.6705316202785033 -0.26167813800492995 0.5496776875132081
Ni -0.31724118606576807 5.092902807246046 2.4154766501493765 1.348448477277484 0.3926696734248592 1.975782222012275
P 3.089818250899042 4.260763406307521 10.198523773093498 -1.0390735474172235 0.9594511104978898 0.19231106026501718
P 8.975763931697303 8.916060603756709 7.202441041342069 -0.31103894782624497 1.192279671260979 -0.06910096856271972
P 5.207908908141216 1.381580123478863 13.320929243047635 -0.21713737528007765 0.6844664851920406 0.27634473887816924
Ni 4.700365906602238 0.8636893463183437 11.309509517844758 1.1771155619260307 1.2283213953758845 -1.3613775266343264
