# total energy = -381168.97903223155 ev
CRYSTAL
PRIMVEC
9.27851855653278 0.00000000000000 0.00000000000000

0.00000000000000 9.27851855653278 0.00000000000000

0.00000000000000 0.00000000000000 13.58004979451303

PRIMCOORD
 96 1
Ni 5.438965514576111 2.435722463509899 4.650148548021137 0.7005651905261161 0.856523680304028 0.8188986708624025
Ni 2.998186258452492 4.978472638578076 13.186526654205052 3.3524683539792135 0.6719650102909202 -0.9302626618593914
Ni 6.619944635065854 1.5489744449902083 6.658040376558353 0.021925339318181594 0.6481774209530191 0.31031389673476234
Ni 3.735132594864823 7.424382915463873 8.623833710697458 1.148271384000829 -0.48138481667408056 -0.6192849062883851
Ni 2.1699207423993663 6.578005731186927 4.008043516893947 -0.5425768148023687 0.8397408044187343 0.017838570843317664
Ni 0.9976263152792418 1.2363533192396177 9.31849412663682 -0.7327572018776283 1.6312783096593648 -1.275659518340216
Ni 6.668703250084384 0.5691174206000221 8.862666489769387 2.213921139244684 -0.4750074523928271 -0.054753955812428284
Ni 7.708871572948777 3.0895054380932874 5.4460348178649065 0.6979920304823011 1.6615463645152868 -0.935152642961841
Ni 6.898894016972059 9.111440273623591 11.300706727214896 -0.5413082325025903 1.315997298727314 0.23379555266204893
Ni 4.27079074969542 6.038793903748889 3.108880840544609 3.1170208675360387 0.6178828837345358 0.6490577666754435
Ni 9.170924856094341 5.02714774692959 4.6071268410265755 0.043603595622563614 -1.0486336803018326 -0.5396858664078189
Ni 8.126404908026585 3.0104060673924358 13.072020456689604 0.44965097590590947 0.6923803407224786 -0.5200781194792204
Ni 3.2048467022788927 1.8295382891253804 8.89781166236067 -0.20829637994967995 -0.8022014127123798 -0.8177272762621206
Ni 4.65776992316409 0.20187736751012 4.761613247153509 -0.48132336730852593 -0.743963612116409 0.6009010044645586
Ni 0.6176895373955514 5.455889532424599 2.450357470830304 0.19522643413959928 1.1993589467052634 0.5537271749922335
Ni 2.7327278425285795 4.3388115692388745 3.3805901944205647 -1.2274374501090346 -0.38016948407531953 0.4395722515136688
Ni 8.640323493877464 0.4936663633958951 0.1160306581144113 -0.3282802514051959 0.5563491859961129 0.9738415748916067
Ni 3.4848538353006275 8.44970560863661 2.573758984086622 0.8434354796615022 -0.28511271487878637 0.9706112408797671
Ni 2.2892146554903747 0.7056981416151075 6.846871219125076 1.4019261374806502 2.3871219610428116 -0.9383333546826678
Ni 9.236737388221162 1.627897523838471 11.438924178903488 1.434243104445801 -0.4985227619059479 0.5702030611600696
Ni 8.9427475277336 5.099074822785661 6.890177776639345 0.9212085220769232 -2.77563955997251 0.5440569988923212
Ni 5.020392985419888 0.10882774415839125 7.307465230975385 -2.258927014531413 -0.7536756971978503 1.1466731862757735
Ni 8.306037027295615 4.2787702756546855 1.484530494350588 -0.8000992787677124 -1.3464738700496166 -0.6192602236980367
Ni 8.190306065330603 6.541550431775357 8.29632427406985 -0.09934845459335148 1.6412097098404639 0.8674159017364997
P 0.9838569937402315 7.058373193934667 10.661764743063884 0.4400422491715518 -0.6635533891884572 0.48902562104879
Ni 5.904645082447669 3.5953053202065437 11.82901072823699 0.6965774095229617 -1.004377795807251 -0.12563901285876425
P 8.727671467575743 9.223255700757429 7.821361548381728 -0.10139633826131568 -0.4322764891832039 0.48332574245053533
Ni 7.115250512690821 8.420506110736834 6.452438611699339 0.4454418229205683 -0.37563971452576594 -0.5213706130383988
P 0.06067130499422837 3.3951955104815865 9.642718039843295 -0.118448408647596 -0.32122025923462094 0.27064511739023067
P 4.240199474012053 1.8399951795394403 6.324664132646973 -0.27545205186057076 -0.33923726463733184 0.4808266301777655
P 4.7613181902633865 4.7331950005162575 10.173982816137018 0.4908266788132708 0.052171282686916606 -0.4997869733303521
Ni 8.999856809453686 1.9955402646337594 7.1755627390168835 -0.8216006431745979 -0.18975049862669255 0.24799626964246319
Ni 2.441141118347353 3.933748563102057 9.345138320525917 -2.952458952359831 -1.542002408810667 2.5649888208580407
Ni 5.429854009352858 1.0012263804794683 2.7082696676115767 -0.8517997924657975 -0.32400733506145485 -0.23925554733535567
Ni 2.495902934872447 8.834550722837102 9.955574839965239 0.6071032766205287 -0.897236841752674 0.8550774347758047
Ni 4.581918033958289 7.650008651221364 11.026783518811172 0.3305747038663275 1.1494826307001107 -1.372917666063442
Ni 1.0869784489858927 2.718234796542101 2.106741453839104 -0.5283264755309416 -0.6127139379390867 2.08314043428398
Ni 3.5429188044321145 3.462474048540457 11.577440398889621 0.03359171991251634 0.2942442448664094 -1.172086741252872
Ni 1.8834835960174332 8.838392029519818 12.242632239891046 0.30931887981134476 0.37515069070448936 0.4245300124685656
Ni 7.3122149046248595 2.249678887917785 10.45450583479054 -0.405539844519308 0.2979762011050158 -0.5025303404034442
Ni 1.898180769412172 8.871145200027033 0.9943268740802714 -1.3093463690696998 -0.41788808167201574 -0.07421643541241411
Ni 2.9017267795309616 5.883053969764868 10.636194073771863 0.20327501547568863 0.37637042204420346 1.0956571002392228
Ni 5.130130024396892 3.7609083194169592 2.8196258080768284 -0.04139501800701904 -1.0484274778282978 -1.7026629320499387
Ni 1.6405812587062791 3.1119687315204736 7.240896499586147 0.292497951599264 0.9828967431153396 1.117953449743578
Ni 5.271497533135681 2.6629719400149137 0.5146784965207218 -0.723285000721135 0.2707713585554498 0.06834994932930809
Ni 7.170383469958207 2.028562512179135 1.6550279120999714 1.752279052415169 -0.1167260266398506 0.7733091551580618
Ni 9.168698011640595 0.3178106011796798 2.912526975131641 0.1784381589376669 2.122484483299241 -0.268134435153235
Ni 1.5939195888816948 8.280140682002234 7.96824328069911 -1.9241747822486277 -0.4864802289191171 -0.5758340341936019
Ni 8.531291622310814 7.34275978771544 4.13831670099379 -0.19241853237715895 1.3558306286741681 -0.3210731921337954
Ni 1.324193054421431 3.874700071003498 11.80663094147682 -1.7933339134739503 -0.2705967806507985 -1.530071718811352
Ni 5.434586053817073 5.762785812225344 12.123548949171289 0.2792601127527513 0.5039570455476418 -0.43034224827496853
Ni 5.906927598012761 5.908198755055109 8.440462348449842 -0.8345929416692078 -0.6127977559021446 -0.9106101777357866
Ni 3.2577899291667585 3.647116567830421 5.688926948805648 0.5124982502494335 -1.7423833905680122 -0.44534566366233624
Ni 4.095213343035924 5.646841444333516 5.623199779049554 1.336589006835737 2.293813027775321 -0.4917880142852756
Ni 3.008281286642818 7.797119562947111 5.864979415615276 0.46849536230592215 0.7800973817244888 0.700888892414122
Ni 7.2840546008035005 0.9124996189235783 4.28165403922229 0.43779176257447827 -0.4797645074618382 0.17053458781987402
P 6.089890705443856 4.735217717561745 4.327839721044885 0.17460130169007995 0.7841039317807206 1.1861367915880348
Ni 5.2411289418976885 2.7651191508120596 9.13605989476349 0.939607336299085 1.0774881426396796 -0.1548122919886108
P 1.8638780863058908 5.221115177369626 6.130265251094024 0.23109769411491168 -0.5434772151294511 0.41012412145588073
Ni 7.032050036787651 5.973463854587049 5.76224580244531 -0.32523169438685917 0.3966903645484781 0.4061286271432425
P 5.173664833467672 7.318051092797392 6.794438310757861 -0.4420029724423485 -0.9259532358507602 -0.3081099471049081
P 7.649758131220317 5.430290099725051 13.170394093989502 -0.4884748907516426 -0.359614028521471 -0.8206040835892835
P 6.7088699569188694 1.3556101182563969 12.92665947356376 -0.30682388130363286 -0.19744940993284704 -0.024094321945042376
Ni 1.8741679633859194 0.0988115833758025 3.951264550434499 1.1044875540466592 -0.030160839854096448 0.8057603337082316
Ni 6.085826714315765 7.507332871365997 3.7868779650069433 -0.7656781209753653 0.8962845051417339 0.9071114205539088
Ni 5.646924951000531 4.063787000682401 6.791450627782415 -0.32469279116425376 -0.9504764178031049 -0.9799392031489123
Ni 9.063488889719544 8.716759929752374 10.12209362895726 -1.1390146412892512 0.040590519827852674 -2.7814785352517903
Ni 5.859802002260312 5.128348548833894 0.91522100841643 -0.367907893099147 0.5906474450573506 -0.4252031272761903
Ni 3.69215449690748 4.874850143330321 8.011047870359432 1.2542486567646076 1.399152945610887 -1.8422432375801434
Ni 4.753533513193824 0.12362234199798157 0.5407075246294724 0.2726760317773304 0.8931223053636682 -0.7662483916565385
Ni 3.2611209173288236 2.1098144991852767 3.7190325094642227 0.2675420529848747 -0.7832678090326705 0.802013979291922
Ni 4.774818434764236 0.5479225006596169 10.03888851379481 -0.30792405634634706 -0.7243396672378944 -0.12073797601272108
Ni 8.933450452139201 8.135256614730235 12.202014597054678 -0.9156271713344037 -1.684156902825951 1.2039920746019008
Ni 1.3168723032797336 6.542608182890887 12.916894760634074 -0.025170071507724393 -0.09542520827954533 -0.3519387713644003
Ni 6.693282045742632 7.118785628261148 10.090995746160663 0.6259877722298574 0.34332043356777003 1.1970714362226675
Ni 8.504801451829765 5.58528775222449 11.00133439811225 0.07874749051354826 -0.17950285275675537 0.13101698934122596
Ni 8.531384407496386 6.990677122540719 0.8571523278775199 1.8180463286189656 -0.05901761618478868 -0.34358731407591153
Ni 7.35386617442851 3.9346021868093275 8.26946296284651 1.556430925531171 -0.6258921271922575 0.9995819170805044
Ni 0.42696680489499894 9.11438156400625 5.7917691206427335 -1.251338167986032 1.0252934629139956 -0.19505159912463182
Ni 6.621438476553577 7.667637836480203 13.247351982607332 -0.8680206252000341 -0.1465719063566895 0.3125921512459778
Ni 7.358338420373121 6.005762377684956 2.5918743637178645 -1.108800065379084 -0.5204635278430971 1.2166768691584207
Ni 4.524112863346406 1.5456991279394865 12.081994175960634 0.6106172033110581 -1.614281260880736 0.34590156403138494
Ni 1.4359992030367106 1.884949601949484 13.58643265972773 -0.27926576917970614 -0.48193400430933137 -1.8156685724154085
Ni 3.1137873211577007 1.6075497326423458 1.5824151537225177 1.093724144882568 -0.5627311782630567 -0.877983907060333
Ni 1.2321779858888395 4.229093087298984 0.47781958155190873 -1.7850881285253901 0.15292484515791083 0.6298102312997411
Ni 7.381822350841609 8.624689190108441 2.1110457585978284 -1.919367333557656 -0.11812804919369978 -0.6318565723058086
Ni 1.2728735682810899 2.370587263237761 4.97875841694964 -1.5946292909777635 -0.20850463930574414 -0.7828937135227033
Ni 2.6932199105116617 6.073022358706713 1.632675033043617 -0.97566371570201 1.0971946199296716 -1.805558223454284
P 0.7690388763982665 7.725248158202383 2.574600545719768 0.8659125777180959 -0.8140487989692691 -0.5188632732355127
Ni 1.4653193216777303 6.127255299674041 8.682704055239718 -0.3180038091798523 -0.9488933895867013 -0.23027519821361633
P 3.466500925594319 3.7760786972581197 1.41070874500512 -0.5705866697517334 0.2979268359243192 -0.8680815603449566
Ni 0.6408348019366978 6.88795464359302 5.887670960598973 0.08227607249209702 0.6157514392138298 1.3865956777711668
P 2.457564096193747 1.3358004811365942 11.201205749910287 0.06687645010757515 1.460130256625208 0.06841242713612734
P 5.098750074636156 7.573553658309338 1.5170684032272734 1.301147121088359 -1.4506146038252887 0.27079861224895946
P 8.725722978678712 3.070911286904489 3.4356711919840293 -0.2794912549269509 -0.6589205184021362 0.4589090041690677
Ni 3.9271329793707133 7.401307239811906 13.072454691358084 -1.2473616998367871 -0.4937091425673885 1.8173040511363026
