# total energy = -340887.82453395607 ev
CRYSTAL
PRIMVEC
9.12623844161982 0.00000000000000 0.00000000000000

0.00000000000000 9.12623844161982 0.00000000000000

0.00000000000000 0.00000000000000 13.35717245362820

PRIMCOORD
 96 1
Ni 6.11317421386534 2.0657149107917427 11.543108035001403 1.4250670943734878 -0.398381636207972 -0.04156419659503165
Ni 4.801724645297843 0.23816744066433743 6.1731372499285255 0.22630747181511993 -0.7180042119381699 -0.6308795531045199
Ni 3.2648934959108473 1.7994112774781297 4.941472906990945 -1.424537961342895 0.1453004958434336 0.1590450991230358
Ni 3.613835216943952 4.847574866468769 5.022590563411257 -0.8716255689424731 -0.9101941732442905 -1.0404326325482791
Ni 4.880611849079984 4.722846567753993 2.3084801503067793 0.5360894073058122 0.6654081830090088 0.6596489119277285
Ni 7.316149314113247 5.953255140302816 2.8623889697276077 0.375013908016309 0.28769127423924 -0.3874624181923069
Ni 5.103647986658853 4.739720982352926 11.47576095953746 0.12647487849649833 -0.14370795454533314 0.6756211189862686
Ni 5.596318834527328 7.55772996789819 12.238041876852156 0.2568249236776867 0.22762619062654346 2.043562414881042
Ni 2.011614570206304 6.689359268329183 0.2348628297793868 -1.6451789789008568 -0.20178840362783315 0.07624760690982997
Ni 2.745428012421784 1.7992835101420641 0.46268294147007877 -1.0987514228938302 -0.6761543657819193 -0.5262209991521648
Ni 0.28887008273426346 0.03290373953217619 4.793367748895332 1.4421983547371355 -1.3088956546855264 0.7043750511905095
Ni 8.983503923529417 2.2175755159438513 1.2408398629147401 -0.3423758102663136 0.31253790096927464 0.6495048815151911
Ni 7.065415043323041 0.5952123486754807 4.865056175914012 -1.4634539216818023 0.2836245603690341 -0.26910836903073004
Ni 0.37896521976083375 7.437920711621936 2.284343987900182 1.166331069716017 -0.18161270001090657 -0.2219635930241274
Ni 7.923308821334679 3.7537495761739392 3.956206959031805 0.23616585266643841 -0.03922037895320342 -0.2394596929263618
Ni 7.492915423559833 3.643367724051658 12.994271185556496 1.2874611389608344 -0.3462203808233844 -0.4661831692329778
Ni 8.00102786661565 8.839528388260206 6.913472302026319 0.3033148397091099 0.7375510237218459 0.7198939727617151
Ni 6.504379544421246 0.5766605314787736 0.47391642818172125 0.25638783614026817 -0.16547542812941177 -1.1837217543886387
Ni 1.5155943928852555 6.657946756133658 9.425635488993365 1.3022771209277442 0.9807434442177626 -0.6077954175915468
Ni 9.652092140683472 5.05875602050842 1.3909226768478804 -2.4049736445122516 -1.5639174637162034 -1.405234890138909
Ni 6.56328941258572 1.9226246206367001 7.1526454541502575 -0.8967290488783202 0.19838477726292286 0.19675238386582242
Ni 3.2254955252112287 4.199228645842801 0.5675397689313567 -0.3032294790841552 0.9216075572875547 -0.7914606292561079
Ni 6.154160150027486 5.461296139020991 4.992884657776034 -1.6583581965952925 1.0782139650621108 -2.431838844334212
Ni 5.0266042830113715 2.9073822371230653 9.200407228977143 1.1651961847806256 0.21829308615107565 0.8795185985373047
P -0.030661422784227094 6.039625859483078 12.613805612220721 1.197936355326124 -1.8061326079005153 -0.01948150576337935
P 3.898601230319027 6.126626289105376 12.61226966631645 0.13824281766570387 -0.10537923416846368 -0.0512027481260602
P 2.3841111122669085 8.442381876577254 1.4728689957049603 0.9003491621294107 -0.21836379148801102 0.08001632992364283
P 6.5942364866284375 7.682111469557931 5.883700427796429 -2.516120120181796 -0.4544761652086947 -0.35022821643119684
P 4.519413590022884 1.2029294690564556 12.848304305092322 0.6264073762657791 -1.7783585231110406 -0.5325240585520571
P 4.095381180336441 6.130404551757598 8.283369951100797 -0.0994322725564094 0.6059167125115952 -0.7105955781789246
P 5.054767854375519 1.1486557299434994 3.9644753309228995 -0.0199342770300818 -1.1490761392903113 -0.9658636988924528
P 0.5269426105203808 5.687316556520819 3.5591124669071093 -1.093838044752613 -0.3588748363626013 0.9468300792997694
Ni 1.555877608699042 0.9585835650695232 2.4744964636711138 -0.4950743983460313 0.253788193733892 1.586172932680294
Ni 1.7365497481339154 6.8619455606387705 5.047341834278627 0.4737974912451259 0.1017812324045602 -0.4814362387373064
Ni 5.938251604553413 5.498084005569558 9.279828317699272 0.289572807532669 0.5349480946125174 -0.5876338550420073
Ni 8.722794674287814 2.462560256611111 10.216660406427476 -0.6789458124841274 -0.45909669469984155 0.797405276875317
Ni 2.376718859251692 5.489286311857621 7.161581866684208 -0.6440047776325682 -0.3579677511672996 -0.2771536079327098
Ni 0.5192117740645904 9.262127978535059 9.50687361175911 -0.40128723989054116 -0.032895722286756246 -1.1356642367597796
Ni 1.6477697020449904 1.1124884475986792 11.495329439679717 -0.19757899353217584 0.6681911450707848 0.7745484268818016
Ni 4.2414922553656025 6.998245929505763 1.277473496036199 0.760675011333819 0.789633346239382 0.2214681414449476
Ni 5.842690763414727 7.733811609472998 7.966564452959646 -1.193197297979242 -0.2692698343092588 -0.04451633724482011
Ni 5.269553872539873 3.0556288519121786 4.834026965726682 1.0700499411940798 0.906593857487542 0.34106429054374165
Ni 0.8585636439021526 7.791389046847075 7.238251394561784 0.5000476831909064 -0.7385717516768764 -0.34902365460013435
Ni 4.960110510827581 4.477140854261792 7.028036709157086 0.023524051263869163 -0.18367909562163207 0.48462646353982985
Ni 8.133166670822224 7.309405024016648 9.034791557473756 0.7391875308840044 -1.175804299313775 -0.08770315704493928
Ni 4.748947609264511 0.12287110922268103 10.669428602618874 -0.34624994850973917 1.0321140853802548 -0.7203621706473852
Ni 8.30130848508439 6.9616132090081315 4.9637655692628835 0.9632859108629473 0.050417533220603494 -0.6568731489548042
Ni 7.2562629384517 5.67219437967364 6.919776707437322 1.1035809830719896 3.326216619371536 2.5156794330999515
Ni 2.4010767892487457 5.702794656661321 2.2959781164727726 1.1189487237773117 -0.19989144371543638 2.536165725978761
Ni 2.0912044943368056 5.454049905818421 11.536256055292977 0.21833628068418529 -0.4856009116379572 -0.04081703401636196
Ni 1.1709511300869249 2.8731223385809366 4.2892681128158 0.09457134491968229 -0.0164889987939587 -1.362914789214459
Ni 3.827106279552103 2.6200061195969386 2.5059527818104335 -0.21163932827998388 0.02492041739076353 1.123366136118717
Ni 1.0936427655290215 3.3161555763879744 8.32444349915053 -0.13399612657420795 1.1356945757770829 0.4516849756168027
Ni 3.8739877656498423 2.233290898279905 7.231345570047446 -1.2322888646640646 1.4999515023872039 -1.2179737335929735
Ni 4.157120182370937 6.946554915828987 5.959315875151465 0.702578621411719 0.4082065927181937 0.03827626987237925
Ni 0.7407959271314581 7.862546326797254 11.551028697213633 0.505837036179174 -1.191012374512781 -0.615435707745624
P 0.2647083668604529 5.489623982674365 7.992263939985387 -0.6603225409559854 1.181188960664456 0.5623308575008444
P 8.497705133093605 1.5018046468284747 8.177701801055504 0.9991990798197888 1.1123019078847554 -0.3105658648445684
P 1.69932382214741 3.160142532813738 10.631748189965508 0.4114045308302011 0.6782886385161028 -0.2855521164090502
P 4.009895706270347 6.4523508599277255 3.512562263259311 0.34360814001151785 -0.4194186593839293 1.7563131132752268
P 6.789729637046905 3.7609045469936055 10.360237125083396 0.5726147559253558 0.5029669137202306 0.5477701860778501
P 6.3899638949746125 7.647176229382315 10.298740880987426 0.06801210637391514 -0.4514497196775451 -0.41544424811721353
P 2.2757917899982565 9.04147378914998 5.667153958265857 0.1041510181883174 -0.7586983472234224 2.0601629995522
P 6.9360232368418755 4.004091418717658 1.912212495371193 0.20120296343800834 0.714147557196241 -1.4818421943810027
Ni 5.2941399584941875 3.0144877696990955 0.43901586771160744 0.14649940124754124 0.299610137164013 0.3560365955828578
Ni 1.526801413505856 1.2732471350839192 7.3983776337335 -0.2319307315391683 -1.3306073353310053 -1.7033280764377634
Ni 6.98535055480144 0.32458379103605106 9.237833932206035 -1.508889685417098 1.6577223627835065 -1.514520144229998
Ni 2.8955546322987185 1.5862588559677542 9.409927407647944 0.19239025024238476 -0.054375489427087 0.0303169058159865
Ni 6.590522107644248 2.0115324340616905 2.5568562011227485 -0.1169941926995727 -0.16739295686709882 0.6504561896848668
Ni 4.219780934472762 6.881603477916273 10.403834990644254 -1.3462093035343203 -0.2344218733921382 -0.8121371837688529
Ni 7.987867831000906 7.709499310667395 -0.151406118485247 -0.7965118185267702 0.6583934422540726 0.9696064537643365
Ni 7.6564849924385125 3.961325866088885 8.39824191246195 0.6191717777492884 -1.4088606598169542 -0.15894174077595208
Ni 3.1447100638646868 8.315499785625947 12.38726773700983 0.6790082902909468 1.1991149490152575 -0.1969858400328672
Ni 9.25446193837113 4.982880475362108 10.213147717309504 -0.33668750163228467 -1.2879707316074012 -0.05938528393685256
Ni 8.573817960435468 2.312835191218954 5.972031462961466 0.9647740653726997 0.050527319325590396 0.13579024236015325
Ni 3.824915982362409 2.8234664760429187 11.614034421122835 -2.00389697797062 -0.09403038481454774 -0.36632332222084657
Ni 1.1094859152011405 3.497785970843339 12.733098323409742 -0.6057758160583567 -0.1168394122892633 -0.055974715593406825
Ni 3.1325721669384667 8.263370712511234 7.949467358146427 0.6150240741295021 0.10274153943530048 0.42065690266640454
Ni 5.6323127183446315 7.979599459109811 3.769460395390847 0.5991493118807746 -0.41188969799673575 0.05276469329654138
Ni 3.302566607573582 8.60701008909762 3.8507925184109837 -0.2088273127524855 -0.09569954498685454 -1.0348687653072566
Ni 3.1870649357703917 4.4263350856991845 9.46748385467395 -0.04624257590730746 0.09089621006094023 0.1839575460939993
Ni 7.35006241560034 5.921705734532934 11.255929044222347 0.02047369447331958 -0.3315105854170355 0.797221185888969
Ni 0.7603133003392887 -0.050739147023087586 0.19808591471676862 -0.02327825380165023 1.0503915435332039 0.3878501405490288
Ni 4.6322960314367325 0.49138039777421366 1.752099945556913 -1.3809027411514476 -1.2207407548151494 0.772831701301011
Ni 6.619534419169401 5.713034296023141 0.31920204831620747 -0.9665224155223741 0.33986744202216307 1.1470254274088698
Ni 7.965362527376801 9.203993840625268 11.170723745671769 -0.11737677284997206 -0.05999386405512893 1.9172839686660654
Ni 0.18123157784207425 4.853497795119233 5.890219299807256 0.5538657574526268 -0.42965293551742784 -0.7360271308781517
Ni 7.923655618389714 9.029810456614861 2.362001887384607 -0.016494912331229655 0.3697485458523116 0.13227477300772703
P 8.61421981734703 1.531072493025759 3.6728883670495867 -0.4521881405054664 1.9019758775540854 -1.3416026580002443
P 1.7638098219073137 3.1898484384489607 2.0356065380479134 0.1708958278140347 0.5853556005307918 -0.6171539759883112
P 4.972604331047127 0.8651409238380373 8.34160721550327 0.0835809073464496 -0.9774208076024327 1.0083956587173923
P 8.122470719545884 1.4759865187049583 12.7329650803307 0.7349752925748696 0.47060161001564754 -0.2127436170877562
P 6.386842721479299 7.591387534713153 1.6512002550183484 0.40487007214579307 0.27087497401284966 -1.3661561789698922
P 1.9413790403234539 3.406213295837554 6.220261493964789 0.9446089032787344 -0.19437128522815555 0.5053559827776974
P 6.990844550252255 3.8655186165163595 6.081373836542472 -0.14043596866228072 -2.2121977287956742 -0.5156311394514604
P 2.42684015994252 8.643067856582956 10.163098513901172 1.3707695093721877 -0.7400159403225707 0.580037273641672
