# total energy = -340859.9382347081 ev
CRYSTAL
PRIMVEC
9.39166634355233 0.00000000000000 0.00000000000000

0.00000000000000 9.39166634355233 0.00000000000000

0.00000000000000 0.00000000000000 13.74565301796973

PRIMCOORD
 96 1
Ni 1.676731727927 2.0803855398972826 6.1408432941675155 1.8691282348964455 -1.469879622702488 -2.583099671526138
Ni 6.202472346739182 7.191828027711668 7.839352417608632 -1.4683852975451483 -0.4487654879771626 0.3741711004000395
Ni 2.460053036470355 8.219783456641295 9.554025537694281 1.5963547583093025 -0.5805504658326647 0.3894838194977099
Ni 3.4559922754277452 3.715549753357543 8.540352954675413 -0.03483819072510774 0.610079071419401 -0.7025541959316868
Ni 3.5357369128739915 2.3411545427629616 0.8046939232455601 0.6938075600873084 0.9955059472389178 1.691534426236945
Ni 6.294200750217864 2.6807477997902636 11.062968575334693 0.7587567112651835 0.3217578769056459 -0.3060438086044987
Ni 7.35405027745952 3.7346336190142115 9.069244635017585 -0.0964834743407306 -1.454185866116315 -0.014393806827826823
Ni 2.0547932495850674 0.60226688979218 2.212514073737821 -0.8959296929054764 -1.53018741845361 -3.337073102470066
Ni 0.9429890250930707 6.640368173563901 8.424188374989997 2.453976813883832 0.28733183401729223 0.3881859266218927
Ni 9.31576272363748 7.987987743908894 12.157438601577423 0.9666514849010707 -1.7345754644878193 0.35577100062629696
Ni 0.8985082157805148 8.572478087975217 4.302774011445842 -0.025021975965634324 0.40249360149381647 -2.4736231273598497
Ni 0.6156716149160792 6.6643826639596195 5.73145587000068 -0.8484851262702677 -1.9116607089420172 0.13249537365896535
Ni 2.940446152712606 4.553446034012562 2.5628222826980425 1.4877670445058702 1.3715359552245667 -0.6792641150554947
Ni 2.469275652648922 7.863726608818647 5.855236151783042 1.8092860659278323 0.6819138939735159 0.4285175363614039
Ni 6.346531114114988 8.317888801449149 12.355101242782954 -0.014813925084380938 -0.47022648606441597 -0.16558212891060514
Ni 5.758800645220147 1.103408074936356 4.746167719646256 -0.036153309992105476 1.5553523477550117 0.7667862664378794
Ni 4.9797525447839694 6.306212691248808 5.38760818819854 -0.3964432815346785 -1.0340113024029676 0.9526186609570885
Ni 5.184058850637889 4.418816499471054 1.4219330072453489 0.5467707982790584 0.11731892302884311 0.06044894931467654
Ni 8.377779456612817 3.932628725202148 0.6469712207595729 0.327908469888074 -0.5716665330794735 -1.4664621123805066
Ni 7.949472520947282 3.494883165036143 6.70668272838759 -1.316370622906333 1.0027420599760408 -0.3842585665430286
Ni 2.8415237329479943 5.219728398750108 0.30419982390047107 -1.870836475836804 2.7598524723415823 0.9895965237330182
Ni 5.454980244632929 2.105705471890579 6.808565401328865 0.8237238601651877 0.2694009605704844 2.094694971890799
Ni 6.773034849875958 6.198011305308612 3.7527971013862573 -0.7193033903655677 -0.1615598951250895 0.6226196270885729
Ni 6.708955511600638 9.38279104509006 7.7189399873146955 -0.003930188292341618 0.9612544822552155 -0.42866974566855204
P 7.646262578661089 5.658554000525619 1.6805710410571408 -0.5301997812942546 0.8792753721782469 -0.46309707410848633
P 3.594556918094324 8.736935554271438 12.409588872399242 0.8171238383501669 0.00898626265901033 -0.9757681024903583
P 0.5078834622873464 1.2803564572381732 3.946308626144817 -0.7914891685011982 -1.0632038648065236 0.34980861239527494
P 7.455592972085456 1.7134719259825548 3.5774161881681503 -0.253748341634892 0.4746320713312793 0.39150419236184836
P 7.937084913269552 8.06331829825542 0.10279366455972869 0.2026103853084962 -0.026265875675064443 -0.35030663507761606
P 7.763273347468389 5.701596006580989 8.663885296470898 1.1553969393020165 1.0735839224892672 -1.2468688193607689
P 3.7352252939828974 9.023822780754832 3.9269129571713166 0.7965514135154539 -1.1694829850814374 0.431366832884741
P 1.2757451491488894 3.106528377256172 0.9149023082462041 0.5756190899693184 -0.4543956896797465 -0.8327952263388367
Ni 2.401871664549557 0.9851294311961573 13.32197045744552 -1.2682400859476932 -0.7912438852596115 -1.163262972313655
Ni 8.847794781737637 1.770460556299811 1.7858215654868421 0.06849958753329494 -0.1525864879818856 -0.08274632726029621
Ni 8.63620993460226 7.483533178940076 7.52390325597019 -1.5709977676017524 1.1342727557288916 0.5159916081146727
Ni 4.072649076125018 1.4498008982704635 10.461129006353232 -0.5252794611745017 1.0959250091886288 1.3481240040585298
Ni 9.086155269122603 2.0460026500503026 9.619331427571353 0.16985041726865588 0.013389019712396298 -0.28609153385228797
Ni 5.397597164336547 6.178579948003668 13.631522591896058 -0.23794788426752567 2.3584163655780026 1.4942251414263878
Ni 1.278966490645069 3.8631210038807877 12.592159106070191 -0.3551264250637626 0.232869955523986 0.23363434449383635
Ni 7.42210229052459 5.86558388956873 6.332869996504659 0.029496723907536295 -0.764880050554102 -1.2132488173134783
Ni 0.41282946981800184 4.46938123012829 8.045522969197224 -0.7857651215332273 0.023924629136397507 1.352081188934065
Ni 5.155235827163325 8.534657848310156 5.729229105951863 0.04708486930294472 -0.21650771211587874 0.8267330793051567
Ni 8.966383350461435 6.681278271398766 3.5318900864109155 0.8535337444377687 1.2154730786583066 -1.3659530618201507
Ni 6.232732295137699 3.0486287553204625 13.31199087297368 0.022725723732289895 0.059129202061988496 1.6746286516205415
Ni 4.277284090294875 0.479270812134981 8.446497338809312 1.167568284557228 -1.3999461309361438 -1.5213582501977543
Ni 0.32515357029151104 8.339433283642258 1.4014103383314946 -1.4238033971697157 0.7176087762719641 0.6452095965739468
Ni 4.482041196124938 4.3422368535239695 10.544180449457802 -1.0158405450312118 -0.48524301407790627 -0.0654011511136293
Ni 2.7245223558068643 1.4345300490786606 3.9892360538729177 1.2687586774553246 1.3652922883077003 3.3244479575068877
Ni 0.5979523583538564 4.9112403400765885 2.123662337606893 -0.7426675190128049 1.1335600459325832 -0.5498196124077112
Ni 8.904435920406618 4.112573049012074 10.858914905300736 0.3710184137036707 0.5996650751749285 -0.2768126796535233
Ni 3.7916879909946553 6.50159691424159 11.818690594505386 -1.2383026749583126 -0.14520510791614993 0.058326503655035035
Ni 5.029659858809332 8.00489274301421 10.404758347669938 -0.7484247332115562 0.933491196099018 -0.6134351323758275
Ni 7.121437489770363 0.711883599824138 13.733460675667734 -1.1154455957200595 0.36111632409861033 0.7486551040548074
Ni 7.589264556677663 7.549425108786132 9.89802442532175 0.8038096377397641 1.3256921574175748 0.3181675884512262
Ni 8.153675518473337 1.23985959271477 6.02418377367496 -0.572547135912214 1.4460403541910452 -1.078552579348452
Ni 1.305638822566791 0.6569658318972829 11.054075606638682 1.4215811927074162 0.12437145900025032 0.4213079059868422
P 4.120865890239848 6.30516082463781 9.337751431640413 0.1213853797887329 -2.011957129270935 3.098824913353302
P 5.524140474306013 2.3922827733903747 9.039498410758545 -0.6231536452151719 0.135681741806747 -0.40507010397174104
P 1.6553656873911136 6.767221408516963 2.1618751489178445 0.6643895119365074 0.2855726852343405 -0.6270452669600942
P 2.02280523461134 5.2478188722634425 6.807026107243664 0.8323712514275406 0.7868555263839287 0.30584094856507327
P 8.819225333249653 9.247025118942028 10.525939955423166 -1.3148187050381808 0.7773879532131257 -1.0089782706937398
P 1.3861723599712856 6.115862401322944 12.499595783469031 0.4919196547671335 0.0933744963981037 -1.0504524786781262
P 3.7021290624011556 2.332608126548607 5.718053962376632 1.63131250533141 0.8495871010851949 -0.9994464199439046
P 8.241985355466277 2.8422750662415646 12.40121808034226 -0.02788078557066811 -1.3320119289880157 0.4832126139114387
Ni 4.293409581108113 6.742765509811272 1.955154245691714 0.035955077938370335 -0.061177599950584964 -0.12504765913166851
Ni 7.895517398802813 4.01966129559602 3.0675482668191627 -1.1559818652712093 -1.8251857678772245 0.10634931139121684
Ni 5.517171858008155 4.753328865100592 7.827929334046523 0.28625377046176503 0.2260858427226171 -0.5345788841985568
Ni 7.95668532056555 8.989496240904868 3.0582561523109404 0.918916640718953 0.84364682434136 1.1641659437438985
Ni 2.313824794209366 8.049399848992042 0.37505994515025665 0.49105884942873496 -1.1016318297654188 -0.6825708108312245
Ni 4.51193486954284 9.024987347359865 0.6841415571256964 0.42220984897582126 -0.08455715521678986 0.19457620215011007
Ni 4.857134951273406 1.2364504178951978 12.645176000764318 0.15914048705031947 -0.6024264399701496 0.02421516379362281
Ni 5.545919748153363 0.04343739520111109 2.8190682591364324 -0.26814831911030595 0.0005589578272635535 -1.2466379342968854
Ni 2.9543270353113047 7.003712954334173 3.810693905822116 -0.2061677636424514 -0.9926605073703227 0.6278250825489122
Ni 9.285380683578758 0.7343033853042555 13.116225348334412 0.8664589371398692 1.0073307077879876 0.18380045169084475
Ni 2.358895400157374 1.7587585402524641 8.840832739606098 -1.488496466472727 0.38368366787616504 -0.07129309111803206
Ni 4.4621026888468345 2.817067834242303 2.9860229694671565 1.0857115589907367 -0.7701155879214285 1.0194830268798054
Ni 0.4683792968780723 9.242648602506986 6.443934901459971 0.40423372411337477 -0.31595721106346875 -0.2097331123962065
Ni 1.3192003885157229 2.9713259510783177 2.9904633492321526 -0.2996373908575226 -0.5302951692215384 0.9272719546621837
Ni 5.971550058960557 3.6011029094145495 5.100640193386088 0.020874786566480175 0.8255549998366557 -0.4636115518510596
Ni 2.270764004821657 4.468554763505364 4.675610949213749 -0.6719902071019008 0.03844956222544991 2.2966985768532315
Ni 7.822647460992728 5.830675066416251 12.627059476723119 0.4984561703340706 0.6957369158995372 0.16158457771543785
Ni 3.8582749041372635 3.86430435381816 12.854082344708116 1.9868418222605457 -1.5677368374622935 -2.098444411630902
Ni 3.7582912260954853 7.101592899153956 7.597772467060721 -0.5610309077424983 0.6564440318371856 -2.1093263486507285
Ni 6.203805963335268 5.775658685994616 10.201212766775756 0.2545626100060713 -0.09045269476561842 0.5035035029499909
Ni 6.563591302627254 0.4810852820389516 10.054367492047422 0.39924732664237694 0.0077032821815286685 0.28462626216067116
Ni 1.821842361913804 5.100181880077011 10.114628178858174 0.6796510660812682 -0.34984409361890073 1.2868738989987967
Ni 0.7752886164684789 0.07452850605563927 8.730413981283254 -2.3411519220706003 -0.7853110647149444 0.26442330485023496
Ni 6.654080006171546 7.641050203936949 1.828473817396173 -0.2852261005281991 -1.1632843124698933 -1.5991770582494458
P 5.946117426973225 4.8968147408400515 12.245080691105702 -0.6224949285852505 -1.7931523935907634 -2.124196066673709
P 4.995183052300655 5.020352717635237 3.6792434502790248 -1.560851680306686 -0.6368275431578386 -1.3440030399116207
P 2.4196970469394965 9.393544502854276 7.3350650242976325 1.6256995300200066 -0.40882597146974753 0.8623875952839728
P 9.680272071012785 2.5029917341978596 7.371009748228621 -3.34096061044993 -0.7973818798365493 3.534894293920035
P 1.9172522985309772 2.8001910101354954 10.78977345895999 0.3498294383308814 0.1490748752842013 -0.7799341166737471
P 9.123853417127458 4.8328762775572764 4.51830617587231 1.1609587496605103 -0.12796457566814737 1.9920107680559955
P 6.0484208465588996 1.8212694702774572 1.4787572834046367 -1.490792461595755 0.6777281380269424 0.22096600499754848
P 7.760671855939403 8.552220264047346 5.922382808229361 -1.331195089513675 -0.9687261080419123 -0.8185819109529322
