# total energy = -340892.40249472717 ev
CRYSTAL
PRIMVEC
9.06277092893159 0.00000000000000 0.00000000000000
0.00000000000000 9.06277092893159 0.00000000000000
0.00000000000000 0.00000000000000 13.26428133342035
PRIMCOORD
 96 1
Ni 6.34629594534314 1.9446259387657636 11.536263889711961 0.8335663001769065 0.33274240094160756 -0.669733292746924
Ni 4.866490462894608 0.47984743673446684 6.208572641194679 -0.8193663545274404 -0.24317030900872963 -0.37050033641667157
Ni 2.9030955256100004 1.5209867133850978 4.840149519294887 -0.30560723528771233 -0.3697040657676213 0.8307540275390918
Ni 3.548065741732919 4.29671405686867 4.893352515820659 0.1402451928077133 0.05464365548680912 0.43908888411934704
Ni 5.152013059870068 4.456091945788221 2.683987632567734 0.20488221206180846 0.24427099827207607 -0.733848378059278
Ni 7.3410166157582974 6.114669646866746 2.4723429313556307 -0.21984500401922782 -0.031765208226738846 -0.012441568197462444
Ni 4.968591639772105 4.883918171321327 11.405478136681886 0.6076236679003729 -0.6932144065879997 -0.5148860337553197
Ni 5.654027127931063 7.9491466682022685 12.299304791302458 -1.3112204461639612 -0.10474082925351638 1.3456223206825988
Ni 1.8805430857832695 6.305150965490146 0.4610675628905517 0.1923588827838171 1.3462722955617716 0.20325624642261123
Ni 2.5564354761921835 1.4196739975752686 0.37799186094816317 1.439441875037921 -0.5418661618885894 -0.20969814539321305
Ni 0.682897006031905 -0.2022330136400031 4.510280065510032 0.1850898599262296 -0.45235860464505967 1.208017907931842
Ni 8.86002764508878 2.1700895530351016 1.3085254565155595 -0.24339296654249692 0.4289746785034806 1.0578204890074234
Ni 6.858505630658456 1.2343947094442955 4.8715855526905 0.03172201369362924 -1.5338574111060292 -0.3215151647672205
Ni 0.6436298323078842 7.337536511735489 2.4235172531710476 1.006389426920641 0.4099798825685326 -0.6109319063379994
Ni 7.735183710195805 4.1499515450318 3.819131406580296 0.4186270167205694 -0.4197991826517996 -0.028009597839048533
Ni 7.906433828984831 3.752875301137726 12.691224318558568 -0.1421516658018068 -0.026458965522477014 -0.49385749521979466
Ni 7.978011593495614 8.797594216408763 6.84410398143282 -1.3651413645521326 0.8559222992746033 0.09236173886287319
Ni 6.825390265816421 0.7461633033569641 0.43356386578529454 0.414331474669009 -0.7870388460393284 0.04591218915108222
Ni 1.8044701869096935 6.668278069620053 8.903330470691333 0.020054861768346106 0.23732464886123 1.5515450581937797
Ni 0.26166304004616964 4.879268969853357 1.4216659946174905 -0.8555224927330234 -1.3185948842511614 0.40475797204796093
Ni 6.383833942380828 2.157818561246345 7.425464421213845 1.0409129146188074 -0.0441952064599755 -1.8927165637393466
Ni 3.5862562582748834 4.221048982685266 0.45980240007392653 -0.7431061492121203 0.3168972063792349 0.22355562010159563
Ni 6.012187833611755 5.855374708854846 4.827826869712043 -0.32230809298216107 -1.7826489229562783 0.6771951483416079
Ni 5.166087543066478 3.0035019643305563 9.20500020656637 0.4471176679610945 0.2042877730109191 1.6061090094825887
P 0.20788727639997737 5.6086770223838425 12.498878787962534 -0.5968193781960174 -0.9796738653026675 -0.16727031524630548
P 3.8617644934138773 6.213181966470721 12.576236787748698 0.12437017344866967 0.7185829672597754 0.9020939127346592
P 2.3964775699354983 8.386778811841308 1.2481556207678168 0.22047929516911705 -0.6929035602158002 1.1012096546263357
P 6.212112559505379 7.916547881301118 5.821600480568909 0.31228696130073313 -0.5625013216404376 0.019489476183179335
P 4.657910790798426 1.01690633356056 12.5778418044738 -0.7661306351317515 0.1046724379094262 0.8624675565922889
P 3.870482879012683 6.104881854302597 8.322819212542957 0.8291681711092107 0.7418298536028579 -1.074463753991059
P 4.694397506412557 0.9595118054969005 3.728337848945659 1.7858221784779373 -0.9006823770991134 1.1143793592390743
P 0.38935657564764664 5.65703596786745 3.6274356766572704 -0.864265529032976 -1.587498593470253 0.06259556334403414
Ni 1.7603254298912054 0.7979325695275059 2.726512872427691 -1.1937248883479377 1.5241725797180976 -1.31539720324947
Ni 1.891037774477051 6.5322368157492825 4.852047124922864 0.6498409246983712 -0.4824523387066465 -0.8869434302464659
Ni 6.002599422007246 5.72811527997913 9.153985869211194 -0.9544048063232337 -0.3384908733896106 2.05522391037937
Ni 8.552147192320954 2.3895717385152375 10.116574485426176 0.22009465813618867 0.4953124824987664 0.38350703308898465
Ni 2.2598472359566997 5.245087716938405 6.998154773621623 0.47848744052162756 -0.5285943844803477 -0.0527729208266575
Ni 0.6489732420262379 9.111981738677567 8.999430280683663 -1.2467752312056979 -0.9432395337350336 1.063294110527485
Ni 1.3266899682158582 1.0856746390945955 11.32249668755678 -0.1903963597408076 0.6416830714779271 -0.32340749669392693
Ni 3.97457786548658 6.66040252171427 1.5427953652613633 0.8229093346836924 0.7871481179236831 0.21923590968031922
Ni 5.531870039067955 7.769141912730864 8.198997292666855 -0.7918835757261394 1.4077987942113432 -0.9284996564216977
Ni 5.639372627397518 3.192950127072185 4.630905546092269 -0.690837678825707 -0.38607093716141894 0.8413809111253187
Ni 0.7501835485249791 7.595000770027056 6.584521753583621 0.3624049610030468 -1.3595836679586972 1.7999604176515323
Ni 5.129754894557522 4.522132357283544 7.169344171845669 -0.4583749860424686 0.6880845415606021 -0.34858451018018677
Ni 8.071784083922692 7.300225083970118 9.086045900936753 0.5447920772861327 -0.10921660563668287 0.7173195271663194
Ni 4.599927182626739 0.47895112869317585 10.464815082087684 -0.22886546235028327 -0.25593506487356565 -0.10773976398084026
Ni 8.085387303032679 7.169929626845339 4.847723276929942 0.06832526673895975 -0.014998530291361266 -0.6252424094234006
Ni 7.162869728319903 6.350410443328439 7.112453533843645 0.4554542128512479 -0.9615398747061182 -1.2854137695135024
Ni 2.495433965313217 4.946433164939379 2.702358775444387 -0.9319647321521627 0.08370509162913971 -0.6300025498162053
Ni 2.1713674037309767 5.205655600784137 11.69206560923724 0.49263724965944833 -0.44303886990603053 -1.8998485467984378
Ni 1.1667229991882802 3.260531209619273 3.8074984338623876 -1.0643487770442446 -0.5096988331274254 0.040678965776600906
Ni 3.665573629128057 2.37361219897314 2.627481256051562 0.6280809073134602 1.6450445102055216 -0.7719169027962255
Ni 0.9522344004700384 3.371260144386649 8.09611943632385 -0.19560824295905022 0.0613326374712105 0.15287650841847863
Ni 3.71049778444332 2.641824903543486 7.154859145127818 -0.3769880010235443 0.18673536594945261 -0.9394960075322014
Ni 3.9807314869227444 6.800947972718728 6.032608068987254 0.7768706472570749 0.7498367830677344 0.43134934938324426
Ni 0.7615174498034274 7.340935050820263 11.241040502772922 -0.635768248655389 0.4245480101906946 -0.013148364456499936
P 0.1820266596575722 5.674853375442556 7.949482897002389 -0.5276379341043493 -0.01318410279044181 0.017138716562815647
P 8.454078948490723 1.5344811792443727 7.9692071115733265 -0.015417877216966995 0.8992122203114901 1.2946342596705058
P 1.7744996035674352 3.2526647244843834 10.223710031534583 -1.153870218244845 0.022893359658405735 1.0589378904413183
P 4.008590444646996 6.0718752427112745 3.7012383514222176 0.6508320849670469 0.82692745470415 0.9626624183463357
P 6.7943049616543565 3.8948979837976982 10.63975737373841 0.5408423486097653 0.931349467165667 -0.9650841404139509
P 6.274129100724331 7.844489789933022 10.278120189143266 0.062335110593795866 -1.8019815618466193 -0.09227226447286044
P 2.5050495652304043 8.624042153812983 5.87919348331512 0.6091740431066284 -0.3128523468858999 -0.5595237270693525
P 7.006881315714233 3.859480675148909 1.5074324332379305 0.5297521522338748 1.1649586148485227 0.3413777080191024
Ni 5.420959848882725 2.708644713335584 0.47302407652933043 -0.8891813184380493 0.7402329414293832 -0.4666009734966867
Ni 1.43627699385075 1.0439587046753591 7.163892008876602 1.0706988876319885 0.7253835351213765 -2.1889153612289656
Ni 6.9898433064359 0.5088927111685774 9.321844699132159 -0.27194069627320266 1.2771201620461425 -0.679192638387611
Ni 2.752961663001034 1.6765219874461306 9.100345140851301 -0.10797116326535598 -0.4724409772172315 1.2488004891658429
Ni 6.336625968800597 2.0246502057485696 2.507758427450241 0.6998529949504398 -0.5270391241780858 1.0452915033024772
Ni 3.9440907042034365 7.192495926368236 10.454017696846085 0.4632174017364345 -1.3333298764684909 -0.5006485499996991
Ni 8.106576061379881 7.100853187100951 0.2645803459965394 0.11647611541257359 0.37367102083516934 0.35809270678093813
Ni 7.503040833778525 4.160545924205401 8.350753391265618 0.9017609548752727 -0.7355561047790041 0.11088525158835742
Ni 2.715903992820661 8.441082935030547 12.278333539456678 1.8550987533865728 -0.8033054444098359 0.9595177020697667
Ni 0.10416930119521765 5.258409990150718 10.177231611011216 -0.0010688075841465462 -1.5604091934526287 -0.41119241481939506
Ni 8.80482630758116 2.272435424726702 6.027143218138937 -0.21070113273643065 1.286756656694642 -1.569483130729439
Ni 3.604771499208731 2.920251350909938 11.571573351387126 0.30859537138175885 -1.3290230215630205 -0.02780339536551341
Ni 1.415894822113 3.1575146928816107 12.57972504826531 -1.6749955480416574 0.630807562216004 0.4715295211465557
Ni 3.1403135537272093 8.462380446628464 8.041563368103793 0.44955558797862577 0.08745813091366873 -0.11642417912871561
Ni 5.734078583226547 7.704016841095706 3.5559811658306297 -0.7105009615825892 1.6185906868893671 -0.6451813144391727
Ni 3.150346041105461 8.19138547139405 3.550423874719207 0.9060410703078655 -0.2742284638661148 0.4177602978448999
Ni 3.4255189537214235 4.49901322873619 9.672433459731975 -0.4681346365323938 0.531624172445607 -1.0816407313554728
Ni 7.227577912493995 6.076379439844961 11.491576272717 -0.045484100474728124 -0.37503653372412826 -0.49966947391588146
Ni 0.5359885835836616 -0.10151844070909413 0.3180244122280578 -0.4658964912304944 -0.1118239613525429 -0.06008976620304489
Ni 4.581130995795217 0.08217304996147257 1.5999107599815265 -0.053054456622818304 0.5287278247344185 -0.5709836480798359
Ni 5.86723787595343 5.544866052528129 0.3414797695755324 0.49140800523803757 0.17260226898218017 0.4649734651955928
Ni 7.837701774534367 -0.2908070986830109 11.53465887298686 0.7874687344878954 0.033635428666258196 -0.07599101081433365
Ni 0.09142613904294994 4.95427246176159 5.874100206073405 -0.6736974196009946 -0.6183078870870965 -0.44314377091501095
Ni 7.8666663903075325 8.682596716550911 2.692888179861484 -0.32033142887176447 1.1110281833786542 -0.2269224796912995
P 8.742411004442928 1.4554628798306595 3.7006809910123146 -0.875510762929492 0.9769762638658464 -0.5319383612519162
P 1.8554573359521926 2.997973674085991 1.6716045279597356 -0.14746613603618475 1.1221433194552093 -0.7182114428529696
P 4.787182154812327 1.0297029660610948 8.373621481059244 0.08511122794804696 -0.281868754020192 -0.6407173651305482
P 8.567427024046097 1.5330220731306432 12.462309601133278 -0.3426879421900937 0.8188611327562478 -0.38504301011753683
P 6.319687650002085 7.7947895543572905 1.2649154029797425 -0.25314490372293824 -0.8655521090548834 0.8810286074239279
P 1.9359800553340991 3.2532628673633037 5.898334055440566 -0.8696813007319087 -0.07134554162252228 1.1334669719981447
P 6.952423125419818 4.0754736938353435 6.114634302060264 0.6628964723307488 0.08125508742675039 -0.7015003007458757
P 2.2733507645868674 8.561617787903858 10.19397145512718 0.6476896826833233 0.23879943363454362 -0.8326967530877594
