# total energy = -381172.59989230416 ev
CRYSTAL
PRIMVEC
9.21081470161068 0.00000000000000 0.00000000000000
0.00000000000000 9.21081470161068 0.00000000000000
0.00000000000000 0.00000000000000 13.48095835922419
PRIMCOORD
 96 1
Ni 3.6582684323476373 5.787237689710254 1.4028558758550767 0.5871314614842921 0.16742920942167291 -1.1801792884530191
Ni 7.572385660919874 8.077810688649018 4.022219032655125 0.5726975454471492 0.5333897489864621 -2.6934043680206776
Ni 5.459074788320975 3.96827681822557 6.407162353320452 1.0230257499257414 -0.6181114548055742 -1.3183267181914393
Ni 3.87078955684957 5.8784247539225 3.7647997925468704 0.6308528136316426 0.4763390267200571 -1.7239565513213924
Ni 7.262432539929342 6.317808241207017 9.717465554041445 -1.1858922796773963 0.4996445342152169 -0.9525937212564238
Ni 8.325102638140972 3.262488941222793 1.4935418717548825 1.5113841697041777 -0.8157806940587111 0.6618297216291311
Ni 4.744794540287521 8.061424649534514 13.206957783509697 1.589037655822599 -1.9185756908942957 -2.5127221502438406
Ni 3.3745569220581855 8.899028493804103 8.272953769307593 -0.9412363872620757 -0.6329631751064261 -1.5694918724801872
Ni 2.7333736984275987 7.75106625270304 6.142382751291792 1.27325245156062 2.290289073782462 0.07469311793851652
Ni 3.883012307779837 2.3124118402768676 7.797723633891639 1.2441208243019863 0.47228079749028345 -1.0053509583537976
Ni 8.656627486847169 6.573813621279254 6.92346995846038 0.5518019329450626 -0.9234633795493709 0.10232759182633344
Ni 5.398228147292077 4.765804408314606 8.473335040210358 0.5314786480066782 0.6125660995073128 1.8120746844165632
Ni 1.8581252550231158 7.371654379063565 1.176013776864538 -0.5302157221338546 -0.5624092761472637 -0.327298604218217
Ni 5.3366999059852285 3.8708448217369713 3.723224938836283 0.7626035958150995 0.5196238055506213 -0.7035677247978657
Ni 4.613724649000628 3.519231186460381 0.09501784199061611 -1.3214457234363952 0.12495098565280414 0.9353789000400343
Ni 0.863841770644842 3.561066706223211 5.144104536635856 -0.8967030807363913 -0.7334400868772659 0.7157066741532448
Ni 4.296716044051856 7.949356668699122 2.1414370159603644 -0.31498996205419305 0.4362341882793712 0.675058047393947
Ni 0.19032950896591613 1.2665791110935178 3.177623259047807 0.3704633125311491 0.9252958047724192 -0.202074053189052
Ni 2.183460436340359 6.939031629671147 10.042342957874713 0.25625928098220385 0.33234105173813083 1.9194717203460039
Ni 8.0161350743091 4.851695254150887 3.573869738471193 -0.4902281259973235 -1.4557290422337186 -0.14831048631435104
Ni 8.483565491949808 1.6523372359695823 9.470467429534173 -0.11147454843292413 -0.11707184001504353 0.37366305041536935
Ni 4.030974832982413 1.6454843899318137 1.710356156926444 -0.034029064560251066 -0.30804258420208236 0.8467308625833223
Ni 3.3859691213065664 4.012249246967919 5.031929710351489 -1.5334316364225204 -0.19748540537710504 0.2813015686628123
Ni 2.202259708871389 4.103381046292763 12.215015688194326 3.64447136821993 -1.9200098522376614 -0.5456762796632989
P 4.955878777717019 5.510434290345973 13.060595176797388 0.9001995239254238 1.0248797724153447 -0.019616488679346865
Ni 4.612232497040791 2.0704805848628443 5.240641241948554 -0.059960439714032226 0.09801302361137959 -0.8271416275974852
P 0.37905817836010613 8.238788094834614 2.6692839295896977 -1.6852316239473688 -0.5021917261171029 -0.3552788914812268
Ni 4.2551660595406 6.100046163216524 5.903823575090708 1.0312771913012562 -0.009073165945861793 1.749575537441077
P 6.649747576568724 1.8372903924728028 11.079824241490261 0.3594839307015099 0.6570963207092039 -0.7456258303101804
P 3.1934354644147924 9.073683959621537 0.3293667548531727 -2.1199007817324653 1.7055371682739404 1.4389441094658961
P 5.203732586897555 7.734440732409797 9.24621172727402 1.0614362313831396 0.3360370125324793 0.33765089398681847
Ni 8.262929639814443 4.244380195682768 9.046329682520776 -1.623468326696643 -2.392233571237764 -2.2383473906078484
Ni 2.4961031151844235 1.9800580182596512 13.37308311395673 -0.05103922596500242 0.2279779175390074 -0.04540028251167019
Ni 8.408764466852066 8.2544280579692 8.912436676569131 0.45185415420481534 0.6948092618789453 -0.694102722730224
Ni 0.629449566953821 3.876702899801515 10.725288935833053 -1.5718459745346607 0.12442262395315991 -1.4571884003880646
Ni 1.8419694862727845 5.816482025960142 5.752351729538145 -0.6566294083751143 -1.322857516182257 -0.0776966806515307
Ni 1.3284389417247742 4.9686357558921666 3.4783572757383343 0.704116141102168 0.4359063726263073 -1.5402499448959344
Ni 0.7779398718310804 0.6253848344854509 7.40355327207163 -0.07907273506345092 -1.3686545199117137 2.1793770827212273
Ni 3.75328719541971 6.395492251264198 8.37342717676618 -0.6200215273440935 0.5244672496858517 -0.534889216350124
Ni 1.431498745913745 4.862582436968955 0.6027428101171135 -0.922515928034437 0.8965004778072818 1.7765317543149468
Ni 5.794173433079125 0.5983630677905556 0.754526902283494 0.32924107265656843 0.5092285783592263 -1.7938468485546268
Ni 6.43201313102193 7.375725559102132 1.0994654602434566 1.3022575805437184 0.10848178435318735 -0.15581167978740262
Ni 5.966259081632396 8.184665348439548 5.449812393192507 -1.9700504617348202 0.6235562799702293 0.6954895757754215
Ni 7.072717392295037 4.278156252699566 10.94807459208833 -0.3324562371597565 -0.4589300872149903 0.8675393146882414
Ni 1.435652823283414 7.594583724026086 7.993061983819031 -1.0873210695697015 -0.1612091966538901 -0.5459804411672791
Ni 7.143686718532952 6.7478427517061395 11.935136797846159 -1.7293021319040218 -0.6354697435783636 0.8387586430111232
Ni 4.953299749638289 5.963477415633194 10.933528873724292 -0.05522215369809845 0.25022104520792393 -0.8688150960768715
Ni 2.993791058677377 6.439593631410483 12.455919937784142 0.8160604300826592 0.20666347233194732 0.31792873296754276
Ni 8.25134243508929 0.8816858817052847 12.689262108614537 -2.070885271065711 -2.389672238268491 -0.8076092139915123
Ni 6.659253137201758 2.695305401822628 13.112361796826244 1.4379012700236786 0.1640716058033497 -0.37425826079720703
Ni 2.817284219131998 4.4388204911898885 9.643212572410434 0.64717520494075 0.2791757805690611 0.08843412167369286
Ni 7.723783819955901 0.267682850780144 1.8000722540523564 2.1853602968878554 -0.9114049057229401 -0.4100390179412422
Ni 1.2519247051175906 0.0341794906948282 5.150912249682247 -0.5677507429648351 -0.2237206849245502 -1.2610163145057445
Ni 2.222707717209892 0.06865464853725368 2.478810731916538 1.534102694347616 1.3250244419265889 0.3686504276921264
Ni 6.398144965859462 6.948380606456544 7.383386193577417 -0.7407152803824404 0.09239027810796346 1.0983472454768761
Ni 3.869877686207447 8.491367051887966 10.954168467005786 -0.4193135012646327 -1.1769288998365215 0.3513124506343111
P 1.0842234042981613 5.829183739247887 11.901610353904124 -2.5141874219354574 1.1113760536363761 -0.7222619587732593
Ni 6.627374507985739 1.6230192132031604 6.343424437599005 0.21732686558306444 0.32663603093355353 -0.28921696685514703
P 6.1280654611290135 2.8026113915269364 1.899548130293349 -0.45812970280088194 -0.3661279183805888 -0.2731028349021038
Ni 6.756758820206892 4.904021891705409 1.0782999294501923 -2.303615615688039 0.6608462746699393 0.7126000102034631
P 7.6022287001166085 4.522344157682478 6.78360466034356 -0.05440917087849985 0.33377701285370903 0.6026606674681427
P 6.3931250719205055 6.418639028270801 2.9508603730625436 -0.3434772708606085 -0.7779212000087764 1.0342982375157672
P 8.776082540965211 1.6057857791485028 5.245144409190308 0.07809211631773648 0.40331815427764084 -0.4345210622430065
Ni 2.1851275937769667 1.8149449563335192 6.220424140954167 1.277513026609187 1.4871502368574774 -0.6132620971330729
Ni 6.529942511497141 5.824744126626644 5.123357176823929 0.3310593568122298 -0.03284070067910474 0.15251295443147284
Ni 8.654297150761744 7.506316488031547 13.334986263826602 0.9523466382426243 0.7370558292529823 1.4291127251977709
Ni 1.224817277847223 4.628296157645453 7.711081185586699 0.06582538313524147 -1.0362286217692607 -0.8679722884606019
Ni 8.199586868037917 8.974197951484522 6.155648166431032 -0.7056001818468622 -1.1115215780753052 0.8912027197434522
Ni 8.302545353266652 4.787689303725545 12.925084751807796 1.2167357474208143 1.3573869174176945 -0.6568770056095461
Ni 6.327682234422728 8.916280349487895 10.992844677372172 0.20195244000952312 -0.6292109071528454 -0.3274184176255329
Ni 3.166143820853087 3.764957297475964 2.300687394414669 2.1221895777666417 1.7381639531700257 0.36088338215219784
Ni 0.06544099533486455 2.7738644392636624 12.755237331194282 0.39386806460833457 1.7917920229081268 2.2902533354485204
Ni 6.122060010031399 2.620089890069376 8.864808475525182 1.138388063448846 0.0012750100576816752 0.4240687565614309
Ni 4.851308399939078 3.374437181468816 11.008550037290181 0.24554909365355126 2.323804174820772 -1.1208040318184955
Ni 2.5476652551298926 2.163408493028232 3.7025853455547884 -0.8397238351378699 -1.1107281356397323 0.9587178318762907
Ni 9.159012945769238 6.630054855024706 4.582569068728111 0.2870415564703831 -0.11418706226808077 0.4396583834695718
Ni 4.553246440554406 1.5252464165755866 12.087256163662774 -0.09241341803641503 -2.843834986001825 1.1648578276046002
Ni 1.8101092786859 2.444992305152732 8.736240241474656 -1.2276115137930537 -0.8851770823746626 0.9625485184762907
Ni 1.0067604537905874 1.4222050340157495 11.413855352840109 1.3464242477586037 -0.7943551771950835 -1.5605246359845706
Ni 9.154904922472403 7.696473754765062 11.097335842144838 -0.34990811408761674 -0.3663698591880658 -1.2745837687775339
Ni 0.7462454589064 0.5848360655176159 0.725084533520419 -0.4633559841968279 0.17611876677587085 0.06235567941908615
Ni 6.495208529765386 0.38258684142068305 8.376461219084515 -0.23346645145740438 -1.5286007906927803 -0.2798604653409116
Ni 8.877981782518752 6.078161267805584 1.8209808031192045 -0.07329649470130603 0.8478894016677977 0.004072370297160729
Ni 7.1343561633766885 2.197746409733611 3.7703548348121636 0.5096592381387416 0.3243927434253317 0.5481699926194301
Ni 1.6785143709686936 8.470440081191985 12.350566640768013 0.5337707864749646 0.39252234921371754 0.2078135267759905
Ni 2.031960958344096 7.359892168861642 3.8153137417946272 0.8553396872982559 -0.290230495721326 -0.04642975221744907
Ni 0.27325078818583104 5.948288782412386 9.175234111302995 0.5972153280828553 2.1410069675834613 1.4422024685021935
Ni 3.83749246219025 0.0904971742011848 4.318705942748858 -0.38275987051031496 -0.9421540139803387 0.21703684514647137
P 2.9335246989661936 2.3986895403249586 10.721122884404446 -0.2021864103972002 0.1236258390834774 -0.14534343326622712
Ni 5.8775589373532116 0.42732929426082467 3.0124005884283287 -1.3538490794677651 -0.15220082250769273 1.8067972380677078
P 1.4682130527773822 2.9556674971850048 1.6693339520898707 -2.6858970039000387 -1.90556385201566 -0.1887148582733266
Ni 8.79502918652931 2.56312100197314 7.1539263810869675 -0.42255052014469163 1.6149176089131543 0.4245243560416108
P 4.66080112225202 0.3724770513520608 6.4824672099750025 -0.4727734208559857 -0.43353144463622756 0.7255432006276924
P 3.341416411246503 4.3831871712058526 7.250598485373797 0.26333804220585616 0.4152177339287043 0.10463747090643268
P 1.2875337142332004 0.05167543296464231 9.80981041764475 -0.667217982524238 -1.4057835635535274 -1.361020914625856
Ni 4.478583577675168 0.9585142070891997 9.557298699537736 1.6260972796790576 2.498879587933793 2.3244783180696613
