# total energy = -340896.5277609297 ev
CRYSTAL
PRIMVEC
9.02581170702205 0.00000000000000 0.00000000000000
0.00000000000000 9.02581170702205 0.00000000000000
0.00000000000000 0.00000000000000 13.21018777626090
PRIMCOORD
 96 1
Ni 6.491264396473812 2.0717757617291177 11.316547201291165 -1.1438380308198237 -0.6612339970266613 0.42513782125589367
Ni 4.3907504507091035 0.2862824965068093 5.996037972470043 0.7968596887844921 0.06260096266067283 0.2282753941747681
Ni 2.7184029541530514 1.5887143265580035 4.770858966218795 -0.07653299936073271 0.21964368664169914 0.4432622987707463
Ni 3.2566301496336925 4.435040108078025 5.039792047727737 0.7015036431799854 -0.8792913130178469 -0.05987302220654849
Ni 5.1094577743228085 4.52411584245216 2.6587612938864744 0.7661671447966418 0.6675074887401988 0.205611119808033
Ni 7.302567520973549 6.05213158620886 2.535470513016699 -0.3331383508284456 0.2195567833548477 -0.7128483787688432
Ni 5.073047650453596 4.5797419191517035 11.481832375647874 0.269270091419575 -0.6293515464957677 -0.29266790151822497
Ni 5.6895376580487484 7.85608444125202 12.361974462402964 -0.3991162003811513 0.03897818103541029 0.08001992946806864
Ni 1.8881185479237768 6.307769647276713 0.43948571949729837 0.8209843497468376 1.0507599826162162 -0.2827012772238163
Ni 2.6798266355072866 1.4662701668133968 0.4171260764974964 0.25333053737118305 -0.2134118467993744 0.41855759693521466
Ni 0.5230475855839518 -0.09012543625960626 4.751572612058228 0.10490255164236127 0.7542451965480752 -0.13675106361152578
Ni 8.865332639270772 1.979170935031516 1.2977185512498797 -0.008508037471011155 1.401141951016458 0.0005854401898247982
Ni 6.846962604595233 0.6393090644038157 4.684120917041023 -0.6823237278174249 0.027268863018282068 0.424492731472727
Ni 0.8358370855065034 7.335656146185382 2.524361544137615 0.014161636212362707 0.13029579490448526 -0.19636157618530697
Ni 7.602549394279737 4.139264262962976 3.8250495873936843 -0.20010098862308118 -1.2034662840054178 0.25333053737118305
Ni 7.587367979220734 3.851106202812135 12.601171105116787 1.0855223257980662 -0.19469652977805824 0.07902465543433486
Ni 8.012601039669477 9.0328517019908 6.709322588493114 0.7093344520783139 -0.15211109100736384 0.8697422358768311
Ni 6.880439339704531 0.7901005905430769 0.3184432682893525 -0.3127811273283323 -0.5071431565851072 -0.4358539221218171
Ni 1.794890940227917 6.637825524730699 9.304820163930385 -0.6520986103842962 0.019101496716141298 -0.45506880448737114
Ni 0.2268881434772219 4.672337720037737 1.2307407113400461 -0.9868618984106745 -0.17728501916983017 0.9570502143658808
Ni 6.344919887694581 1.817473520773472 6.930275358282583 -0.7781032341125954 1.3122067213366304 -0.7082659016044834
Ni 3.4847304596046267 4.225036550302869 0.36139259264028206 0.16870139126587722 0.5024390662412185 0.15752197761029
Ni 5.893719567361921 5.765589146328865 5.027533190454766 0.31670823029688033 0.0676197560315029 -0.8397382333155732
Ni 5.319289841678153 2.9175213831760325 9.259615289268371 0.3998836746747952 0.04273147743025544 0.07983378159919155
P 0.20139925160645908 5.546893732012794 12.366756337372204 0.59785656121128 0.3438698783133368 -0.25283894244674515
P 4.104984230624039 6.173248951652829 12.607156120768169 -0.9462968325041186 -0.40086429342050967 0.32480232015892446
P 2.485112802529962 8.374680496570157 1.4155378851465472 0.2809223309465227 -0.19549460019932138 -0.26030594024775167
P 6.3363814699503385 7.918615263801824 5.974624234522669 -0.27411096445164407 -1.306951900695594 -1.354460744909835
P 4.746159832860317 0.883607095816418 12.589057563410076 0.5550921736605601 1.0191847789130963 -0.337651922428083
P 3.787203456903849 6.233478192252545 8.179140801834272 0.44595167267745134 -0.42138092531662263 0.4166557519268115
P 4.600871344034656 0.9294058688796705 3.7850751705358863 0.7321211109555262 0.6218071584896065 -0.2522054226278044
P 0.36822874232261765 5.369166476408265 3.4298399865479534 -0.09537867131232607 0.1687841807876706 0.7222771282819109
Ni 1.520397958792492 0.8728022967872078 2.667757320277264 -0.29399047698439046 0.8059482813493218 -0.3529312171846567
Ni 1.8193238121451105 6.344820603767323 4.829472586547667 -0.2188957527320811 0.5642668981812927 -0.30772479585134743
Ni 5.894901948677456 5.62863148158136 9.218398920738682 0.2720368555314347 -0.19192668034240495 0.32330722367063675
Ni 8.550223505774996 2.4105054441008806 10.134129782510211 0.43719295264821484 -1.5556840200628177 -0.340867086931271
Ni 2.1042867350005365 5.256650709389522 7.1227345435299805 0.045988550914972406 -0.08828396924907377 -0.026238364871238685
Ni 0.6683721776558895 0.23909465104309288 9.04559705050734 -1.0738708576020668 -0.6128378651114607 -0.013794225570614953
Ni 1.4705935305549322 1.1309702928378418 11.404658978989735 -0.4115657389984138 0.3985240753231072 0.2799661376808404
Ni 4.298001211026398 6.66218619015534 1.7306009870033217 -0.46017347270378817 1.0431808847173776 -0.7137156118651451
Ni 5.533102291935412 7.842663059448966 7.984237426813998 -0.5768874151587806 0.4543190708055401 0.5872916412112402
Ni 5.125099505771828 2.9192362873741367 4.676789250303551 0.6825800668026052 -0.09047480625280548 1.0486637622088197
Ni 0.6032572652538909 7.29670976926529 6.873908262453227 0.2152512140009583 0.12816923547978573 -0.03633277299276323
Ni 5.093012745644151 4.59113249335174 7.169499078431112 0.056622890700367 0.33340137468184516 -0.29617051535484473
Ni 7.99815974115913 7.502498273037738 8.878355982783635 0.5511738124427605 0.11761408567175873 1.1313296139401678
Ni 4.514891463028675 0.2839565448654865 10.286403346909097 1.1166678981629348 -0.21122152401627495 0.4194657105717807
Ni 8.33157322051677 7.022568794481055 4.381739983019804 -1.1578561994757866 0.12597351338004753 1.5883331735564064
Ni 7.273874465995803 6.168772149114622 7.1663021359733845 -0.9071543579767022 -0.12315944097002016 -1.8488121490469127
Ni 2.4250099232922104 5.092922487528461 2.5701873946355738 -0.49349728366689855 0.07664998455457123 0.2955313391089491
Ni 2.2769595361264443 5.381044444433026 11.33767030810602 -0.03263938330157604 -0.1928229669044292 0.6028059347967554
Ni 0.972756841845419 3.048404676737624 3.853424933804203 0.2911429802332663 0.9772351739541879 -0.2506784444603166
Ni 3.64241138771448 2.8290864814232943 2.7658299836233455 -0.35411726707295793 -1.5778137620823214 -0.2345404012478735
Ni 1.2907542350432646 3.330280772036463 8.425312591728591 -0.8034900496168162 -0.23245343681185773 -0.9839632367066408
Ni 3.6516628445726713 2.7983896962772374 7.189010175299749 -0.4473840342486037 -0.2904369553051772 -0.42907006643076423
Ni 3.98169164459195 6.812980424038072 6.0798832490399635 -0.0099671385150409 0.2866124393527645 -0.2691266238631752
Ni 0.6795389117290156 7.603226330147409 11.511172581315115 0.650222733517822 -0.9015853485293569 -0.6008364697752103
P 0.07132106043682038 5.52631488163555 8.141967094306324 0.9776594059758003 0.8393299421335609 -0.23459028064920243
P 8.503875963368351 1.782498500943725 7.896904576653831 0.13321425410286092 -0.021566413316866085 0.5653390481995489
P 2.012584489459832 3.2831931130811625 10.493631467626795 -0.6953581924038799 0.3326159026660723 -0.5971759902044876
P 3.9359037025025803 6.137930950983461 3.8314696471626903 0.5999450683091926 0.16618376705034607 0.4836774693629992
P 7.020628244993726 4.023264532678612 10.38578385035152 -1.0949071094470757 0.2479350773872246 -0.3642579550513856
P 6.215309233564215 7.580878420702646 10.182267143350982 -0.0212059446536538 0.8884272138808441 -0.5496159810373373
P 2.300661317306552 8.418681327968871 5.891149016227078 -0.35054626189224786 0.03797905034693459 -0.531420283964917
P 6.993713274895067 3.9247929284611818 1.610361833025014 0.149706081110297 -0.09059359121885688 -0.08111341964256354
Ni 5.448756082823415 2.8703795693513183 0.39301903637794244 -0.3279814892178545 -0.43255699653810026 0.1350235393974578
Ni 1.6000236684539193 1.2059657611643886 6.9735784944470165 -0.7332292564180404 0.1565328742241433 -0.16110635252743866
Ni 6.8236940623704365 0.7739452904157829 8.983205225455697 -0.08256635003900618 -0.4631261275742088 1.0193030496585156
Ni 2.745687982526039 1.5894002882372449 9.222388329452166 0.38838030202088597 0.38508183377527233 -0.026878569558398874
Ni 6.464475787737118 2.0188122994424194 2.7337558596318647 -1.0157379580150765 0.542445431430827 -1.3554758164379108
Ni 4.0756683946480345 6.811274545651537 10.44314198029115 0.14401160182868103 0.4955896474195529 -0.3374374924244318
Ni 8.143267713753412 7.126555169567124 0.4641343083109904 1.1421256761144072 -0.4151308306418528 -1.0221688012420846
Ni 7.538709829052433 3.90532425290692 8.075400831404036 0.32100197257622776 -0.8809350192688571 0.3863159632926895
Ni 3.1529957811988134 8.272833238825934 12.299847093630294 -0.3613407814045906 -0.1344614962464007 0.6242263094540604
Ni 0.16496746578948066 4.6022161899584315 10.08924081125311 -0.05086336250877046 2.071673314184645 1.4366100620160807
Ni 8.408545341576922 2.4162548860703126 5.733274033168492 0.7270298124755479 -0.10689078571698367 -0.09216093570597676
Ni 3.586397201117471 2.5136885219573113 11.615361134580327 1.5940217393007514 0.2420624206565315 -0.06286090119027885
Ni 1.2838585150045738 3.4274707110111 12.564223042878064 -0.8945577522586141 -0.4202113304885537 0.12678392509648487
Ni 3.0239808306319986 8.314767159375354 7.9438270632574195 0.21561939597365445 0.45995312916286585 0.7040413220001747
Ni 5.655826251838657 7.845316648050242 3.634492140643869 -0.5515792754112951 -0.13176055237546985 -0.2244431649128715
Ni 3.0008115723344604 8.287220382466867 3.732974575835181 0.8226794780610734 -0.38899428145580106 -0.20305724303792771
Ni 3.6008294738162494 4.460438741833098 9.388084178235264 -0.8480948328103844 -0.056609520963928316 -0.19219690328465608
Ni 7.322613848468225 6.1193377791513885 11.395266719471067 0.3970135522158517 -0.552538811111087 -0.2731048917846329
Ni 0.6621588089718127 -0.1251591238645517 0.2803597589552531 0.05433126645271288 0.3204463571830739 0.3705867254828908
Ni 4.6931692931389115 0.3858859374949878 1.554693335011096 -0.21594386919260875 -0.7824216589822912 0.4805481797053982
Ni 6.08253051957314 5.537570068662052 0.4109993556044816 -0.5890389629196501 0.44233952984616076 -0.3852697814163623
Ni 7.751294768936313 8.825411474701232 11.10000534561545 0.4261446652538532 0.6483229453919479 0.40779290221954284
Ni 8.943342728661355 4.87929957931415 5.845745573710547 0.3430275849176995 -0.2662444172193737 -0.10550213289957315
Ni 7.795214368030907 -0.21507606387691477 2.363883517022538 0.9884107309550332 -0.20163388032783985 0.7624722124435578
P 8.389834834194453 1.613742902038749 3.488361543598822 1.267779858481823 -0.35587795851780646 0.8404082627994044
P 1.8973248757241234 3.177148852957369 1.60625328359882 -0.68645291949445 -0.8151697999475896 -0.5449036631633325
P 4.654800568159233 1.1291831821471863 8.215692630945117 0.6360361576047949 -0.7615203900532498 -0.7945618938892509
P 8.529825171629131 1.6066847173918168 12.310309814401041 -0.18864980936334605 -0.1207606017205404 0.01628613875453324
P 6.324530579360284 7.689170107907113 1.2877504449531123 -1.3080034818885602 0.07394929779395651 1.041680388912451
P 1.722585163748922 3.2528032055284504 6.130649828790775 -0.34491348908650277 -0.11100532210598947 -0.8029046094269914
P 6.76703904315203 3.9643530605679644 5.922946047803392 0.10551858795980536 -0.2139558922283025 -0.05864712021924738
P 2.405423912187552 8.655699139769945 10.169466737383873 -0.2801610273004659 -1.597157970936888 0.5192779921754284
