# total energy = -381166.7203239664 ev
CRYSTAL
PRIMVEC
9.27107623723201 0.00000000000000 0.00000000000000

0.00000000000000 9.27107623723201 0.00000000000000

0.00000000000000 0.00000000000000 13.56915720793352

PRIMCOORD
 96 1
Ni 6.961716022891335 5.734985761065389 0.4131757094390884 -0.23314429223129526 0.6897945822731733 1.5268221015258028
Ni 4.548000602947539 5.776659248624962 8.320661102534206 -0.8869007499339888 1.0551043756278409 0.5314333965910395
Ni 3.4354900000167974 0.3841340632143134 5.786798097567154 0.06144499467935868 0.43281950617086745 1.3205196120776999
Ni 7.267948941151684 6.357825931863987 3.2358642599764216 3.9100467843967373 -2.1144425868313714 0.756384097267949
Ni 0.786538636313755 9.384739603348994 1.7660259835821452 2.291962604830143 -1.1181521960179452 -1.3031361264939298
Ni 5.8832024564190935 0.39509340240100344 5.49257771275084 -1.3630052920457363 -0.5607511717185504 1.2142775156883088
Ni 6.396866433780197 7.154081583152423 5.690809082929379 0.8312510217801684 -0.4793145644086132 0.4343513694343616
Ni 0.6919912740264836 5.725047167369313 3.146782197114371 0.13269669103649406 0.292595910629709 -0.8812062706523727
Ni 6.968975275563003 7.883872889098349 12.434409131389055 -1.1987390537330775 0.26269552352585085 0.9715836320953652
Ni 1.8428859866778362 0.9844121429506248 3.8703173808344458 -0.27315811362007153 -0.7391631054039721 -0.29772937520153236
Ni 6.546130760745521 2.982533029672398 11.478475880337317 0.00786166213626388 0.2397589693343355 -0.31371495199651134
Ni 0.47689767043896814 3.8585013942060415 10.990081148291535 -0.3367695198231297 -0.2581477562541683 -1.0238644437769528
Ni 9.384832314111085 4.273437681017224 1.4357661442184837 -3.4355337551418246 -0.27263952211244014 -0.2287083679471287
Ni 8.619467888751124 0.9653229970362397 3.1809498213751164 -1.1956077071929474 1.3136329122601957 0.7303408791266518
Ni 7.30283600092625 2.0888012831222595 5.432792250709313 0.9418768490595522 1.9801189017144156 1.6207900085335314
Ni 4.429423538234093 7.780342781072151 4.700572849904243 -0.5279372105123231 1.100810362305388 -0.5955446252486518
Ni 4.797754124942499 7.785516041596788 13.78544969145611 0.41071033297665394 -0.9985555326985189 -1.3759924483340238
Ni 4.199380324259522 1.3091594004003992 11.274233144344848 0.5315750643752264 -0.3161757548321781 0.058925313581298516
Ni 8.547014428177583 0.4036404075581048 13.594124345945676 -0.44071047888317 -1.1340261869357244 -0.8044151325342469
Ni 6.99861490620326 8.218391860872437 1.2864832751007418 0.8921038914014828 0.14385270765331354 0.3993386008046026
Ni 0.5173306880017738 7.800804046265472 3.6223272175344423 0.922374003139934 3.8380841780155057 -2.110738398506907
Ni 3.015380452680978 1.576602135802182 1.7689157780364986 -0.7255383155316859 0.5734053701474512 1.5344531357084994
Ni 5.388785233267927 6.963968894410129 2.73813355418815 -1.9137057643965043 0.808472333322756 -1.0052725397073785
Ni 3.816345810683599 5.792030692979528 10.981763138716797 0.8304524371382731 0.05377745083177189 -1.004581941398257
P 7.33615624882149 4.5667374479659815 4.939471795873676 0.850499071376503 0.1615897199217604 -0.4848349800062101
Ni 9.456497733206858 5.5835890865719895 8.61965794581341 -0.2547886099739483 -0.7652909128392755 1.5080962429815252
P 8.436058188107957 2.3334464421260463 7.427105506432039 -0.3549688164399758 0.37053453208871673 -0.9893525260430122
Ni 0.8766414446664192 7.877614912657255 8.965983633139693 1.880223830588975 0.7002684852213037 2.5543272273791366
P 6.44311056191082 1.255915609731961 1.4057102422564414 0.6814811773114715 0.525295916234734 0.20083375302404766
P 1.3254208680710315 7.954963501469162 13.140752031387112 -0.4507568073755785 0.9075353954652047 -1.0591062976983825
P 2.904748700278667 8.299495235549 3.221019412750528 -0.6404116609646713 0.3829015382945018 -0.15483594613769464
Ni 6.19753829528613 2.0430299798782965 3.5940087152539713 -0.1573862233633741 -1.1781545447135064 -1.9117864358866046
Ni 7.246134098831845 0.059052119913393215 7.688637003642946 0.4666161430053384 1.5725756536118338 0.24751881578541243
Ni 0.25144920183359126 1.7260982396727316 5.306829846687756 1.6235549728731782 2.0567452321199027 0.7179088240108862
Ni 1.6796130635606732 6.343808064635939 10.928965286814014 -2.5813451507288767 0.6312521059525903 0.8125369903104328
Ni 8.855908145309924 6.700521992854436 5.129100534437859 -1.0919277151037774 -1.99136027895619 1.7832791003411097
Ni 4.825038902225664 -0.11897664809805582 7.673792156417054 0.6214993974412005 0.04806703071055592 -0.45078611795161716
Ni 3.1748429634762307 4.04390437623415 7.20680990198364 0.6851516841845233 -0.26179795141224593 -0.31528435336616023
Ni 7.008840903261817 8.649830663335687 3.855947212710455 -0.25682980877369316 -0.3957791655881184 -1.5232384979396025
Ni 4.497584490522854 3.499868353212276 2.333067255109097 -0.6313112413252998 -1.8838102623886523 0.49469310374721254
Ni 3.5126346251521054 1.6151234574506863 8.967503162530353 1.3860678302921547 0.08565450204602668 -1.181270721744985
Ni 1.4860978898496666 1.067165769192394 9.710102460259046 -0.5326847524996374 -1.3063332932749887 0.8180021271900622
Ni 1.4505896679690957 3.672634858367482 13.223170971777735 0.31221625596379776 -3.081801125101796 -0.9972854077368437
Ni 8.429104880951186 6.705370765711757 11.391212802627479 0.6772159742772144 -1.4755972419125554 -1.840308996671908
Ni 7.837285731147991 2.666046301124866 0.06467502763416769 0.7135302353272164 0.3551881315396334 0.6302054098556308
Ni 8.618920895254792 1.9350219420431398 9.500743944414436 -0.5696312478169996 -0.47483930224607906 0.24864135942562984
Ni 3.3705831954774044 2.396137459451482 13.327178540228697 0.04993519426754626 1.6948321231516104 -0.7410379538291818
Ni 2.185378083991687 4.188097424513137 2.069716772745979 1.5807895568811936 -0.79192471337672 -0.8580226334470579
Ni 8.700413655132134 4.815693657406966 12.796637495736682 -1.0364142554175055 -0.16620536431690083 -0.48684198313391
Ni 3.7055657210619435 5.292662715132743 13.296660938671446 0.7925430636870093 -0.14838247720286704 1.5228512898035127
Ni 4.937218924354883 4.023582177183965 9.703467151016246 0.012703563609597476 -1.349811419063282 0.7838164824472889
Ni 6.061336914699325 0.8122797794081166 12.801604011261858 0.2679215478114805 0.39605890161206625 0.5278083982439427
Ni 5.769882091916164 4.299572844850469 6.880050820996506 -0.6932082359404126 2.1419191949850855 -1.0856249128142013
Ni 1.4754176100568686 3.1102791887565715 8.511701826005023 -0.9396194204839431 -0.6077902753852242 0.7695059793618877
Ni 2.6263011974167703 7.2937874305462405 1.133025640366075 0.5611283525523111 0.4265876663285428 1.6852521927726591
Ni 1.3757535408098354 5.706922213380667 -0.0017577960492313925 0.810603777843462 2.3222980225888907 -0.6808970226732274
P 6.75001099765822 5.729506555025855 9.757173568387516 -0.19828424712931658 1.5703315947726633 0.2792338875005062
Ni 2.6654807654761155 2.8422894598584567 10.866981652603327 -1.3148626709022389 1.7930804027022473 -0.5044980056527762
P 5.184673219450005 5.2275148626119154 1.6235768247380764 0.6585713625928336 0.6370771972747996 -1.3596502595305744
Ni 1.2177929443604447 1.36409052693888 12.397637261821195 -0.11773981261634563 -0.05076951724338353 -0.9585178000503427
P 4.354819187980057 3.6789762744944556 11.941265754109011 1.632708357237672 0.7348112561931797 -0.7865158836563229
P 0.8702230786069103 2.2373980926005332 1.7980084151804232 -0.041920551493185874 0.7702400293144348 0.4335916084502016
P 2.3116315998062076 2.169135158473473 6.08906392231766 -0.07874466230007084 1.0755441315394316 0.27044174313017294
Ni 1.624181298906905 8.232780571148846 5.6885710451325195 -0.40126050041766376 -0.14963434733209713 -0.03573113485302234
Ni 6.0376956703663085 5.566780625405025 11.839808658723154 0.3804659322698157 -0.4078767201826008 -0.503225823808572
Ni 2.9872705496152103 3.2422715007444793 4.063949370105686 -2.681306299205563 0.9417362097166297 -0.033256962280916916
Ni 0.7552450456778075 3.9231949639926276 6.385387914325802 -0.22744929872904696 0.7918342105454428 -0.6462712050692417
Ni 7.807256715306955 5.331397271534056 6.954206451162024 0.5342076169020671 0.3348496770925975 -0.22248526985555228
Ni 1.78686087314669 6.394632104413822 7.152207898650579 0.9287991899399874 -0.5204429590178069 -0.60485844645041
Ni 6.642429429328677 8.473086866486808 10.160435716036293 -0.4808081182350042 0.23937716051488456 -0.30656137167086556
Ni 0.8339147628495004 0.6226195191848232 7.386940422971675 0.419913853852793 0.08697244952650182 0.38042299484702224
Ni 5.923948836357764 1.5860122781543435 9.544992936944878 0.4715845427542072 -0.6064972676054136 0.36643825053215595
Ni 8.881097659369848 9.008936529216111 10.688059152845328 0.21449865210564992 0.39356801686941256 0.926314732955237
Ni 7.229103131835863 3.865992423782935 9.035796691208903 0.6939551414087661 -0.9502743290946278 -0.9458618018492292
Ni 5.310537350063745 4.677211592072739 4.239113375568546 0.2172438189509549 0.6293086090729744 0.4632611104901764
Ni 9.273208556554406 7.1261385594584175 1.1261372307427686 -1.5856335152370564 0.33439819137747573 0.37069882558072287
Ni 4.226841251990658 8.051753537091397 9.639827702594628 1.4126980312851734 -1.146212187478955 -0.9491314737394363
Ni 8.488337786850657 9.166526282617141 5.575919125224262 -0.92995592925225 -2.00614900722959 -0.17648592030730248
Ni 2.873801847892937 9.551618975111468 -0.04260244939571779 0.8232847157452403 -3.049700645022825 -0.48797095453203054
Ni 2.5728812563003607 8.588437596679514 10.951680350633751 -1.6004201866279275 0.3051647484336551 1.9387837904110545
Ni 4.969927281220327 -0.21220844467126643 2.1336825630501557 -0.6227870059043726 0.909115338357815 -0.9778542955954257
Ni 3.370972580678183 5.943974360969261 3.221901092098007 -0.6705159365492194 -0.22950103905175318 0.44092465177650514
Ni 8.91832103034909 7.658168538789602 7.293164414224994 -1.7758118454297869 -1.0996639074057706 -1.4134590778209142
Ni 7.0049841355588605 3.7995095362880074 2.4731012986007146 0.5919314539760967 1.3850067360174922 -0.7983519570593025
Ni 5.5714439767381645 3.1847908282485164 0.3148448209509133 0.1839297781798574 0.4086773617070252 -0.5143450736501851
Ni 4.180569310631407 1.0494580136331537 3.7079354081409703 -0.401412966835128 0.2599968936477651 1.054617922909726
Ni 5.819222759500602 2.264590159121608 7.403101763019248 0.08386090048071362 -2.103149787526372 0.4411889611814854
Ni 9.33745711468296 3.661453940459396 3.780895996583145 -0.7432840695508812 -1.1454069179688402 0.6065286350639812
P 2.1536802744330257 4.847011352841056 9.544070464862079 0.6563440159242115 -0.179332131506846 -0.5190329660441577
Ni 4.076176992517771 6.008408340621994 6.040391699327892 -0.5743430514703721 -0.5785146663495585 -0.49474452581043826
P 8.491378699847218 1.8040772616668517 11.702773808385155 -0.3238553828646229 0.13985412801688174 0.007578583678206302
Ni 4.56865656074125 2.7083502218666533 5.355285126494232 1.6531946501164818 -1.0142238353633954 2.1376563059436733
P 4.765796725249985 8.598858286338459 11.696314649590326 0.8733152979400701 -0.9952812328226215 0.7183117158762596
P 2.759693441912241 8.589383246452835 8.091492151046147 -0.9408602348695796 0.32966813289165803 -0.5786218813513841
P 1.9672203897170881 5.249190638788618 4.756098252427723 0.1392470905605021 -0.355629075731794 1.8975165562311513
Ni 6.409651247872445 7.235286939667284 8.09898225351542 0.12549760218489356 -1.1763331752340516 0.3848445209534856
