# total energy = -340890.3146793949 ev
CRYSTAL
PRIMVEC
9.09626318715082 0.00000000000000 0.00000000000000
0.00000000000000 9.09626318715082 0.00000000000000
0.00000000000000 0.00000000000000 13.31330063876912
PRIMCOORD
 96 1
Ni 6.33219069146628 1.77913808944565 11.396997233282372 -0.2966016893549924 0.812185263397969 0.151225603078617
Ni 4.396524107500559 0.3228109119058953 6.023110588630471 1.09917848312892 -0.3800843805606809 0.10719469011064764
Ni 2.7226388777766517 1.500810632720572 4.667722822875371 -0.034985000715617165 0.5784041089136233 0.07824509695583298
Ni 3.313150082289319 4.551660873774375 4.587350971467247 0.6140393416187295 -0.4959591149438297 0.987662282824783
Ni 5.228859465128993 4.752824731068156 2.8229388222690717 0.1335695805597506 -0.25217251250733985 -1.0967050818877628
Ni 7.378351904550509 6.243274720177711 2.8085076009443335 -0.27404283021786996 0.1407974657667575 0.22562895769085659
Ni 5.224675184127177 4.537243296844207 11.623283149860528 0.22900095948688304 0.6350015456926935 0.06786401083182506
Ni 5.7056219002336235 7.961413269627336 12.420989943693725 -1.0003141672608384 -0.7315503260537207 0.4329971693993124
Ni 1.8407197902767103 6.248514167693028 0.47604746882910387 -0.34588459475052047 0.8446984055343258 -0.809389960041019
Ni 2.4543536954559295 1.41970835138974 0.40941461312780925 1.4341903968309944 0.10783463768749171 -0.6067176111463358
Ni 0.5827502728806058 0.050138601917400806 4.813424035490093 -0.29814126592797036 0.6109049097548059 0.17075056048542206
Ni 8.704295976447403 2.56791144333997 1.3079462058312612 0.14757695058243617 -1.7147579155412598 1.0031714342039757
Ni 6.569739600949757 0.8032882608390947 4.759571429370429 0.874690581021042 -0.08306334428008275 1.4887875153505843
Ni 0.6426446169163686 7.370210749123064 2.999859319288858 0.6078015882391339 0.93522643362257 -1.3153581224814186
Ni 7.546896562556227 3.649393445837346 3.6813004077287945 0.7629442669839699 1.2007301160211772 -0.18960034620207347
Ni 7.667231026410597 3.7705465733659853 12.854616989801166 0.026968558169043873 0.1748841230378214 -2.0301196591125747
Ni 7.8030928112869224 9.27418595263156 6.8007801342228005 0.4983504979941418 -0.22616014760397826 0.5955811349135421
Ni 6.6479037893162705 0.6648340409942548 0.21667116653702895 0.3697266914754406 -0.2305338511916417 1.7677910320078394
Ni 2.1596074839302513 6.5197465392411145 9.334261312301967 -0.660941662597223 -0.04978015674692072 -0.10631228750569431
Ni -0.15666948659730637 5.008720803118285 1.6418090773397764 0.8763851951146454 -1.1552452442155008 -0.1609752262662131
Ni 6.002114594264407 2.177381581924918 6.743892105124211 1.555876595689598 -1.1077171167275501 0.14424377244414513
Ni 3.181254268101672 4.139036189417129 0.569076770267718 0.7283755278701649 0.4850087865799131 -0.5085420938151629
Ni 6.224008835043267 5.884317987800267 4.957034017230213 -0.9638883203336368 -0.5847681034584381 -0.7040230671677294
Ni 5.327472052826115 3.0058419314951488 9.35090292554723 -0.2563484982619004 -0.2565711557956678 0.1784456151368346
P 0.133242061118666 5.4360450485601675 12.69412525347133 0.6721784118533068 -0.7113530251702395 0.5572907239737757
P 4.07706334927503 6.1903253729786565 12.759254496890888 0.20854526273569243 -1.2938683280387588 -0.5166636944810328
P 2.2879648517924505 8.439112619825853 1.241017721580925 -1.3775762478813758 -0.2805757462403813 1.6251269453459882
P 6.3549404453478875 7.842306801284367 5.932552741861842 -0.3289546517644012 0.31791562034142024 -0.5642201041037573
P 4.533277326155531 1.0493903864660636 12.707731443737668 0.10142667727861886 -0.32654758498480535 -1.8773328821944248
P 4.21943805849331 5.8281940447976615 8.511432459184396 0.31645446241486147 0.7094339537706555 -0.5905677408593507
P 4.62144740387421 1.0044639432748368 3.6908860497281704 0.09306493557748488 -0.3751877145900119 0.41847403608247286
P 0.2607598439015881 5.564238683687513 3.976123937490376 -1.6486150011655993 -1.155333690164249 -1.7255449788544346
Ni 1.4194809448135544 0.9036455117887136 2.6858381263656885 -0.4972809190790468 0.8234986315282593 -0.8640850375910538
Ni 1.7000551785113462 6.416358413444094 5.120681247211198 2.416323779417748 1.9368606052464126 1.0287626524095186
Ni 6.443055945488283 5.686337822573085 9.383919631530464 -0.8096421852611412 0.4241338054714115 -0.024754838347176723
Ni 8.56793389710347 2.5285064318185295 10.255821004536278 0.49144914288861813 -0.7824558546543363 0.6593432077618515
Ni 2.611673564861127 5.0973911753045735 7.204798844110878 -0.6895307870888254 -0.08148391560810482 -0.8897557028842806
Ni 0.8447362930409865 0.3038542997150638 9.215838882940165 -0.7341867352353033 -0.7073665297186656 -0.3496085805693269
Ni 1.8554284476243945 1.1204412971294921 11.342492425102208 -0.675209742480463 0.30740700750061256 0.3652532290851193
Ni 3.924428055339256 6.965236021988702 1.4840334851559034 1.021275600003854 -1.4323551433944688 0.500288595557119
Ni 5.887629027549529 7.8183563406804995 8.009880888022925 -0.9955563408608791 0.3273716235479975 1.0895946960952267
Ni 5.381376507645149 3.1547204687923363 4.557129547118486 -0.8504067687730127 -0.789601464560182 0.5309546571824081
Ni 0.7675335796785853 7.851275716649127 7.23858782282684 0.10722914289300889 -0.3801897957902936 -0.11582536920245215
Ni 5.3183212122004075 4.449073219125527 7.137859444344886 -1.106980752782158 1.4402684847042744 0.31804211861695547
Ni 8.246990448001212 7.42308732621774 9.219048044543296 0.424420740584211 0.9989262857743763 -0.0922079868938283
Ni 4.714802351529923 0.12911963470557347 10.206508343303584 -0.43528056611685034 0.16508307778699957 0.688338566552937
Ni 8.34251030626221 7.241107487690976 5.173442301765172 -0.25559207971185016 -0.08724884311634007 -0.2524265374996749
Ni 7.358440184739697 6.000968465120432 7.13509054187325 -0.5588752948520761 0.6180484627781226 0.22990855890281695
Ni 2.2604759448631357 5.392155579356347 2.626913443970781 0.12542201175195175 -0.17070325218725438 0.31526815541624414
Ni 2.498352319816319 5.009366637794653 11.61670655167724 -0.3106795076042972 0.5141380998457016 -0.4234344654115417
Ni 1.0438052809549454 3.4786474921741504 3.7151030308393267 -0.3499687921222231 -0.5210014026244383 0.40656725734255783
Ni 3.920052752813445 2.641445633815345 2.437864899429864 -0.781509688690983 -0.011397443203664242 0.0630935860263752
Ni 0.8830915958067543 3.4945659525071426 8.056038055604468 -0.028563927680621777 1.399110779519042 0.8596467993140421
Ni 3.7916680961621037 2.752838471094099 6.896768450030743 -1.170673405845113 -0.41751527171362934 0.3064413011532335
Ni 4.236293433920187 6.743269011105463 6.29776315508439 -0.14602888936902592 0.45541333231098347 -0.21564099324020924
Ni 0.6700944099145799 7.005950895388972 11.4063436435636 1.0569604549999734 1.8261658724023062 -0.42555793951244775
P 0.16362630857597618 5.9176103105538385 8.198690200845695 1.7834595917830318 -1.6687444249256227 -0.4991706799025919
P 8.603036376203478 1.803470593097509 8.153851081779724 0.1331461198690868 -1.3039953891704317 -0.7088323156309148
P 1.568823391526161 3.2065236868474156 10.408498141282069 0.5137061545146056 -0.029402878642149365 -0.26424101363609975
P 4.156082586368002 6.366665528416017 3.690073753438035 -0.45952658314840866 0.5171102951001482 0.7633237618105758
P 6.993525400066192 3.9863281253769762 10.530767380286626 -0.852702763896041 -0.6755622407238753 0.3216935993266137
P 6.6231528575642304 7.834001913122069 10.494115807589642 -1.382525107246219 0.4205581723050112 -1.0204538754335069
P 2.3784999579034616 8.70762520872276 5.959140209123158 -0.2689147649626853 -1.0349752089781337 -0.05673756190136035
P 6.880931856065177 3.848474258893266 1.558801128900509 -0.5073881827163778 -0.24681664751206525 1.0798939238676952
Ni 5.293588472974461 2.7655004692561134 0.3245819543212287 0.15667325645674954 1.3179832188090914 0.5395704238758772
Ni 1.5070506691711048 1.464571120739635 7.007761961361714 0.01186255576554086 -1.277107306530336 -0.5527581262107448
Ni 6.82608138988921 0.9530427682677494 9.170401229765671 0.12372508366550306 -0.5331161836101012 -0.8505193830914772
Ni 2.7761430970215994 1.7136086104520079 9.087938147482946 0.837408556741132 -0.5202375278752202 0.34194669314869497
Ni 6.375734502674299 1.5376232092734967 2.5988360088222975 -0.04184444683961181 1.6037088846815284 -1.7224277733816915
Ni 4.4108507218002515 6.76810180922493 10.46663690654968 -0.1302896242568982 0.29456254743777655 0.7583535622894939
Ni 8.461371175502899 7.135072349347155 0.6782664926363857 -0.35881492965894335 0.24025802045794106 -0.4566685448743232
Ni 7.335226521442672 3.616210278240343 8.149084639942874 1.4400388851919714 0.33837157420292696 0.410330581039732
Ni 3.219076529852861 8.257105492509947 12.588884218891552 -0.3819702847294841 0.17396161122355203 -1.0861234497171746
Ni 8.921414679126364 4.958081906733276 10.361408606738165 1.2839184159148984 -0.25664108980165473 -0.8672521224651258
Ni 8.501576658172512 2.4664517253090037 5.980161673025754 0.270100043520038 -0.13442601502277493 -0.7177473587323574
Ni 3.718388601052056 2.8183588538246935 11.468303748937434 -0.45804202818308215 -1.454112332565902 0.43089349279274825
Ni 1.1239433584027505 3.082614391615407 12.511839780506174 -1.2768481393316784 0.9113817657944884 1.0660505902266997
Ni 3.169520088770495 8.524599299945542 8.089827034320429 0.21831416919699823 0.015093918218644971 0.30407151536947635
Ni 5.848014801977999 7.96097664900106 3.6037775059071238 -1.1183527420645256 0.07172837888323776 -0.5994064221969031
Ni 3.1053914342861564 8.39992591861755 3.411613491272465 0.08424142374858395 -0.7201148305232694 0.8120168561409048
Ni 3.1966269526518185 3.963860355649839 9.324914902020739 0.2925501449934381 1.8450830210217837 -0.46989789908040364
Ni 7.44515486037079 6.254035599362814 11.73584758581979 -1.04359380388508 -0.4634534290066405 0.28701584543877023
Ni 0.5830868346133604 9.113909797735952 13.339927183291461 -0.5542614502291486 -0.32518130076489804 -0.4035539244375308
Ni 4.392967468649016 0.13240884342352197 1.3411548429647964 1.3998252890875633 1.134145229012092 1.147955395422307
Ni 6.141469344150942 5.51347243961984 0.4547822250768362 -0.7854293354603634 1.7068427744592412 0.046996680464512615
Ni 8.270022186037288 9.195776165162766 10.967004144262376 0.4679580017452134 -0.38034894707597716 0.8843620426725352
Ni 0.06105684645322377 4.940016728321092 6.107849555927663 0.8214785157744369 -1.2442663487409151 -0.19551259792145037
Ni 8.19473241679376 9.09004120349951 2.2951727306312293 -0.24643612424419498 -0.2680935546129705 0.15780402762708307
P 8.4227029612883 1.720394422685386 3.7141715735032705 0.7622606106533839 -1.71534232728982 0.03037064187205737
P 1.7528680817646898 2.95336558997456 1.6455767494940194 0.04641586826037813 1.298717428600944 0.9617319361122664
P 4.819009141001212 1.07941715078561 8.195787583307261 -0.5259723734764683 -0.2985837527820277 -0.11121718100647943
P 8.263609320588854 1.5548515314853177 12.571283859521092 1.4603238606932527 1.095007896690998 -0.4294433906097829
P 6.483597989890652 7.800636820264118 1.3730408834512364 -0.15071292510825657 -0.13249434521770084 0.23929334255182663
P 2.0010960040658414 3.2558891064057858 5.843660420857196 -1.3079001235414764 0.9537458325829962 0.3995563732423635
P 6.9887771507554355 4.0409420887137095 5.8631910072463205 0.2598236012946945 0.35606076395257386 0.11052375448388062
P 2.523494390879399 8.511373333474587 10.378623284555413 0.3731308320609832 -1.6082085723240949 -0.9884061029693428
