# total energy = -381171.01799088466 ev
CRYSTAL
PRIMVEC
9.21630631814643 0.00000000000000 0.00000000000000

0.00000000000000 9.21630631814643 0.00000000000000

0.00000000000000 0.00000000000000 13.48899589512409

PRIMCOORD
 96 1
Ni 8.64255443133065 3.047454647323861 0.3521191227249831 0.4152609284618139 1.5550538426779863 1.7922869602666747
Ni 8.495950645935483 5.905855202121723 4.034666676973178 -2.3319525149595193 -1.2920068493499879 -0.9279332423952665
Ni 0.5908021034118194 7.269896193499164 5.256796826158017 1.8913705912344136 0.4609424896593287 -0.14949139399632963
Ni 1.3059137471147066 6.782731455195075 2.61412696266822 0.3114004449307218 0.6203845671104671 1.6850724726616853
Ni 6.136917219072892 6.420447668176867 3.988925226838347 1.4294418264024156 -0.5366841034670177 0.2591399449641085
Ni 7.712924040607086 1.806681753617908 5.300757685902558 -0.682240166964683 -1.278464334778863 0.5293631443255723
Ni 2.420257350064961 1.7349051596242218 3.422455093868583 1.0148283017166135 0.13366985358304076 1.32902970643124
Ni 3.009741521666162 5.3603420282020675 3.86111717665 0.14906973307787874 -0.6136513621516916 -1.1847044300168823
Ni 2.8951644008996613 8.954388157290635 12.529752833371345 -0.7436486519791515 -0.3464787766910936 -0.60199937973506
Ni 1.6270928077318056 7.065607546546925 9.02757761105053 -0.1705926947513191 -0.8232021833337628 -0.8906540463288339
Ni 7.532524059760602 6.876922106275644 5.8316169326971545 -1.9510458956078591 -0.3909020400014752 0.07154608766910259
Ni 7.468830166451619 3.704706319648685 2.4617685155768974 -1.0012101967125466 -1.1783751453647449 0.8403912935185399
Ni 0.17846916466239512 5.885689923788623 10.967929907337444 -0.788407701362397 -1.4619343997134824 -0.27720323022372256
Ni 3.3740160308598495 4.827022027607225 0.7855758356697756 -0.3814848604526333 -1.999176432566499 -0.6930223451818517
Ni 0.3397407016421736 -0.17837331507616833 8.615852948521391 1.2848545545759227 0.5924420750639281 0.5059391089746771
Ni 4.732554887335618 5.090921744147442 12.215756040306799 -0.7658017910374231 -0.20750113774189424 0.03936333228897092
Ni 7.542182748834226 2.9248132584853943 7.58135573742061 0.4400062537272938 0.6264652260869081 -0.3403009300151558
Ni 7.528183179461292 3.022211184182014 9.916948410666928 0.9877787537979892 0.4372425749392276 0.8214664315895788
Ni 8.947466711208296 0.7510368059252023 0.09049859874956352 1.172717432858335 -0.21931998475369324 -0.8130378412062514
Ni 5.106865954164016 6.440115265966098 9.387126919969363 0.7014586488746628 1.296078191205884 0.8373499355890548
Ni 3.140815830831314 4.90721310931486 9.557736418561163 -0.9696241943761494 -0.35017653725765496 -0.242233399016757
Ni 7.096085871705774 4.372095928978267 11.881027166067524 0.5495355055083891 -0.16369159675611164 -0.28895779965648943
Ni 9.219163422935809 3.31084746701384 11.71616403449615 -0.2685013315743505 0.46485956532554784 -1.1473213613827338
Ni 5.158689244871065 4.893582192196646 2.5709080155863 -0.5630240269131271 -1.1447335460508994 -0.780815747947752
P 3.9962549552927866 8.363549188653344 10.213233306153526 0.39086398767468816 -0.8786912175400029 0.37245874569462306
Ni 6.713129909504228 6.529375193139806 11.529395585949406 1.1458149520405363 0.4777171380145063 -0.6058282665628469
P 2.260732303141911 8.212014679351318 4.152087949884831 -0.15828250992539836 1.2205826319707302 -0.8522147685160291
Ni 3.6808545187684 6.704383634761032 1.8200970091671131 0.0994772668617319 2.0976193446264455 0.995364536565047
P 1.6158489139628922 8.314260382197485 7.076759277252158 1.02056726108292 -0.4188216492298787 0.22045821212319452
P 5.015449411300204 6.521891552369022 5.915653057421504 0.6710720661630055 0.4179096789385706 0.5046828679700728
P 6.6491687433105735 1.0771097252236885 7.199373938802158 -0.7450018235729362 -1.6736408337859756 -0.457058067003258
Ni 6.833328977155184 7.683312048246824 7.831414405057423 -1.3014173440306105 0.9472669097268719 0.1131856175867599
Ni 0.42522194320501877 8.064332586111098 11.644456562800224 -0.4268033818837746 1.6234737260132814 0.6180440919027486
Ni 0.824939601797977 2.2565296674381203 9.665175510045675 0.18625405543765985 -0.12934937183081593 -0.05872990974104079
Ni 2.7828268425805756 2.3663696067314888 6.009091657902447 0.580251189424691 2.1818988207018166 -1.21063734783256
Ni 5.75181385748761 6.760160720899937 0.4557435850037977 -0.32596985810446444 -0.5375505652323711 0.8336724867374675
Ni 5.26772736551042 2.3416606893589833 5.733983069557515 1.2505647801551172 -0.9063714570640905 0.5599263618244098
Ni 8.99855269740591 6.869466114423963 7.534602336846578 1.2587717414459416 0.05524683628844679 1.1458555754704847
Ni 7.056925785948305 8.685161415669738 13.019835454271531 -0.9397528607380137 -0.3564937377249344 -1.2470662800835555
Ni 1.9707596558867309 1.2664218743279907 1.0117393857863728 1.4582353535953403 -0.07655356818602299 -0.6646481649145327
Ni 7.15958622258103 4.049737181146068 4.960348802048707 -0.8010678133285688 0.2145829842893401 -0.2633341855511142
Ni 6.038358038773909 4.651350011927507 7.050631048698986 0.6394423550728664 1.4610445409093613 0.803957476171538
Ni 8.073512027253589 7.565573734396113 9.761555033888635 1.1821680367482739 -0.9136556494303297 0.8383326112172982
Ni 4.159521822601229 2.317311207934828 2.0017126208235303 0.7723192804409666 0.7481413976431825 -0.5796886320530016
Ni 7.933792822715289 6.039906378243726 13.543895831858483 0.9963425842076002 -0.13947566163154046 -0.994606318242784
Ni 3.6845133923964806 6.489809589902147 7.6127040819005956 -0.445841115241516 0.39223721387313093 -0.6111206253100379
Ni 6.16653842773952 8.616804071338565 10.438095513810966 0.026933848276366516 -0.9481385136985478 -0.552118692854533
Ni 7.0615339391322856 2.03542126136435 12.539438249733436 -0.5481720495019592 -0.2283918651479744 -1.9947672477552096
Ni 2.395649812062503 6.755119401316661 11.107432528676098 1.3006038469903796 -0.38171086042051033 1.261785331461285
Ni 3.4063007520668194 2.2485944276553056 10.461512305030682 -0.02258431305841917 0.5662512756011732 -1.2036020382523336
Ni 4.719753437790519 8.816125129158474 8.27974807974138 0.12862277807743655 0.39013662259036036 -0.5010812666617435
Ni 6.189938629607776 3.748041392190841 0.40560319183953863 -0.9903981936987072 0.558197294948445 1.2239469204572728
Ni 4.204156394341267 7.381874315869899 3.987845997362658 -0.82525186677394 1.6190722545114762 0.9990952072520729
Ni 5.638093853213331 1.7734016713231981 9.204458806125725 -1.3279369875876936 0.009501511732532024 -0.8871889705983689
Ni 7.971607327743036 8.01743080300454 3.763807727494513 1.0730948986679907 1.6914174410431064 -0.7815605965335766
Ni 0.3834112477361235 2.998313301769889 5.138605991664639 0.9737199617120779 1.1935181716537702 -1.8487455574750353
P 1.6987035082108684 3.300092037482428 0.55270926593176 0.21407056342929584 1.0553221480656019 -0.9596789102379796
Ni 1.7129979993875768 1.6379035351014244 11.967167373535677 -1.1673119455720475 -0.25963256832981096 0.5899244508483968
P 8.037227429082924 0.9607538573281716 3.3453385719652995 0.2491193275033129 -0.021160693238015168 -0.952545898737624
Ni 4.7271909970294645 0.3519467777959022 0.14607108288709922 1.2889053276065285 -0.09723115114003254 1.414430440595248
P 4.202313133067675 3.3171882857949977 3.877641092337119 -0.3041802730331987 -1.4740455811547193 -0.9645781473118098
P 2.9756135391855993 6.83163317678348 13.328382645380703 -0.4782419001697248 0.0352164000001329 -0.6197788152056681
P 0.9451690832599484 4.87172111349184 3.926106882634319 2.0800623095792887 -2.3111780014163292 0.2523573748246363
Ni 1.163687707244321 5.439500883596491 13.157341823650883 -0.6717639500237077 1.313281442458048 1.2556139125432504
Ni 5.239322709284362 1.036585626123761 11.453614506838841 -1.5890394555948115 0.6704300617036325 1.2749573500668687
Ni 4.0927220340462425 3.2121131768938653 7.84598262053326 -0.1615580953528766 -0.1490735897326207 -0.16186097130527607
Ni 5.991382525216408 1.5774906468594354 3.3923472642257253 -0.6039017389640955 0.5515959875818436 0.33626352672098864
Ni 5.907744544927155 8.302214669774559 2.2852513646032366 0.9682468544126487 -0.0005047075505604211 -0.03625049769160208
Ni 3.8854565201371503 0.04296826354871123 2.385326627299749 -1.5906247978040604 -0.39742158628754787 0.03587717351258337
Ni 8.308122322156423 8.099031979586474 1.3896226929629927 -0.6042796911288045 -0.6548049535718657 0.6567044845874238
Ni 0.7833823547542007 2.932794579800049 2.5532643186754744 -1.1475558459910429 0.19446924425860057 -0.021873660144639748
Ni 4.332521109434238 4.412804354205553 5.556184851998707 -0.4898861692768724 1.6448534772406382 1.2835219518074283
Ni 0.6125046616470957 2.0900923907390996 7.166865261350447 -1.0075567077558647 0.2248895084216708 1.41199097791582
Ni 8.891929249034959 4.96572743844505 6.2884756907714765 0.1530989088419299 -0.6679366058578174 -0.8520651303120422
Ni 6.180630160176134 -0.4186765224224923 4.8413764247753255 -0.6556526462841418 0.5119994562361441 1.2286214431148066
Ni 2.1315289041694556 -0.02063162343531915 10.09467934918925 -0.2977509724680872 1.051849616135969 0.668019909600243
Ni 4.014097724421161 0.613877891295922 4.783400327937025 -0.7888764134686995 -0.7496580913980251 0.0511217583764797
Ni 1.33167332341316 8.134514759103128 0.8501517294981732 1.1325406035291334 -0.5221535139510104 -2.6379130198215925
Ni 2.196725055416417 4.013341987298987 11.852335882713422 1.554602871183497 -0.44540377059378133 -1.1251566523602365
Ni 6.855005729732631 1.3717642561137935 1.1373502685365968 -0.11916548931927862 -0.34374980779570474 2.0422778917416635
Ni 4.041377991270327 2.6928203945910614 13.232313711062343 -0.46644773574827414 -0.2846558298470259 -1.6208771689306987
Ni 2.687677695637739 1.1499830596751621 7.890819951013394 0.0705947794994268 -1.2846067002311747 1.3230727175168568
Ni -0.015311971399731636 4.691772731657387 8.542756579455814 1.238827694223847 -1.2608059982671511 1.2409565676413918
Ni 2.170182093076687 5.591394828846869 6.0279896941099524 -0.7138544514358546 -0.9324807525566328 0.8736762808239147
Ni 0.8389557605223733 0.14866362986840684 2.676770197051256 -1.104841594951968 -0.0791976906770894 1.7265284258136264
Ni 7.673902199445136 0.7229141686740037 9.250267535297043 0.1085388628433679 0.44466894931028583 -0.3909418921004751
Ni 8.804199228718332 8.998764672452372 6.427870481325623 -3.233930728051921 0.7472970473650162 0.22247241433974588
Ni 5.461398827526768 4.192636011381316 9.391996816254196 0.8119998868600403 -0.13318005843081582 0.8742956595754684
P 1.9924271921578087 3.7365947396818324 7.729761310710715 -0.11165169744073673 0.4331640339944798 0.18105862727964947
Ni 9.149644824002273 5.103796924143485 1.92435371006277 0.5351915780818912 -0.20042829005551288 -1.7421021118821676
P 8.451657077531058 1.0472488925914925 11.270743634255107 1.651581282882775 -0.4967178474867252 -0.12356336127665818
Ni 4.722002216544301 7.395975264612881 12.066769839715514 -0.9988800059174734 1.634981726652881 -0.8839738060951808
P 7.346760188607965 5.626803877912578 8.89502131982141 -1.2523229004968044 0.2985395298076536 0.13668524337059684
P 7.052253118619748 5.92436154530859 2.0388617085315106 0.6255285732052517 -0.07300004650680976 0.15080162816732093
P 5.27545984655314 3.233015759736403 11.358085648073644 0.059372942641678396 -0.8850814373370628 -0.18874776839379107
Ni 1.3712757918762914 0.7157862773290222 5.427675440895759 0.7901637648215553 -1.54625989853544 -1.499364262425166
