# total energy = -340868.22137084097 ev
CRYSTAL
PRIMVEC
9.33997403758488 0.00000000000000 0.00000000000000
0.00000000000000 9.33997403758488 0.00000000000000
0.00000000000000 0.00000000000000 13.66999610305183
PRIMCOORD
 96 1
Ni 1.7899686616501 6.404065268695047 7.070204357995869 -1.1552886958589266 -0.27988566215189215 -0.5281038179971744
Ni 0.7708467360827048 4.11913402365951 8.3018293725391 -0.43095365660672236 0.2836309881269373 0.5183431390659847
Ni 2.611045778029572 3.3918022265508916 1.4503868201120134 -1.6022698382421567 0.5381632591157054 -1.8138194350218115
Ni 5.025727942195397 6.427172364428442 0.27022973242362314 0.4229040468293685 0.34061537593178115 0.3713192327735411
Ni 1.6972320595737516 8.773943577471583 2.951666224679039 -0.4475719818896937 0.4010897791677544 0.15994421389853744
Ni -0.017179948218273244 2.034339741993093 11.146460428909673 2.7245041747492755 -0.9717075592677394 1.3031929478737942
Ni 4.540731111092714 8.775307213678971 0.32280071021060414 2.3754766634943993 -1.2586760964083419 -0.5148698358054036
Ni 1.5583092859526817 1.5994985713949916 9.247889351310016 -2.5405659119289856 1.6363392691220398 -0.2642844652795255
Ni 2.752537044507022 5.908514266946148 9.065695412036865 0.07278921604758432 -1.523053892732622 0.7994485325575909
Ni 5.886527968095536 4.997941519476377 5.419579702795285 0.9753466986822235 1.1979718365497498 1.7156372328224196
Ni 9.274472785374847 5.783237195372973 2.6851155080231535 0.40653074767766767 2.294935571415538 -0.34195183535501755
Ni 8.137648507167091 7.789426255660142 6.260201648815705 0.7197934426281087 -0.0722719100915336 -0.864299210484389
Ni 0.6519983686296976 4.060507006715886 12.926293350749797 -1.2620897500755814 -1.834696278470821 0.3064413011532335
Ni 7.1324524828682865 2.3887917561735157 11.229450768092812 -0.910635374546767 -1.1409419402189511 1.297973608456384
Ni 8.084205175806343 1.7682158621500683 9.167167691817111 -0.187639880041593 -0.2934407751285075 -1.6460516113137975
Ni 8.606440483339522 0.23244486751276938 1.4708236172721763 0.8573356346823622 1.29946150585582 0.0992461246875323
Ni 2.7281783922545175 2.2298253982986593 3.417417105309516 0.35847837225513096 -0.8385321288226139 0.9039561627543787
Ni 9.527333902104928 1.8070141142424392 3.8951287566741035 0.5507164131903677 0.8372069822532873 -1.015033218638568
Ni 5.899034193312601 0.5214815716295071 4.674236699780328 -0.31005344398452406 -0.2034421371811722 0.4658283569967203
Ni 7.8666304809359096 3.828623471641911 7.585302991377921 -1.2302222119430233 -0.07375595083622781 -0.3859313262597612
Ni 7.294519712118845 7.933784894162714 0.8085232572948895 -1.52262169029121 -0.5150613829909194 0.8761674226768846
Ni 6.775338576091252 4.533203092030015 11.973303111253667 0.49148668099477294 1.0758030416277728 1.4987873068757736
Ni 7.047113140218312 6.015158090343041 7.932904134612326 -0.22112104251817405 0.8516655808807784 -0.16645656109575846
Ni 5.57859836452467 1.8994238172279754 8.30072258561735 0.3910059125691911 0.31261657672601 0.7560614238212076
P -0.06993118750390195 2.2676989929627336 7.314678178053116 0.9709418847463084 -1.3800583908732813 0.12182683820152566
P 4.60380395567138 3.208019557696394 1.8764801710399857 1.110603951357042 -0.5930917928327851 0.2438207981085349
P 7.5460545525376315 1.0341592837447464 3.2694532368339893 -1.04350947170139 -0.6391880729702153 -0.0007939566562050844
P 3.6958464009281062 0.40206720175069405 4.146670135074706 0.5953852168526521 -0.10942666476495994 -0.7074614034253172
P 8.22877863371145 5.054411002420642 13.83964100450186 -0.715543151992187 0.4239371160795732 -0.8679933715065246
P 5.981141904950547 7.035466192611382 2.406807632066865 1.2098282216677034 -0.03432628408569572 -1.1768671933606505
P 8.907159626964479 3.9196601984460373 4.394944390561994 -1.090079349041129 0.4990976605728115 0.44995513740988957
P 0.967630648777496 1.5764568554797584 1.6516632603119634 1.2574363104639699 1.032654274154441 -0.33378755437667035
Ni 0.7552480454665593 6.366938871952828 13.297475126400576 -1.634611744907972 0.004203753668702437 0.9985007682011836
Ni 6.356011102345685 2.635198950853566 0.5756076550913508 -0.4369646386874926 -1.6810844345482145 -0.895169160590368
Ni 4.564482665033711 5.9436792691434945 11.55604070576463 0.002672918846472816 -1.2592695070179667 -0.505590981606639
Ni 8.528078101284878 8.477941120728342 8.685573413251081 -1.4703974428791708 -0.5390716298625877 0.8953167419118258
Ni 3.393903720706111 1.7061143748698144 7.267434721448968 0.11697208121238564 1.1177562461311072 -1.8052237229330004
Ni 4.827029334825849 5.5732558993834 3.468255517915194 -0.5828991685704994 0.7420306567597543 -1.3157674421046952
Ni 1.9763198233609773 0.7841795490008223 5.454711081086147 2.431128191420432 -0.22277786139530664 -1.7512886634774418
Ni 2.333060131177084 8.095039545673254 0.07870422510389329 -0.713157939589462 0.695164588335835 0.8393556531651737
Ni 3.844211888286631 7.773987278599794 9.829642709308631 -0.3056373171946994 -0.8700227432317275 0.7458204628194897
Ni 4.115724933141042 8.07555635986086 2.7879140641146947 -0.4293408035936477 -0.6096988052618468 -0.88009735385891
Ni 6.4632340041320155 3.955357579162706 9.515519768962983 0.05050649338998398 0.6000494550975408 0.2913548391337563
Ni 1.3257065728789204 4.171185698890801 3.341398122737293 1.927465537184758 -0.5219185151220689 0.8478374653839398
Ni 3.275753049312637 1.028573979278873 1.1322047270558815 -1.9342267671679914 0.2162500875791179 2.694421753541598
Ni 3.750681388418311 7.625481691630921 5.135735090238044 -0.7113656235757297 1.3657548297664157 -1.2524321723811593
Ni 3.338078695969448 0.47215810281039267 9.087635945014764 2.927840382480203 -0.2513155638236833 0.7018592267471913
Ni 6.094099550787123 7.286860933419821 9.994134595815614 0.8850968639560304 0.3783185469095097 0.3222636128974708
Ni 8.839286035737887 3.7435456482645866 1.7590001097813774 0.09664468250894324 -1.7744918410667827 -0.409506799586856
Ni 4.417406094090388 1.5341000732845487 12.994492907069798 -0.4794634312816517 1.1730797012937604 -1.077896690932008
Ni 8.07065287349868 6.136232173605776 10.567849972169864 1.5060146778621484 -0.5546769405000125 -1.4419170760512907
Ni 7.869049534207918 2.3616684716101446 5.632134161628248 -0.5444004982746689 1.046219157323069 -1.3982039514340565
Ni 6.380098895351517 4.65990917962874 1.399738942976409 -0.17885750586327262 1.8317806474859226 0.16670904342619675
Ni 1.590205297241908 3.946718103191246 10.656828168699276 0.33939770147459614 0.054258504233248496 0.26444490211678967
Ni 2.700999067847007 5.79461328373323 0.9970543689427815 0.37061963560335526 -0.12801111263536663 0.5894691084785333
Ni 3.339722531397531 4.97178959221142 5.160697104812447 -0.903789041048895 -0.15411963679696036 0.467587248669356
P 4.952736045204093 5.5990062077653615 9.28747776520475 0.07363150944322158 0.06933056807502253 0.17543048245959464
P 8.58471570376156 3.9646601932898125 10.54730389731363 -0.3805926876556671 0.2728588372120978 -0.22665225674904835
P 6.030008649039928 7.486381458503409 5.917044465221537 0.6538222779436224 -0.42324240400539365 -0.12402693117663802
P -0.06854887134846842 6.268262046397725 8.476217895521062 -0.318537055975503 0.8686400039515878 -0.5598104050718359
P 0.17234867265529655 9.17677665709218 4.764157299688682 -0.23379272444857155 -1.7790000133497812 1.0999097048679896
P 2.675248759465046 4.217978968747031 7.4770909863425326 1.8022083331454446 0.14265020270478013 -1.3953883363621324
P 6.192253337796927 -0.0332092116368883 9.100457861353812 2.0255011865039565 0.7371527598421628 1.599341608851768
P 0.09661829528039002 9.100889368153684 10.762114893870597 2.048029963734092 -0.4301846396511817 -0.8981770941787564
Ni 0.6749513547917105 0.12529668551862422 7.035933191312543 -1.747437922272784 0.3279359806918997 0.6528552860446627
Ni 8.524827790324805 2.071139239644499 13.480666574899404 0.10248057246442994 -0.6911366981233645 0.11373686210453961
Ni 1.5465782785795432 8.367738767228612 8.871499606143901 -0.5891878297926886 -1.6988520429442808 1.5783115276543465
Ni 7.425737007170775 -0.0010516810750122688 10.939660328072403 -0.6888628144875233 -0.4387896077113733 1.1286906336554239
Ni 1.7557936966992127 3.068564405556002 5.8759653914726995 -0.9259452654309601 0.5766411034759295 -0.024110262784642345
Ni 7.294258192846195 5.057978872497506 3.45777046307675 -0.3582246043731121 0.15852882160824958 1.003116155486008
Ni 5.414476340989008 0.8143476650957567 2.3176108801453097 0.10811540215270413 1.0410237291650586 0.13785869485340774
Ni 5.033807019725464 3.077474740774134 11.34153139036861 -1.7862798348406461 0.33554001829140273 -0.8565190523183378
Ni 4.355538106160713 6.492897761629698 6.888775362595217 0.3549472191734209 -0.9608022252091454 2.065225501676772
Ni 5.1039782445617625 8.754385671867004 7.510596275155957 -0.9291871694070256 0.06711479137062634 -1.6286267309691307
Ni 5.022795190352112 4.374815812544598 7.538784316757973 0.32101868474677614 -1.3698732228101635 -0.9559168720923858
Ni 5.481471974657419 3.367079315311482 3.902989278812028 -0.33922800866595126 -1.9206629124406278 -0.274716716356443
Ni 5.069485720494086 0.1312303710155629 11.069512118922141 -0.6564023799659727 0.5592537612374175 0.6406700568323804
Ni 8.194155350007449 8.162511518016847 3.3761605720542396 -0.44225314077994154 -1.0608600471646956 0.007034281138962079
Ni 9.119662715940313 8.468722566367445 12.919431271834952 0.2375141391642168 0.720669674585475 -0.5567690471423508
Ni 4.400323281601955 4.138738629134205 13.40824254832871 -0.5313428937597624 0.1562755067976986 0.33168593465263524
Ni 7.100220232514225 6.930438184720503 12.468362830368946 -0.36915744923553195 -0.25967242042881084 -0.19107590230633542
Ni 1.695513504353483 1.791780616610601 13.218366480421476 -0.2665976867937344 -0.012971986779635724 -1.0363160392767443
Ni 1.5741779018180977 6.835049030021566 11.118997169291859 0.530332450217377 0.026470792597018924 -0.14546093268069787
Ni 2.1928484411408125 -0.08512452324744066 11.514305965839364 -0.02340243808434034 0.995180188468383 -0.5886599823136764
Ni 3.740640916343372 3.319090528780283 9.172922983810208 -1.0264607437492193 -0.269202214296117 1.2201290893730794
Ni 7.190332301890054 0.5430821295529608 6.788861924479442 -0.32688877037430797 -0.22895467962997987 1.5804491428226395
Ni 1.0329731070438002 6.878676048683932 4.8292270307135094 0.4600577730615303 0.769334743891346 -1.261785588571601
Ni 8.755123529814837 5.494800117588524 5.944547886727652 -0.17015406455200374 -0.932561485195897 0.3113603357214057
P 6.429441978116079 0.6977651753407776 13.13724880602999 0.8250772888692887 -0.6844063213780665 -0.5057807290199419
P 2.4048845314154885 5.119678740894762 12.550943144692466 1.4862264394916274 0.1534184969648777 -0.7749284359290396
P 2.5556130322018826 6.0469607018920355 3.189168688125371 0.18528963464186154 0.6273273169768875 1.2202429892431241
P 0.4415687538870119 7.519538366285769 1.5309030001764072 -0.34378246080585306 1.2472100047502714 -0.8406664015567973
P 3.7390344408113814 7.794283042152206 12.122320528799012 0.4192831622473295 0.5832177282521827 0.010851855112839374
P 5.494557278263922 2.1481006255956636 6.167027001957668 0.2171628292013744 0.3978735862233019 -0.3762958600525262
P 3.0021758701990997 8.246020225758276 7.314705263977784 -0.7286868884629967 0.6574891852722483 -0.4303682164168975
P 2.972175873636582 2.0846355021080227 10.981627633350847 0.18205930063002193 -0.2520046194709079 0.42305959857062625
