# total energy = -340864.47978242976 ev
CRYSTAL
PRIMVEC
9.28594518569781 0.00000000000000 0.00000000000000

0.00000000000000 9.28594518569781 0.00000000000000

0.00000000000000 0.00000000000000 13.59091941699179

PRIMCOORD
 96 1
Ni 5.8552526388094135 9.167317082465502 9.303786116413223 1.4857063053220994 1.023205212926399 -0.03353335587075515
Ni 8.565030687805002 0.15433890656388805 11.58561953150181 -1.9437341924377944 1.6486450830725867 -1.660172881206528
Ni 2.7920979516885485 7.782253379591986 8.101044515452182 -1.6246692889832792 -0.7580591709775267 0.36259933640204006
Ni 3.2593388477744627 0.8009294735581028 9.10054742332016 -0.5763677952098847 0.4715819716510459 1.6501676903647
Ni 8.011309785652587 1.6859654656329803 8.970210827470403 0.5998321968804122 -0.4853566568376351 0.400395067093575
Ni 2.7186368405544252 0.16407150555006858 3.856953483490256 0.19176238685039876 -0.5389011657229945 -1.3203959420156421
Ni 6.7326908706605595 6.425112513424362 0.4912302064770018 1.0925728048869443 0.8882356666953284 1.1239865433115352
Ni 2.51888687700922 5.273915336137104 8.770138641632649 0.7270272413723866 1.3738838866314533 -0.25288985028933864
Ni 8.531201990059886 5.659012762485633 10.775261109360015 0.8947120184482913 0.08792555746839051 -0.02155587179390481
Ni 8.370759431827631 1.5267857959248352 1.996220960821392 -0.3619480759712863 0.6542251698089958 1.5857327598190818
Ni 6.294134258773015 5.297845216479998 2.625167303663673 -0.351534079726814 -1.4243055336171146 -0.4794168943144324
Ni 4.619070492605521 5.21273024433294 4.863619569354552 0.5078108720760931 -1.6896698622243804 0.9291429464326514
Ni 9.105519118289344 7.269232774507055 1.617237400680764 -1.523068033800009 0.6044010471980172 0.9695943695794785
Ni 4.293625977131167 6.285294039104239 0.4928506038847763 0.08731543468821737 -0.8965061342342368 -0.19849019249253558
Ni 1.0043678144693142 0.24505980372569333 2.0076231727240073 0.1063490542809007 0.21688386450837488 0.32946115908717455
Ni 7.608002621099783 7.344578932482314 7.867905079361791 -0.22273543819314542 -0.6282390301578793 -0.019261676443089407
Ni 5.560591031110261 8.696380380257558 0.6658208305573111 0.11321827059690825 0.4010846369614318 0.5916247213689553
Ni 0.7902608513128754 4.4342894724490405 6.571956733754354 0.5861446720909905 -0.0698257625438862 0.7900079559699814
Ni 0.5921656431720563 6.826599632751241 9.058687311718401 0.5150282157601388 0.23403723635920987 -0.3702694513527881
Ni 4.153222488274141 7.286114622572007 4.085267013948439 -0.6208198548756727 0.614539935404232 -0.9466305616944537
Ni 1.523619288669528 6.520739175345636 0.47149385890975803 1.3000562020170257 -0.9380060532502361 0.7443549340175567
Ni 6.384449360136999 2.5133338818811444 3.657221163240608 -0.0745967015699683 -0.6647654072186875 -0.5928243981040113
Ni 4.819776908488839 0.10476403183101704 3.0255150375353437 1.847959314128314 -0.003191253243788052 -0.059522580845665224
Ni 2.0158579487768122 2.5707303081129753 3.3198813521825348 0.9523942036511082 -2.714157027186997 1.7081254978264069
P 8.536142112815966 0.8188662049784885 4.13601563213313 -0.5661445748199798 0.38389964054171305 -0.6662327357928333
P 0.9375740118668939 6.8818510056810895 6.881286420223252 -0.5059262534588707 -0.44605785923801244 -0.18705546829303268
P 2.034039829145996 6.875935858696835 3.3876455360406132 -2.305470923729223 2.2848689312081554 1.5575007615565821
P 7.6354147308290115 7.233296167240077 12.129773124489581 -0.09575662347703509 0.29473712534242785 1.1929455869797518
P 2.822045124411029 2.496424175981102 11.05951502986929 2.0038278152955815 -1.4360259073778365 -0.9289922797874001
P 5.69983377683851 4.114342236432582 12.133483788123662 -0.5639159425997772 -1.7118795655522003 -0.3175078433800403
P 3.22562158136971 4.328132548863489 6.661208594412377 -0.23891410483553693 -0.4285985261109844 0.09191925200881589
P 2.0543667628171622 9.144872953327445 0.2916678190214069 -0.9083884874941194 1.1226680816104277 -1.4719002526769425
Ni 8.463832458865593 3.5230968304130204 3.921374727137453 -0.14094453286758307 -0.5548957413790379 1.3119048738254955
Ni 2.4202422829531223 3.077157892226446 8.521778613043212 -0.5052207427514138 -1.5924662218881735 -0.7834035632795863
Ni 2.5644622952175724 7.947840351370988 5.750209100032986 -3.1600778466265127 0.4252200965570548 -0.9608305073439193
Ni 0.407416195228679 7.806108972374638 12.422671331227495 0.8279656661606773 -1.8036545786736682 0.9371010249374636
Ni 3.3325120946126487 1.831151216180574 6.329454279289985 -1.750135266599289 0.9030886725477607 1.857110898720595
Ni 1.6093842769687012 0.33404422916684623 7.218150790895778 -0.8603597662206667 0.2121311803147379 2.8954141436306973
Ni 8.418517047118087 8.54732239063236 5.8485667583876495 0.3636753430750381 -0.9455234446732039 0.3267666429741469
Ni 1.303245241212189 3.765051414120606 11.486528283489758 -0.6084181387772102 1.8697123895346899 -0.41119241481939506
Ni 2.0222838227377293 5.016908235535521 4.458229567331468 0.21259320755282093 -1.0775071688030733 2.1098881346914697
Ni 7.771658116312498 1.5781463578870187 6.108588076746043 0.15899804793518424 0.17248888333276746 -0.3671414472467677
Ni 7.9612956857197865 9.212381773697192 0.4406190202787575 -1.5011645488586987 -2.195527724339161 -0.4705213915970155
Ni 5.503241034603581 2.7486304430020576 6.085619291713779 -0.40972971423093957 0.5769344663466321 0.033565751770587356
Ni 4.92796745403601 7.197628852378976 8.452477605282631 0.555003727711812 0.1601784413965306 0.9278581661829569
Ni 6.0109593650762525 2.0635691343421168 10.55184034333826 -0.1840179670182895 -1.7538240283047861 -0.23622807336294155
Ni 8.219658534295782 5.962273155282775 6.036637788868339 1.159110897818494 -1.0726732377495398 1.2845059129872523
Ni 5.638676542869436 6.378859221228803 12.037545118449373 -0.7361963094661643 0.05034579944240362 -0.9865875617033655
Ni 1.3062074576768314 0.9814501021347148 5.219823777741531 -3.0165465268683596 1.582575702247339 -0.7788809928188843
Ni 7.321698363927836 3.4241550861159555 1.1398878248349449 0.22198030519467576 0.5610864435707821 1.0013243536929077
Ni 0.8097111917731881 4.025234307922526 2.4867844364452236 -1.4653786495083407 2.6560632083680575 -2.864686375529537
Ni 0.22702835566599922 4.138216401105294 9.211761472569172 -0.2696968945443484 -0.9559541530882245 -0.6111959586326635
Ni 7.055674610701902 8.49695542478841 2.667489855327937 0.7729288890005075 -0.20894069840189822 0.45773863801005044
Ni 4.217471941938278 3.230264553884823 3.1078358688228063 -0.045122346259935185 0.545692220502899 1.0284590051261706
Ni 3.674392732790503 4.458739365713627 12.623870830791917 -0.48132131042599685 -0.7725635352412888 -0.4274690404922315
Ni 0.06615492958434069 3.4153148664471797 13.468682894779365 0.5427498500451233 1.070034514575112 0.9331973190076831
P 4.248375566998873 1.6205274110049732 4.5592912928789335 1.0406015540259757 -0.45389252479108283 -1.619994509215429
P 4.459732961831861 7.454700954595771 6.104959129428232 2.6293275921454264 -1.2054874282005044 2.7228370714594976
P 5.174295717852832 7.156055676478652 2.30058916686064 2.287870694148957 -0.02788824176983584 -1.4777392279562227
P 4.563094815963314 5.83098846444543 10.181039557958266 1.8871568102633822 -2.138495514015517 -1.88413319294571
P 8.59075275553873 5.212767388113061 1.1613485723943016 0.12485379795330756 -0.024619084100260827 0.16785087034012386
P 2.1222655928781795 5.915759856626369 12.196123987514062 -0.5777798450660631 0.22298792052358368 -1.3901222028671867
P 0.06503968758621047 9.133107660974147 8.96035751119883 0.13839374142127134 -0.7480431815024213 0.1518105290478095
P 6.760836570047176 4.3328405229938145 5.139814218172091 0.19084784545592937 0.3162824556133714 0.023913316282487846
Ni 7.597351642150113 4.698697471239714 12.614343451190905 0.5018171163865035 0.10714763892279612 0.5276147941758977
Ni 7.037845596243867 2.1777398284887535 12.66499735273629 0.2168959486932329 -0.4126381461269861 0.3012949810656037
Ni 5.067739498630981 3.871533345782215 1.09958032324224 -0.9833094051727257 -0.15155264740073254 -1.7674480468461238
Ni 6.076564566714805 9.030061528973722 11.804787334699723 2.206977360936999 -0.44828829123042796 1.340072594508963
Ni 4.478583430243221 9.331353301424457 7.3922910466421206 0.852516616027164 -0.24876965747337798 -2.249470497104203
Ni 7.265518396494964 3.3984144464921675 7.498395968935503 0.5572454725581371 1.5755707316844156 0.42438525936058524
Ni 4.412894655099398 3.620060668418647 9.813350492757902 -1.365903439529138 0.8838771326163165 0.45870125903363584
Ni 0.40562493643234837 8.229065196611401 3.9004442070393224 0.24038683272632147 0.07802243942206565 -0.16835840610416167
Ni 3.6488285261222893 8.263738915354269 12.927464589015646 2.044643306650046 -1.0221644303667106 -0.36624798889822086
Ni 2.471862851376152 2.4185150971775 13.296702549847051 -1.1766465927094123 -0.8546794280064377 -0.222176737476198
Ni 0.2218319408270844 1.216997383771444 13.292626019978782 2.5865346653496166 0.0966379976407239 0.347527272560266
Ni 6.9639294738032635 6.473055847615421 4.339417757858724 -1.518796917228481 2.1645880973375107 0.1912507373213029
Ni 9.163026975861538 5.9095847031812685 3.8578913639383092 0.32551194463143945 -0.40168884620433404 -0.7630846492165761
Ni 6.703793009726494 4.150000265348651 10.045565048723283 0.3302900827463731 0.27467917825028826 0.7314176571305984
Ni 7.890880364555578 7.775121773808773 10.094329260455018 -0.48230450027487254 0.9970043861613151 -0.6256316744420193
Ni 6.236644973090882 0.24815109482625577 4.905139815368203 -0.34761854672249165 -0.4894529383941957 0.40216038652411384
Ni 0.9583559568445412 1.2567226566107537 10.334072860650904 0.33519703312968724 1.805625843467426 -0.9208128293004013
Ni 4.514510751565168 1.515874810514319 12.528367671939547 0.2721409852094668 -0.0525831734133546 -0.5178474303764887
Ni 3.0910403800466346 7.837616183862197 1.7537723648381984 -0.1432839796340371 1.3339649389493284 0.8833341156286529
Ni 3.7933549745727366 1.1396733195047468 1.3573442283637864 -1.2682498561397062 1.1179267102707005 -0.9883870768059494
Ni 2.1435489788874587 8.981468178630546 11.47937996300549 -0.5370972797450363 1.6141383075449685 -0.5714888698510288
Ni 3.044833517576227 7.045088633367444 10.4900423791621 -2.2029576982546444 1.5080571622134737 0.32563072959749084
Ni 5.496332291501092 5.330485313261245 7.4027293774506 0.22855770130187733 -1.3265573336313476 -0.9050349976408542
Ni 2.919807553689256 5.377100757312982 2.4059865001427183 2.4066307204997 -0.8462464667477361 -1.8168361103609487
P 7.689570362245294 5.28360057680363 8.644109795682411 0.7604667519777548 1.4105601590065642 -1.1861339633745571
P 8.762607740213134 2.627151710116632 11.228939882729284 -1.2722702901530087 -0.012044332759043774 0.1917451604592182
P 4.365099896028822 8.879972799450169 10.800417663041403 -2.5921070172310716 0.30571136496574447 -0.5507791481075031
P 2.761602908209284 3.4977090567003803 1.4545820017478048 0.12653349964857566 -0.8078928066702021 -0.3040671444941021
P 5.991913891819259 1.6210752817617566 1.261412987445521 0.45118541027256487 -0.4158024027875807 -0.09053291318425054
P 6.657344712685299 9.076936979486307 7.064165678837542 0.046195010498823665 0.8455612677552535 0.2039743555355584
P 0.23123860314270397 2.297834955564675 7.097123354938822 1.0043649402914445 0.5744934610053074 0.9759460228291191
P 4.9952255538899415 2.165064513522494 8.335623273022259 0.4667817220489252 -0.46734916451662095 -0.6927436375991682
