# total energy = -381171.2155717906 ev
CRYSTAL
PRIMVEC
9.21023203001272 0.00000000000000 0.00000000000000

0.00000000000000 9.21023203001272 0.00000000000000

0.00000000000000 0.00000000000000 13.48010556044269

PRIMCOORD
 96 1
Ni -0.1389952943413765 1.6265361713281359 1.4698839413292424 -0.08106354024123458 0.7473060462260807 0.43991395112380366
Ni 7.303907345500929 2.771699570166507 0.1500798084845207 -0.8990875218081676 -1.2042221883348359 1.150576892205554
Ni 0.6593955036655075 3.239312256133748 3.072736001216501 1.4644296553315101 -1.2081019830052162 2.7772002195914105
Ni 4.162859053964777 3.572943698029266 5.259128094488474 -0.385779116952613 -0.42708723167278057 -0.8650062638537426
Ni 8.149563211791808 6.127291004577941 5.124044385653199 -1.1397774875972049 1.9219806028107869 1.9024335339167948
Ni 0.7546219337683715 0.9572194058138581 12.941858726958596 0.8522695330133645 -0.08310396771003106 -0.4164816882427924
Ni 2.9906912550701543 0.448494086500404 11.672059706400848 -0.3824045440534253 -0.6172071978237499 0.4822829030083178
Ni 2.2283327264698416 3.375025023810715 1.2902365252387924 0.8734045152197667 -0.8154562208397569 -0.26959199353536795
Ni 5.251637412849405 6.924722096416387 3.758644078552516 -0.7822895042798012 0.8953745917329546 0.6332683650516707
Ni 2.313177383126796 5.932301184117196 12.212598087867882 1.5023441709890966 -0.6447889640967605 -0.7574547046243083
Ni 6.766333737696278 5.376528157993598 3.3519091836807084 0.6674925763418634 0.16490310056570956 -3.076160381876251
Ni 6.590924870345899 5.092180667223933 0.4516928000541339 -0.3209160977306409 -2.0240729386978624 -0.33515872369258404
Ni 1.7688987264677953 2.7239076766153847 6.486222032597101 -0.12165431717940339 1.8671801100311392 1.1642525899204337
Ni 3.3576176854388478 1.1725822593320478 0.5377789959769759 1.3124905711256363 0.38676976300065646 -0.7825790104957618
Ni 9.037779559890305 0.8940648453821675 3.721358296578531 -0.39766429842597323 -0.6685510995133648 -0.23285092936059254
Ni 0.7199546207357209 5.075703562278287 7.4600788013924095 -0.3887160880937499 0.895907067197657 -2.1679726975390277
Ni 3.8836692930830727 7.676571750369979 13.108782207620084 1.1539635492895997 0.48430584697561746 -2.636551363587375
Ni 3.211497355666531 7.10533474481444 1.5839121389201116 -0.6904458427039271 -1.9434405724567758 3.3700377303215445
Ni 7.526794958516376 2.7458096081753323 3.2559984333444953 -0.4740692568492739 0.44241949115447676 -0.056928080645611626
Ni 0.07475761063321394 5.560419648963284 3.2768789501819877 1.349064256484612 0.7751390092779489 -1.0989740804275978
Ni 7.889134693377562 7.903484234744424 3.725024889914954 -0.18088842025037233 -0.5421096453579631 -3.0178338782212153
Ni 0.8354500082750762 7.8926345815158205 12.49187903004582 0.5268612038393248 -0.008124685989663427 -0.3322268947577698
Ni 4.6294586144183105 6.922760317012573 8.153859784993118 2.01209159796627 -0.29503100243376285 -0.07319416479548685
Ni 2.3044184525492053 1.6298794855233676 8.759291618682642 0.8969879589666616 1.1709816811141511 -1.4402263186124291
P 6.442529613283714 5.453479645875584 9.459219511081969 -1.299479246467633 0.6319180216713634 0.4664168825103387
Ni 5.50478984802885 3.8245396040103796 11.293605749732562 -0.5498756624566272 0.5491187296859446 0.7170716728215715
P 2.671639610340068 6.608847981706562 8.474497431663753 -2.31179095240998 0.13771008509068544 0.7401205842212351
Ni 6.3729186802601285 7.715908650997623 9.837794121788702 -0.6802061672537898 0.8545585861578573 -2.4726113982658835
P 3.814979383253767 5.314911706296352 0.2591482961741992 -0.10272328460285536 0.1571442825558971 0.4123262713135221
P 7.844492699150873 6.357021819926878 1.5895064338021605 2.0048976513209924 0.6211798093182527 1.2927100460645993
P 6.274498141719507 8.614606243047012 11.798893810484968 0.08053157899716452 0.8805313560725352 0.19906714804192815
Ni 3.142577190038655 5.023288132291886 6.7055305494795805 -0.7940944673345292 1.0739965845466537 0.5160237469041886
Ni 9.043996466451688 4.325410437523026 10.413839789441571 0.9869518870213196 0.7695561158735328 0.7275342629157922
Ni 6.937570369976575 3.3968809042109487 9.47799733196692 1.0051023326781012 0.26842856935488607 0.38327897623857865
Ni 7.0888852705646235 2.0228156108984914 7.592386546320129 0.026392631060915838 -0.5317247025792132 -0.32485348511183404
Ni 1.873508540873971 1.3604249398051897 4.73649071982544 -0.083457751505024 1.02786996539192 -1.1507517272205214
Ni 5.343969988075845 1.5278669565250582 12.093999773187003 0.4117130632095555 -1.1752571685610533 0.802917722053114
Ni 4.900027598201567 2.401715342792808 3.1744169618648708 -0.46664416802979636 -0.26140894350394334 -0.733622378091401
Ni 5.873871472672155 1.8087329796203493 5.368074086093314 1.4579946983394438 -1.3905058114588504 -0.5155401223995509
Ni 8.425529391493537 8.720201552271066 10.710645039937049 0.39361403961599956 -0.3828074359187988 1.0561356451058326
Ni 4.240114479500875 -0.10108413761847643 4.111890551416588 0.4539460037368376 1.215377690731023 -1.0909069871487471
Ni 4.839147965059745 3.305736448905128 0.3221554928948055 -0.38598326254361914 0.1718731041256395 0.14365524693052678
Ni 5.801027748236653 6.900655760349884 1.2554927672810168 -1.0124420608726241 0.5320039243825289 0.6654832592213183
Ni 2.908305730341924 2.6994729312711705 12.257608491372283 -0.5986006384661563 0.8762599823906909 1.1415232666437178
Ni 2.8447182890089224 6.1796695936365715 3.805042464010694 0.12050272007346341 -0.5698577620055089 0.21365867270285785
Ni 9.227455076520062 8.42435048180486 1.4251977379892282 0.05284311194296061 -0.6485036939441864 0.6025650224305429
Ni 8.303291193148867 6.201884673082573 8.659296130479802 -0.2627384609486443 0.19210562912243045 -0.4358796331534299
Ni 0.18021845047090276 1.1560683134586305 7.36916920700113 1.191466174220748 -1.3489675830057477 -0.08557762606150422
Ni 8.03156172014082 1.7645514969907998 11.553191531924043 -0.6043437115975204 1.0829435093272963 -0.8697674326878118
Ni 7.7386487136643645 7.324473793429173 13.03193203228947 -0.7232227800246318 -0.1032472754271254 1.214482175499947
Ni 3.9583458536751905 5.182634355134044 9.970506195898711 1.9481248653063226 -0.01552869176321842 1.2105735844741603
Ni 5.75690152699876 6.493554298246754 11.625485405512562 -0.8562519146998803 -1.8883474881373734 2.2098251147984396
Ni 7.997170714066454 6.415589684851061 10.984277346864474 -1.3649729572950684 -0.09356090137729693 -2.03878016300105
Ni 5.305526479946652 4.275877810134717 7.820173081705943 -0.3222067915176064 0.23692304254743712 -0.4995494033982493
Ni 6.6214107380765235 6.865804242678378 6.653254193995516 -0.7962238549727062 0.44349549782747494 0.2540334769754786
Ni 0.34598236293079554 3.1230238676241187 8.685838176892528 -1.018360483239588 -1.4344865879151747 -1.4967998441320995
P 5.784605904682664 1.2674384381108117 0.9333437215485713 -0.6694620413634084 1.5800110268439562 -0.3722088344673461
Ni 7.711524580592855 4.376398281558295 7.145925158009497 0.11615472751741286 0.010830257846284573 0.3983332994685398
P 6.798007725347523 8.78475606795806 5.265504338062465 -1.6376939833777215 0.9496752620580484 0.8885735096507213
Ni 8.000928488699111 8.51143322482391 8.148912048393454 -0.7227049598479489 0.21302515288391702 -0.32699058605949494
P 8.838553032735879 4.3273906373907245 5.160359409180414 2.030785574831348 -2.40140341066249 -0.16741146880986008
P 2.815788950476628 3.4825268510469254 3.4830297297110016 0.6933205931485609 0.2643001490088093 -0.32240450935070925
P 2.128935903343284 8.629959699695638 0.6671127570103689 -1.0907820315351087 0.8788539683701123 -0.5799819949237044
Ni 1.0326788361211126 1.8375425851373872 10.632931865873395 -0.18110336447465583 0.4155455495817682 1.02796561042952
Ni 1.3773625563479752 5.468243647679871 0.901813413515634 0.4178909098854932 0.6963719783803749 0.6769691483737309
Ni 7.592408650876791 0.38296236520427984 13.454817068872954 -0.8882968589505669 -0.0026744615083695873 -0.09626775878549873
Ni 1.4530246117579708 8.321361668220616 3.8698419718673662 -0.4686678833280445 -1.7444317884566085 -0.2515261371725926
Ni 7.481839816403632 4.318788280756161 12.097842281953533 0.2188841827678553 0.03637725307745348 -1.5647960096664149
Ni 8.726676345326844 4.075711839322126 1.4529131679514629 -1.1658782984493148 1.3365566109359046 -1.465971288787017
Ni 3.887712584905956 7.390280900660386 10.657978170618609 -1.8022674685181541 0.33887088243684865 -0.34243931651439735
Ni 8.499653338169088 2.3167785838164257 5.601765301177649 -0.3320492315293249 -0.021945136812523497 -0.6909904023534874
Ni 4.0480166718701645 2.4151438609653915 10.30090300433592 -0.7560208003912593 0.7584070412352487 -1.94842851258967
Ni 0.05455036175073914 5.6728121093611135 12.480865434688633 1.6630964826112262 -0.9234618368874742 1.7919684005849914
Ni 6.578334483280109 4.0837523718081785 5.0417343848269 -0.9519501741351539 -0.8861224770070674 1.7537101284347407
Ni 0.9617508399297094 6.657045125463166 10.272298786991207 1.3602074175856254 -0.21168303703372576 -0.6917925865398086
Ni 4.252364087984781 0.17646343890782848 9.745765484216374 -0.17651651643492178 -0.2680120506427578 0.4055131050464307
Ni 0.9821699241468682 7.8051005371315725 7.501004467030183 0.9371907564377924 -0.9489939197203076 3.169244600727445
Ni 3.3283107273968993 8.937406452177813 7.863148023950988 -1.9714067186523985 -1.0805557258214098 -1.9500123121370225
Ni 6.196542738555757 1.167728467098199 9.806102634696767 1.637495237103354 -0.1605247689923558 0.17277401867335407
Ni 1.353139646338445 6.541539606668674 5.570599718329646 0.034167904130960505 -0.7301701578767426 -0.39040350309850186
Ni 4.831595574866659 8.773584056611458 1.7034941063724818 -1.047840494976576 1.3751635246748253 1.2570640147262155
Ni 3.912036807466857 7.707637862713001 5.792441970019587 -0.38380785215885516 -1.2103856368330703 0.7994852993327972
Ni 2.2808034178478995 4.431134689994278 8.825438583472545 -0.272689401513769 -1.4849593998537458 -0.14428156766061603
Ni 6.7933749786803 0.5960014772033042 2.6656096714871254 0.13815642859948465 -0.15413377786434745 0.4466682391285017
Ni 1.672504438954586 8.899727393299871 9.820162053757432 -0.01675665063304856 -0.9769857769475434 -0.005138863888462118
Ni 8.868725752580449 8.262572757729805 5.747566035901551 -0.7687876131386243 1.6137441574303433 0.4893979167865443
Ni 3.7627665783701074 1.3295706627968529 6.038884751228711 0.03489835453908183 -0.2575175788693371 1.6837959199421066
Ni 4.358825159011457 4.9185401644065685 2.403529758485537 0.18651553662916265 -0.4848884589519649 -0.3710832055033351
P 4.9397789592666355 5.596054036349927 5.717964350437434 0.9184319877730506 0.9019681857900723 -0.43212967919269446
Ni 0.36477123609408113 3.286367331129447 12.764150064692101 1.082613122571071 -0.007406319766400147 -0.03388945365859325
P 2.028747000269646 4.069365989513545 10.896831720706878 -0.3799612247192553 0.09171819174160334 0.5078579232639447
Ni 2.4647409599773 0.6187028568958858 2.573958653424451 -0.14921628595807204 0.685051154050917 -0.7094385817563459
P 8.399510486255163 1.0838324643313517 9.338909014282923 0.40998476766453906 1.7091071450133855 -0.35326494637499156
P 4.883836010446147 2.1303819097583014 8.15853766179686 -0.3280727633800801 -1.0496106995031214 -0.19197527419215324
P 1.7827509153097472 8.85788530958379 5.901509536686071 1.561921516332097 -0.059350059823542946 0.6015918598839962
Ni 5.619457235716549 9.17778429565261 7.315653154297565 0.453111166540368 0.059878678633503324 -0.2836248174793502
