# total energy = -340892.60132926144 ev
CRYSTAL
PRIMVEC
9.04006762886375 0.00000000000000 0.00000000000000

0.00000000000000 9.04006762886375 0.00000000000000

0.00000000000000 0.00000000000000 13.23105275888465

PRIMCOORD
 96 1
Ni 6.304018822383369 2.0788810661795023 11.391182168941853 0.4867052004457295 -0.37978998924871366 1.1516284733985198
Ni 4.560479063935669 0.4960456855028637 6.105363336808322 -0.9939900248150236 -0.596762813926469 0.060483144986721644
Ni 2.792892725664096 2.0353802608740588 4.838728728727738 -0.07187647442532782 -1.2108556344909533 0.6510218323803498
Ni 3.3791682299188643 4.4542944298713 4.787523977811052 0.013989372300556554 -0.29493587161679524 0.1466534103269023
Ni 5.36176353605924 4.596431412792642 2.5722617397530136 -0.5835979944097368 -0.22286502179247422 -0.2872156201544021
Ni 7.263929360736078 6.12566732864457 2.5004971630869153 0.691013799392255 -0.23366519773177177 -0.20008761888664248
Ni 4.953785285137653 4.509547323060593 11.487306111770888 -0.22962445200349485 -0.6125229049742031 0.38733823390961675
Ni 5.693570177358286 7.8595884551627195 12.11357125907411 0.30736638407066424 -0.31320973022531867 1.0542312289942684
Ni 1.7903401884282235 6.478799489418998 0.26172713323413915 0.08063570867519661 -0.17943240453013615 0.06071145894744383
Ni 2.718972092874692 1.332008760958149 0.49589742839417517 0.28613267150286853 0.45864032388871334 0.5699642056763861
Ni 0.6459236783126193 -0.1975119170232727 4.647698540175789 0.7148821213694204 0.28211532281335927 0.6361451723788335
Ni 9.020748978492527 2.286902061791216 1.596710076433662 -2.1694783355502767 0.31162027425101174 -1.2135054134089747
Ni 6.672211735784329 0.5922365248321602 4.759196021970417 0.5648633941147111 0.6945925178824489 0.46723886419100175
Ni 0.5441777174413038 7.372997776365792 2.3085801439031144 0.22319746543122848 -0.18463426044604975 0.13106609741160655
Ni 7.682312729468673 4.009721985292932 3.856626632423282 -0.7992796110798945 -0.9704083808403415 -0.8956263027324446
Ni 7.782250676819396 3.6936721818258444 12.644837951964869 0.0537270572098107 0.5210625948796769 -0.15259394418105335
Ni 7.894745278070632 8.872356268789938 6.8830975288194205 0.6810116938742207 -0.48002753131523773 -0.1052265106406833
Ni 7.096425948120832 0.7065074993673767 0.4874241730299207 -0.44343430557223634 0.08488857041427961 -0.7966987377265957
Ni 1.769421471994974 6.357047858942333 8.924517458859016 0.4812853149817389 0.7695833695670423 1.3696477370629188
Ni 9.229366618566035 4.74183186011865 1.3172969549410918 -0.39713439406443213 0.5580985645870516 -0.19627647267066842
Ni 6.345783934709044 1.9516782749382515 6.948817012279419 -0.9650987957019702 -0.4000567099175497 0.9085841484446934
Ni 3.802451315292263 4.421813466973865 0.5450057876337351 -1.4004462105010138 -0.043005557027248516 -0.2638448066389456
Ni 5.971606496554925 5.523499385543798 4.663774492394133 0.10926468526579892 0.6685331017912356 1.4070675724722734
Ni 5.138781228564627 2.7776059713474908 9.350967279913732 0.5536590407584594 0.91572770146801 0.44361248302131345
P 0.10832441806598943 5.597004175223466 12.317872266867207 0.7149659393324783 -0.41889312589776245 0.9476800860048903
P 4.114360767797193 6.313049849918726 12.535734280071503 -0.3839693174373839 -1.259801725372353 0.49878527153871516
P 2.263949330147301 8.443206179542218 1.450957066471137 0.5752961594122608 -0.2819371453642822 -0.8753917208531246
P 6.299634389595933 7.82510963732503 5.90773118688593 -0.4153933402746201 -1.311666018341812 -0.5286398930063025
P 4.951037104586352 0.7737267300427068 12.591080285957105 -0.16608195136515913 0.561991986104187 1.7945089076186578
P 4.065915045512931 6.395648947606972 8.171326146383194 -0.23732259197870095 -0.2683252110078024 -1.1344185372781366
P 4.6657325710369335 1.1009807932969018 3.9668413286250503 0.07928999328057958 -0.08579462716831676 -1.0018285470228359
P 0.22758912594508107 5.600249559492929 3.530759315539381 0.3868913761801853 -0.2964286541122379 -0.27492600415377166
Ni 1.5132530763298948 1.0635549134206472 2.6668109028056124 0.9376075322602369 -0.48082277352302355 1.1547353944586176
Ni 1.9623545947773473 6.389872344408681 4.734057401980105 -1.7180121608124992 -0.01605525369064977 0.05759579613659758
Ni 5.7766845588999 5.397978046876697 9.319821535001253 1.2343087233075711 1.7121955541307223 -0.9501522016944669
Ni 8.564108043664206 2.470505834807335 10.311290045349137 0.1315381519520186 -0.42995812546267237 0.5035266428784424
Ni 2.415732065201 5.437682023788898 6.8783478773008255 0.0710534643034002 -0.2977062352730808 0.3344501276613337
Ni 0.4369182193389432 0.13760158100493583 9.179770095675915 -0.02886706074333738 0.087584629189204 0.49533073733121147
Ni 1.491294752122305 0.8976054884263492 11.54078534369648 -0.3921791069416859 0.7743064860743245 -0.3218123842926651
Ni 4.115888539222094 7.007001599392352 1.4729470309153374 0.023707370919268847 0.3161562144481523 0.012078014210456619
Ni 5.667887345298276 8.340104208530459 8.058028787128817 -0.2598143453233138 -1.8721012014818401 -0.177398661929559
Ni 5.262874236550459 3.1272757862299856 4.566287307370571 1.076598798056191 -0.8696710163192636 1.1094528684717344
Ni 0.6803780879677809 7.245469542690834 6.816823889215359 0.16886697030946402 0.24682590348344585 -0.5435093539189672
Ni 4.855293748603402 4.634065214223765 7.0074436586981355 -0.4149367123531757 0.24483047031997193 -0.04350769347464765
Ni 8.326860509492121 7.17930528790477 8.791412407479793 -1.1131259464479475 0.5571819663100533 1.4130942382823277
Ni 4.671283172545151 0.2879767775328542 10.399726314688614 -0.29670890435681807 -0.6875258408436546 -0.34616227389193927
Ni 8.184271523190633 7.122343821938519 4.604697650608788 -1.314523028174633 0.11240657332889027 1.0180375526825307
Ni 7.094563694194623 5.9385740895337085 7.084633179932771 -0.4087326404249928 0.641276837178444 -0.6201747650925061
Ni 2.3341906554223004 5.3656146048581 2.395839396440686 -0.43989235385724884 -0.3976493860276377 0.4461537613859284
Ni 2.4690051835852436 5.370387760552463 11.351144613535103 -1.2103126175032897 -0.5892235681266303 0.5604174425282155
Ni 1.0150278305279576 3.4580970601603087 3.7550524328364228 -0.017293239862808923 -0.255241895461283 0.9161465341729834
Ni 3.7860707127956994 2.840994925379447 2.745576107823443 -0.3221134604728517 -0.63329896117929 -1.1131537143620893
Ni 0.9307111199951492 3.1171418704470675 8.453783058637681 0.9963544112821421 0.9655549094027823 -0.47687253062602386
Ni 3.338325204488691 2.7994648548114482 7.503237126314876 -0.25382213229562095 -0.21252738731189208 -0.5986309774834594
Ni 4.16000406912454 7.014043812055057 5.616634682023294 0.40156131948753426 -0.07123267019374184 1.3380848746549732
Ni 0.8759391584023348 7.379868227744042 11.183309430438829 -1.3366139465364013 -0.7451136665604522 0.6923633714416141
P 0.0790698552960504 5.369158311358461 8.015464532827039 0.17734209766001072 -0.43053045302637466 -0.8956563846394315
P 8.498196910771023 1.5616987986141577 7.9166683460145695 -0.8644059112655822 1.3888888446807177 0.9402308288156969
P 2.098922896055265 3.3797739144482626 10.601076644416104 -0.44672763161152734 0.11259812051440607 -1.0745593990286588
P 3.980757608693047 6.097760639954232 3.5807463693499484 0.9202757258500087 0.28000933221395 -0.037076078916690985
P 6.8220870165738035 3.9266076037513167 10.388281589103267 0.9804680790691888 -0.1519244289178545 0.6422379155401327
P 6.5427579677099414 7.666167168729786 10.093255366853624 -0.15247078833962774 0.267516599063578 -0.45224958987102115
P 2.43179626533146 8.36054380138075 5.861078110007333 -0.7107647567669373 0.6568122138098818 -0.3512180911482919
P 7.175761581404409 3.8652345847948206 1.6014335117562086 -0.11940588746485885 0.2783028910458046 -0.3878974488471965
Ni 5.499543206395954 2.803569045503192 0.6235956153400682 -0.03891955988333297 -0.6726455812977126 -0.556099531879152
Ni 1.4143185764831 1.0897530293340254 7.039343345248701 0.45284480025285884 -0.1887094589566879 -0.8953288260966838
Ni 6.898132065249904 0.8046726894611596 9.384388409841876 0.6965498987191359 0.32167740137669765 -0.7277427793821725
Ni 2.6700924473454872 1.5579200503561206 9.63804095469305 0.22081765234514228 -0.1272536656440518 -1.975764738510778
Ni 6.67783465783337 2.0033061010187563 2.7274091879685343 -0.1961890551631847 0.11723047708009489 -0.09571754270898354
Ni 3.9851510815480857 6.7500015175078 10.332685173345064 0.40319217022273784 1.9832265941054614 -0.19438414074396201
Ni 7.983509701864096 7.140252195859983 0.11418238187270753 -0.15419831255369573 0.332439267878892 0.9127889305546603
Ni 7.50541668661395 3.765585919607392 8.233842733891464 0.5771036449346447 -0.426610292036362 0.18670297004962041
Ni 3.072176574189944 8.2412781894949 12.41490835251738 0.8582126379706768 0.27311466197664575 -0.2984019757885248
Ni -0.00015910518981209694 4.9305884716684565 10.251922113386978 0.29460651330183457 -0.41442223461060246 -0.31532883345085044
Ni 8.381191315785912 2.36567721088341 5.822020497928745 0.9682437690888552 0.5540537050937168 -0.1603044254514336
Ni 3.7489341150827395 2.253001808280116 11.72799158365238 -0.27525330558620337 1.4999427606364555 -0.07517828510505117
Ni 1.4244344121308123 3.3190698604943862 12.650619979203721 -0.4556606724350991 0.20328144323359182 0.576708209268439
Ni 3.0620426584070257 8.429673198340586 8.007445992863214 0.20495137473684705 -0.3748853528582447 0.2561168418670686
Ni 5.575687695815686 7.697834525542955 3.671445367610447 -0.4039329050435044 0.740710395286434 -0.48334811104803854
Ni 2.923476502188854 8.063830702516396 3.4676207713800276 0.7440428020937767 1.4837250132260125 0.13185774007496645
Ni 3.6174282516624796 4.528160822255087 9.221686177130561 -2.052827642233052 -0.5236838345526078 0.31930555871041133
Ni 7.10124430415321 5.9710731325663495 11.476191348653048 0.042037536687024375 -0.5693612819850646 -1.1549305411885593
Ni 0.5245526346820379 -0.1833253389339475 0.1300531245564642 0.18603011235231187 0.24851074738503656 1.2174592558503998
Ni 4.895277967611295 0.4653329598285672 1.7744161093456094 -0.4973801636610724 0.20867896010007933 -0.06214150652575104
Ni 5.9432568445520415 5.633435647663395 0.4080089871514372 0.46464307843936753 0.18508754593338447 -0.11758091844097814
Ni 7.97686525217592 8.841538678331446 11.401382981225034 -0.06070297430701159 0.18588047414832504 0.12141211926161026
Ni -0.1923762546180311 4.895910772343503 5.625724469998071 1.3599076269570192 0.1188484722994921 1.8486095461178034
Ni 7.708908608356581 -0.2924696911315254 2.70907141083593 1.0268294399425477 0.664392854370617 0.44638824599423765
P 8.637739394290316 1.4971165556586112 3.8521147346826448 -0.4080060466716135 0.721687317216712 -1.049263857686664
P 1.8971214669543877 3.233514660699972 1.8076925981921053 1.279318969469674 -0.0906936071318309 -2.0032752852262212
P 4.524870237647609 1.118843966880351 8.347351630727752 0.04463357954897475 -0.4160515426839093 -1.5177679617433346
P 8.7109910620771 1.7094858237873487 12.475374652693299 -0.2571735652663571 -0.6601371644180566 0.08540947591475613
P 6.303259456704721 7.825561640705178 1.4779082200158418 -0.4565911546691685 -1.0129148867439846 -0.9912260889166413
P 1.7667546520521007 3.5631697659095134 6.0887449805338 -0.6308191321802298 -1.2642106530733261 -0.3416286476876439
P 6.65536104977241 3.931814682690621 6.124350190794819 1.0703690150963954 0.3428370661734483 -1.1981752108098074
P 2.2402010725543247 8.416420459234647 10.078608649323309 1.9469102761729309 0.272553390156537 0.10683704966091277
