# total energy = -340864.23006941046 ev
CRYSTAL
PRIMVEC
9.25996209930323 0.00000000000000 0.00000000000000
0.00000000000000 9.25996209930323 0.00000000000000
0.00000000000000 0.00000000000000 13.55289054364519
PRIMCOORD
 96 1
Ni 4.357478791262931 2.0542299479224617 12.523575282063973 -1.1619864195940761 -1.6066121743712523 0.5677715689004416
Ni 6.346518607408553 2.864837752697004 11.594009376739548 0.630375616884908 2.0797216384104185 0.06530473474508107
Ni 4.131804259795124 7.07290705870151 0.6377465400078751 -0.9403701826070385 0.11881839039250505 -0.3770664196699635
Ni 7.585232970749409 4.600895409731367 10.450254070692036 0.7354013243686948 0.9644539630291196 -0.73025731827391
Ni 4.549891539585509 5.586099796132658 7.34615464443118 -0.6156393391159978 -2.3929681354109436 0.27124932663313284
Ni 0.7120697722068026 6.711462965854154 3.763149434616145 -0.22424004776312995 -1.3583924758640735 1.7449539795086657
Ni 4.244322056843473 9.317003265424017 2.921854116104608 -0.030991306175191788 -3.1427498968710266 -1.0077132879383872
Ni 5.4843791146598475 4.789900492074701 3.9285490220836956 -1.7397307834365137 -0.771981951706206 -0.7864348939067424
Ni 4.749119619866576 3.279730345631848 6.092661381897733 -0.21323264090903274 0.13255399481104269 0.21413278412579895
Ni 4.848219732121653 4.320290784272053 1.4682928947457539 0.13534055641724432 2.942634510070242 1.7255084691895444
Ni 7.985800402624769 5.98070381254434 6.309629697187048 -0.1600416587083502 -1.3005853350476182 -0.8670328073654682
Ni 3.7196340956589147 6.949092108135015 11.446187974946996 1.1621702534701082 0.8358399267024316 -0.40259618850995177
Ni 7.485734680132627 3.9712457804089563 0.35498434342583274 -0.08494847711793756 -0.6004734300088368 -1.5150770451747326
Ni 1.8278609193121456 0.5449478318258297 12.299397160439225 0.6728967780765702 1.9264278399488628 -0.4223479172155823
Ni 8.699058227943357 5.816506168131426 1.0813413108483294 0.5148613511649714 2.214851107258121 -0.45383493208027
Ni 3.0308688695661425 -0.026701100138993954 7.5281425276466045 1.3541894935263195 1.072070056947902 1.275341987099797
Ni 8.82569746688939 2.6627576041507 9.620058668510172 -0.714665120262608 0.9278792492288793 1.1636028721515768
Ni 6.339481036364463 6.329674736712236 0.3887961683079283 0.5957361724341675 -0.09527582718587463 -0.1557656570408156
Ni 6.612649912417981 8.735348018629924 12.655472327376891 2.1132377678899927 -1.045894941214431 -0.7205632309145977
Ni 3.0298780536428294 0.028163248123022788 0.8237217628174908 -0.1135568848832496 -0.2646619032236022 0.1810023201204173
Ni 0.5967999144817377 0.2209186150359058 6.969885352581733 0.5170146500625482 -3.6333258931260715 -2.371662946175264
Ni 8.88238695364192 4.932466865488937 8.296699919436515 -4.246532968651493 1.0514683215371505 -0.4018184298036628
Ni 0.8309250871795936 4.777029145033536 6.339445848509242 1.3014795647271133 1.2121848948253382 -0.05665194416608953
Ni 1.5600998610082963 3.16189733045283 11.033394615374906 0.041527429819825254 -0.20324287668617252 0.4213924952808485
P 8.193427268349245 3.6802422177358074 6.455444465235846 -0.8579694116116192 -0.9282433174365173 -0.6243013856663701
P 8.03161869410656 8.224772239381148 8.433977002613402 0.07442135233436861 0.8612892200134715 0.3603583628866633
P 5.61814852426897 6.410504944138377 5.237270549381834 1.9886487935622978 0.8806727667464058 1.2816249918950315
P 2.4620757098513155 6.301459632802573 12.902324391710271 -2.2069120549167027 -1.154157924688593 1.4737761295434169
P 2.9681696675404345 4.706653434592629 6.003903721088899 1.3655442564175062 1.184387927217728 -0.7627689177483702
P 6.972084593533012 5.2379807884595735 2.2841770258109837 -0.15980486010719575 0.7987180821494696 -0.08353205638638517
P 4.822819656629625 1.0544874213379836 6.310902941948314 0.4388978511544635 -0.16598039279028834 1.0348129723686565
P 4.587486984899994 8.872515834256392 12.884149864488908 -1.2630104621176377 0.09096588695661106 -0.6186120485910765
Ni 1.0041873082965356 8.003588789434898 0.04318661030977631 0.2519151450808952 -0.8732157962477284 1.1550272146674236
Ni 8.478198876663612 1.7019069175467234 7.645592180402957 -3.9854999204297297 0.29232517346682557 0.20904791340372383
Ni 1.201091138140672 6.124511020853193 9.37155277498143 3.1487148562052094 -0.24798135724412773 -0.031086436992159364
Ni 5.464201657679487 7.176757531411348 2.6216035554780004 -0.26532653339079465 -1.3988292437228813 0.6581137062301247
Ni 8.76909131979396 3.7060775114371403 2.1406244664543848 1.579106512751816 -0.17080326810022842 1.2342770987386873
Ni 2.7727844714479177 5.2631030650945965 3.6710304076375686 1.156817473798627 -0.23717346799534636 -0.09263993222492432
Ni 9.200605544339519 1.1588101521047274 2.013064787295481 -1.3133567757806737 1.0680516798171282 -1.3161600495574235
Ni 6.497048548056893 4.1214423624288905 7.740435488172548 0.022710554223638307 -1.3350630571095137 0.6860518274012894
Ni 8.767748625318443 2.1755447087759245 4.121867394680106 0.47023085693979016 0.8343301749261244 -0.20854526273569243
Ni 7.58832579802405 6.95493514409399 3.9571863802560046 -0.531180142929653 -0.6374194111055667 -0.08602191268777443
Ni 7.079592751193396 0.9963996803385352 10.913614230208294 -2.1732629994036894 -2.235425588975363 -1.4772903133442623
Ni 1.78627443041871 6.186302746612689 1.559137750966874 0.6821671476349026 0.2963983150949347 -0.07056315493054299
Ni 6.118992083560722 0.17706621346551088 8.264809536648695 0.26676609405079865 0.314861921116761 0.08745170315576552
Ni 5.848962334591343 8.599652536945577 4.5624313799906515 -0.6688730016291577 0.34481347317352873 1.2431990838186653
Ni 8.77619371057135 7.237225082619126 10.18652850378426 -4.38892966058457 -0.03803227218237321 -0.6878477429594476
Ni 7.369170279733926 8.117273341682663 6.386880929338793 -0.2595461792635917 0.8076801764387638 0.8400351957307017
Ni 2.499560035622998 1.4610182686770201 2.747265868443569 -1.1184239616220932 -0.6548535474216142 -1.1215313969028233
Ni 1.2277690883749157 8.465170110270146 8.996353934727637 0.2815003149371797 0.8438085467302049 0.10005833617618252
Ni 1.0662197930654345 4.345801979306881 13.602629382322974 -0.8840555671757097 -0.8505576925285804 -0.34349706835495036
Ni 4.105774506893889 1.9121543524889317 8.771159069286256 1.141833341684969 -1.3433610354522478 -0.7883400813492553
Ni 0.7679045644759518 2.40345089106166 6.171199748753595 0.5167662814971681 0.24077172686956597 -1.2713089546810041
Ni 6.619280045138467 2.624060223370102 2.5332116631642214 0.47661901985432115 1.6648903412868554 -0.4294104804893185
Ni 6.100435119912883 9.024694048122953 1.2992559942438364 0.1743688739642997 -0.347383290783234 1.5293821489434953
Ni 6.8521403070407665 1.8473346191880966 5.6371082962594645 -0.15151639484615842 -0.0183929006848909 0.2535907330111052
P 1.163208634007284 4.000710979175135 9.009704021799038 3.043980454709596 -1.48568367961428 1.0611104726126048
P 1.4068289716375222 0.9082578069960598 4.417348148931962 -2.994991426405403 -0.027630360122758865 0.554496191947774
P 0.45067123372452533 7.414007015254304 5.998265330287918 -1.1120985336246978 -0.08943659479627823 -1.2362625045998321
P 6.886494765690209 0.8497857775777565 3.463942471695681 0.6647875187058744 -0.8687515898287879 -0.2568928008011447
P 0.7910841011043304 4.5266305152924105 4.167554194702915 -1.2506678813918848 -1.1742099582434617 -1.623364454128927
P 3.758924114001121 3.227957898648281 2.924713592339365 0.7418349958091804 2.071903170807264 2.2340472205705977
P 3.086919418947564 7.435703105986284 2.95616968291407 -0.34980732684369437 0.044387267866123556 -0.8975993672984154
P 5.492453801436751 3.9959698786822746 13.181947461208175 -0.9746399024231858 -0.08769775772830059 -2.7811262941186943
Ni 8.43763098357919 9.179363191740643 4.613688047096382 1.5887710324247735 -0.5346357055784211 -0.12036696582654755
Ni 6.693609759310724 6.458675265942798 8.327953216845607 0.4518019608106412 -0.09086252860952738 0.9972987774732823
Ni 2.960909857410741 3.6578794097470193 7.8377178699066326 -0.6652893980429574 0.5760111832014144 0.2802296757548722
Ni 5.856935161787346 5.717970913552256 11.584875350321271 -0.5401648629267665 -1.5659509492064645 2.0050102656394566
Ni 8.534351285625936 1.272290985190689 12.687022869562979 0.10899780475765745 0.5585953017178121 2.5596774359474566
Ni 6.194331133580093 7.605725266434374 10.558650258698641 0.41079903603571827 1.3951733921378486 -1.184673833889263
Ni 1.9261091150724112 3.580632807576224 1.9225856995694157 -0.4025295969380745 0.49658029346759636 0.731380890355392
Ni 0.4548474765414791 5.433227085123589 11.74240026618896 -0.1395309403495081 0.4381404041631486 -0.87022380349894
Ni 4.263758716871824 -0.050881638648775436 10.458182450070916 -0.20864245043518906 0.21804394625474705 0.24254707360243388
Ni 0.9798336084992219 8.611301569015927 2.7123530340915494 1.623690727120094 -0.15527483344732612 -0.700660835563716
Ni 1.164227229816297 7.840206021669195 11.341383726161444 2.603703463819419 -0.7953010860481207 0.5560661075380552
Ni 4.498609870582649 2.053239131999149 1.4470422081811702 -0.44202971191522583 -2.202152171634214 -1.0866736657936897
Ni 3.1262094372897704 4.1573524946775535 12.525120769705104 1.0546323210874289 0.9222122807510892 0.8020381476616381
Ni 3.1304690197638254 9.41191787490024 5.256827588914886 0.9612195152522219 0.32930560734591674 -0.3695127756924217
Ni 4.974849711105784 7.66130355775889 7.270637803143327 -0.8546056373457087 2.3814699049633568 -0.6474040331221044
Ni 6.392549878014046 1.7806443735834374 0.3092947654144542 1.6304879525475857 0.2383425486027831 -1.5428256760429109
Ni 4.229098679479677 3.306158276894789 10.579331457606367 -0.15761273755188338 1.0528436046181224 -0.875914169015498
Ni 2.5055049311628745 2.9310650002066567 4.6398316975289875 -0.10929759538626337 0.4987325639239088 0.4938358979532398
Ni 3.6567033945857044 7.132318974252676 5.0847191590506995 -0.44163170514585876 -0.5525694072387063 -0.361995384269454
Ni -0.09029111049949308 0.6773125052147049 10.711920222073227 3.279947303991351 -1.6695376102508794 -1.9063069008292717
Ni 4.928299882633884 1.8021645250393146 4.017198341338298 0.028821295107066495 1.0498822079969532 1.9249121746352849
Ni 7.687518509898127 4.393935261263701 4.172772183233632 1.4634251253263957 -0.19721955331022809 1.506989897291224
Ni 1.4973450992111883 1.7798109770124266 8.236077726865004 1.4003749909434462 0.5832197851347117 2.4790962346592784
Ni 2.2741447830883947 7.147699770968774 7.088744371539284 -0.16896647200180578 -1.5523462139388362 0.4798421547773091
P 2.4347310423602635 1.336258801996713 10.22621114451103 0.6499316846399646 -0.8879065654906838 0.0030321019581044557
P 8.408202824660611 8.769674697393667 0.5223368568581186 -1.357095611429521 1.0785011572852266 1.2806310034128783
P 8.054629699428355 6.85328854231638 12.222795977612869 -1.0797226883971534 -0.3941958802613985 0.3626386742804077
P 5.501926742460573 4.94034709306594 9.660540443948923 -0.24888175757121006 -0.057499122657733236 -1.2873922333961119
P 3.51897072128333 7.270486865764355 9.331476585873903 -0.5326130187214376 0.7870961816398251 -1.8339077211312544
P 2.4587791634148726 2.0627305929467714 0.3537185066340865 -0.794424082759806 0.8543210162257545 -0.5676376144257386
P 8.725226880273095 3.2818879167545756 11.85735621120561 0.12189368688371911 0.832328056894431 0.44079455395654404
P 6.623678527041023 2.068156930620241 9.11842523446834 -0.3415137193763344 1.0319413072478163 -0.33972140336260204
