# total energy = -340858.2288732618 ev
CRYSTAL
PRIMVEC
9.33451884920535 0.00000000000000 0.00000000000000

0.00000000000000 9.33451884920535 0.00000000000000

0.00000000000000 0.00000000000000 13.66201188343928

PRIMCOORD
 96 1
Ni 1.371464830673831 5.118807376983552 5.298579006404077 1.1790426037454147 1.8102191192650627 0.025648039585407442
Ni 9.312134559431238 0.29665007195782367 3.043772799121409 2.1852165722211394 0.35321660963555945 -1.2633385348810178
Ni 0.6624035861135074 7.209412865548147 3.3968677724200727 1.8782885612394749 1.3916101002666226 -1.8993602943081096
Ni 4.215711358375076 6.090997503271153 5.479409170249191 -0.5972577512850166 -1.1068938494953064 0.36672827096874905
Ni 2.0259826153597076 5.688502389921225 12.317888797195405 0.5325646819820055 0.718958091211007 1.3508588864911897
Ni 0.20565064916243303 8.623639126548657 5.134361485552281 1.6835982021090037 -0.06504196800199767 1.6365742679509814
Ni 8.824163258021631 5.057479588892246 7.555912067908407 0.09322922906949105 0.49092386651276737 2.470589225629532
Ni 7.699251070704826 0.8981309880931393 4.532031128212047 -1.291331677659834 1.5981355043588088 0.8447945647925581
Ni 4.343780955424196 4.54299825427422 12.048814760485579 -0.3751167521427604 1.0108248369841752 0.016689544840538997
Ni 6.857184135588125 1.4820975467253015 2.149416690404849 -2.0754649200165933 1.262189508878239 0.43408346048495566
Ni 7.309180201791661 2.3636214925363643 9.208619413915478 -2.617220781579564 1.7775630237929385 0.621674232456168
Ni 3.760821591363579 0.083082817455933 4.301169810849157 -0.24465357842247543 -1.2414612751919523 -0.6336478598782764
Ni 2.5459806505503306 3.452138391304005 13.449608649025905 -0.6761625933120355 -1.1252396989923459 -0.25746487125453077
Ni 1.7207345181947449 2.4930725983583177 10.164427459822525 -0.87506261964848 -0.8742738051985975 0.04599215045939821
Ni 4.59725981168286 1.9743253886782328 3.197020393555412 -1.4477100285839843 0.4336792830680015 -1.6321887372887762
Ni 7.9744140139857285 0.24582455089566949 9.525687812155025 0.1134409281306756 -1.1981412722480784 0.4941706555848393
Ni 5.303593509868711 2.498757320268151 13.272562699076106 2.102151171058528 -0.3407200198304455 -3.1839759934003484
Ni 6.269389490822592 1.0082960447559683 11.134389436487997 -0.485236586320003 1.3688872047478102 0.24208453214371858
Ni 6.538288972032069 4.821810994380647 13.230018763035961 0.018708632153096812 1.8619957376167222 0.7629159848491958
Ni 6.571062467311913 7.051640829883116 5.924039367718655 3.7233708109303105 -3.95479272115386 2.031795761263417
Ni 8.637444879758252 6.110469309353112 1.1480953980479403 0.7012953838239212 -1.4315701855993281 0.7316086900954819
Ni 4.587710599016588 0.8348896236610845 8.690787920523332 0.045078894616509456 0.6514797458533749 0.4157304118990647
Ni 5.117229843317277 8.173547302167135 1.678870135118535 -0.47853911969516943 0.29715164832119145 -1.2582030134266653
Ni 5.132099731662703 3.9454490374302376 1.14683337111492 -1.9566249323575338 0.41240546129088973 2.301875750178797
P 3.079607083094577 3.987510378851763 6.666528457322173 -0.22871685258756094 -0.21225047950142156 -0.36469581391975253
P 5.448978639171922 1.6090470015261789 5.0478678349504476 1.119277053651008 -1.6569194072662365 1.3280871400123127
P 4.300664813385575 6.212094214824961 0.426527765285983 1.7979338741398068 0.10170949862636032 -0.21688155051552968
P 2.4433289480175917 1.2694105373401552 8.505325968481733 0.04632176588467506 -0.3796550063327461 -0.5158339994908858
P 2.6260241487060307 3.417992721770063 2.266650778105965 0.3959519437205568 -0.582026536157559 -0.39491630336719086
P 5.603380913573489 3.265457351115568 10.709828454299554 2.351290553166499 1.1119884904093944 -0.9797923931584028
P 7.929374961087623 3.1069945610641194 7.0655277934057095 -0.6152557305243339 -0.7029216065734345 0.2482749772251466
P 2.7225430724296387 5.231363003894507 10.36609226948496 1.569769808731922 0.25114869922851585 -0.06138277398285557
Ni 6.342590786745275 3.3979141719703065 3.4496582096760195 0.43314320805887346 1.5193399342161447 0.6118757583085074
Ni 6.048180065832064 5.887318304465628 10.81473911036625 2.059638494507298 -1.003926052981813 -0.06250506051275687
Ni -0.025699796982189375 1.9510731025084544 8.417069960742664 1.6534782427951715 -0.5825160741994677 -0.5988590343338653
Ni 2.948699792349908 8.563431480705594 0.6791179753610403 -0.30984312774593087 -0.33839625679327523 -0.35715194013422363
Ni 2.5215148769449556 8.25738061492939 9.173317197510226 -1.6833467482198299 -0.8169603161891092 1.3651704180178552
Ni 4.132232757324764 7.060536626237913 10.70370781036478 -2.1084822554828784 -0.7747888250273818 0.3581896373701186
Ni 7.464263896060909 7.247460363913469 8.862628942826296 0.5631703226830044 -1.5095977672277163 -0.6153626884158434
Ni 4.3562332034171645 5.268038328005731 8.902112090173116 0.3301651271327346 1.0939594008218256 0.02854515862754439
Ni 5.531374436048933 8.751512698704335 6.113408749302876 -2.135587853450419 3.8125112146424085 -0.7069171008860728
Ni 0.3650254216943256 8.400460118104968 8.387778240951109 0.2628024814173603 0.9423363051944738 0.19085195922098744
Ni 5.631020423548886 7.3520163082682215 3.9555079148194596 -2.19844926886133 -2.0544556647547783 -0.9642752713594102
Ni 3.8648361336316803 1.5310384284547869 1.035565907789445 -1.5104763131779275 -0.04612121983809476 1.5645885216412991
Ni 1.3661161514384708 1.1908232241071708 12.34625079892092 1.4634523790199054 1.6876456327055 1.039834593952964
Ni 3.868803304094208 2.3482102021042874 10.90602883669431 -1.4874477134932385 -0.44946097138229046 0.6265081635097016
Ni 1.2012498815345665 1.4462623293002597 1.1772620352884418 0.49291055792549304 0.19111909683944503 0.08955152310758771
Ni 3.426636486119005 1.314514931869408 6.263048552245664 1.4605069232383363 1.5798536753304857 0.9356920604050789
Ni 6.578110028957108 0.27625414852106506 13.593811094805346 1.2932697752228115 3.304355814742703 2.097624229722452
Ni 0.8177897187897811 3.286553363457478 6.482241721189355 -0.3912727930773326 -1.3467140110848808 0.10597521588124975
Ni 8.71544411831091 3.2421583923521125 3.336727335111904 0.4164086689130119 -0.20564917213482004 1.0503192955343719
Ni 8.063250628790136 5.060989367936741 5.512279744523884 -1.5049630966691825 -0.9900930037534627 -1.0246820545822417
Ni 3.641937160750052 0.03510152425244259 10.71368174363351 0.04010201022720836 0.4582903967484623 1.9571442951961133
Ni 1.2579197447769286 0.6453615552583631 6.661255387688568 -0.2688705419883112 0.4624411856920423 0.6552777794432263
Ni 6.234357042008791 1.349211338008736 7.084135223052773 0.7466591566707013 2.0791115156302453 -0.0016192807709778565
Ni 8.753416940526348 6.258953498876462 12.478949383810903 -0.1948651941454386 -0.30743348986317376 -0.4113433385749625
P 0.9121766384342335 0.049428143607471005 10.636490874403336 -0.9581809855362143 0.10814882649380085 -1.1896157512755705
P 5.056723492874681 7.168583680599689 7.643650009857664 1.5069695855762497 -1.4424680634587543 1.545429689324661
P 1.1642665183050758 7.033401180274225 0.2861478049286717 -0.7772372865678744 -0.44004044939933895 0.20495446006064055
P 9.180993905718186 5.486475400931858 3.8461708299684574 -0.5763914493589686 -2.415689745378175 -1.2949091105984474
P 8.409729295209178 5.214915581882805 9.779691268366616 -1.733623642097511 1.0903688552570898 -0.3986248625670296
P 6.1632653473203005 9.117201804680745 3.2221311824054006 0.4005783867489746 1.7961857811004485 -0.01833916462882003
P 7.294431662189794 4.066368393128073 1.520186116973059 0.9866060736461267 0.435921542134959 0.3262997306400574
P 8.404203260117846 0.901689306635058 1.089843333879935 3.16386019648708 -0.45035751505463084 -2.4029517289862166
Ni 8.033688207955256 9.32715380007643 6.769855045559478 0.14541953791980117 -0.2801425153577046 0.7348984165903473
Ni 0.5008604048793909 3.9623538508599716 1.4729291824234325 0.22634192459748115 -0.4235643061211867 -1.2944817932530417
Ni 3.529624231326217 8.603532573192695 7.34557175653333 0.6619240811151503 1.684502459090828 -0.4438639369104872
Ni 1.5237295002850009 6.1952827465825795 7.858375678134612 -0.19553470940863743 2.6995986697568473 -0.9514400672679548
Ni 7.8440667943651805 7.9460464115489735 3.9889245584401705 -1.0064346783362796 -1.9699201068045427 -0.5723265352609755
Ni 4.327473551193525 5.054669898752903 3.1400900972403334 -0.3711806503131479 -0.7572107069343024 0.10556589625797304
Ni 1.7664829945167375 8.222161475740881 12.293214863822232 0.4986855127360573 -0.798391037827354 -0.7755156758910773
Ni 7.478620385875891 3.5699680213004368 11.734247079815233 -0.43654297776904166 1.6345662363820173 -1.9073325138803088
Ni 6.188524555018181 6.108835768574424 1.8211599380091008 0.12585755662747355 -1.1488108014440666 0.48655659068300716
Ni 2.489665499019912 5.397629451608714 1.0909429401869601 -0.11419966067357107 0.5104506236917853 1.4212325511187458
Ni 0.7328446648461441 4.572355315696923 10.804247111307706 -0.6459832415151778 -0.3706258062509423 -0.26425489759317067
Ni 4.825190090162847 3.1082920591683343 8.005256197339227 -1.4532713247218456 -0.7935362808382139 0.5706594319711977
Ni 3.3332912987654186 7.160621336118428 3.219617396509968 -0.5972762632277778 -0.04153360046741234 0.08264811111953507
Ni 2.1496183160095326 4.236349979298954 8.523728972168493 -0.33524665542070003 -1.9530120181952946 0.8169862843310381
Ni 0.2567571392385215 7.26218089995913 10.500021143944267 -0.3224135082117738 -0.5635068800868167 -0.21820129776821776
Ni 5.374834556856969 8.486925765150593 12.373519728502522 -3.569626555194898 -1.5635397686618107 -2.102052697807451
Ni 8.560267078854306 1.7488127505507036 11.387970039000875 1.5553857720961084 -2.0080148567937353 -1.0449060949386004
Ni 4.4242631759604585 3.4024600825944264 5.116806056166691 2.0726552184819402 2.438211066409143 1.547253372796961
Ni 8.743419670960778 8.995134303178459 12.725070772402356 -0.11765702309455223 -0.5167765659098132 -0.1267067920016463
Ni 5.987066971671671 4.758662975135946 7.152636588792202 1.4456824566309943 1.161136155778639 -1.0695092381992615
Ni 2.4628474266932265 2.8123784807387304 4.538998412996119 -2.6113321840092705 -0.3140129428529044 -1.5137053616381866
Ni 8.042826701797171 8.197210307161269 1.6114207696405805 -0.26394636521381637 1.0440679153080212 1.4277538971770314
Ni 6.821824978618587 7.363068378450886 0.0014673863451983764 -0.026565666303670375 -2.0741829679803763 -1.8466868751737937
Ni 5.736360467477408 8.450623821788785 9.827248774419523 -0.07847289669592292 -0.5406454021076108 -0.59146634141422
P 0.6550871903287332 1.5637185785472774 4.676151430226617 -0.3699128393443178 0.49396805265572996 0.9675125473497852
P 0.1613788937043741 3.368967829371959 12.51675231778536 1.7279044802255468 -0.4632233152737055 1.4902792694047626
P 3.965256886186668 0.996861259305154 12.690410770886098 -0.9131229168553112 -1.2272469313647831 -0.8051486682661617
P 8.770237743287463 7.270040564734302 6.929440778214789 -0.4355988686882176 -1.046948836400242 -1.0373619640427554
P 2.7500985717364177 7.263329045763579 6.156334467159296 -4.225310054716974 -0.834183364935615 -0.9356552936298724
P 5.880354753489051 5.080414501425023 4.848114734725014 2.620317932447648 -0.6533468809691005 -1.031688824917378
P 7.231115621607857 7.743113974242277 11.35328203392841 0.6285046251144402 -0.050477954144893714 0.02341323671761774
P 2.2211674021160563 8.880907797413876 2.671688614359405 -0.6259101249143866 1.3072537482067292 0.44237552529041874
