# total energy = -340890.27040035074 ev
CRYSTAL
PRIMVEC
9.07773533148152 0.00000000000000 0.00000000000000

0.00000000000000 9.07773533148152 0.00000000000000

0.00000000000000 0.00000000000000 13.28618324917412

PRIMCOORD
 96 1
Ni 6.103941968725371 1.8480000033956576 11.343358535395538 -0.02614066295110982 0.7734978741301002 1.2171409532790327
Ni 4.770876511283875 0.2478330722962325 5.969641410944518 -0.6911616378240291 -0.4116079050902588 -0.3917900990333833
Ni 2.842111895189158 1.5298616852377098 4.919395526170555 -0.2525998298527456 -0.43232251192979093 0.8170371921736316
Ni 3.565316926605222 4.448725834037136 4.789815390847104 -1.3813480562189822 -1.269597371306536 1.3733390698715768
Ni 5.088642642286529 4.475051266972651 2.7373257788232155 0.9523183561078502 0.49505228685884417 -0.46905149191970835
Ni 7.290193210006149 6.136440261797489 2.3508974720834432 0.8073446474762159 -0.5833115735175696 1.3603868805862829
Ni 4.78600909635405 4.6749611580436525 11.27894655541718 0.5177147614533665 -0.9961636354275747 -0.0675117696987289
Ni 5.517284234625174 7.903176377041861 12.516873713776823 1.003298703810459 -0.19325671200773814 1.0011896278872565
Ni 1.6882954028320334 6.365752938136812 0.28427019479963334 1.2638859227440555 0.922128205677715 0.2980350793674093
Ni 2.662645064452908 1.381858285727147 0.5364814589251068 0.010275413784079077 -0.21829488592328858 0.09533959054427452
Ni 0.763349501095625 -0.20566154428063693 4.766152457732275 -0.08494950555920208 0.6617800993381183 0.7531059407373094
Ni 8.729686038391083 2.2847480135313414 1.4169718743953763 0.5607609419105632 0.24788931175095374 0.07507209854449005
Ni 7.0853087198838836 0.7405816327006027 4.904966465601245 -1.3595083346360715 -0.04580188882546306 -1.8453771552234346
Ni 0.7423327278775893 7.412288752413967 2.782910535384933 1.3349612414243268 -0.6045128901855331 -1.436806751407919
Ni 7.379037007295763 3.9209281368865505 4.071683905799199 1.3527013390165672 0.38416240728479645 -0.48270379259582025
Ni 7.8486191867168795 3.7454827429745876 12.740732486630746 0.42812081514361755 -0.8276795023788263 -0.37431919594212953
Ni 8.290614127968677 0.0928743118493969 6.70593562917083 0.09698766767065878 -1.1946517710375812 1.1766584197839542
Ni 6.8566405627647065 0.7328582953414524 0.39797337074231937 -0.476334912954999 -0.051394809532208256 -0.12789515588279263
Ni 2.0827502432964886 6.7964279432263375 9.032810689813841 0.2718720478187963 0.28592981146344304 1.0979672364296382
Ni 0.24385520860232127 4.864104854817578 1.2357521329350405 -1.056671720114961 -0.6904594695506818 1.8299795897214417
Ni 6.5570752914295385 1.8029199689274624 7.044520638757727 -0.2304286930723451 0.7292890408233699 0.2276110211178919
Ni 3.583508708537212 4.156295662801043 0.49391232609482993 -0.7786416231145686 0.036327373676124534 0.9488550801495981
Ni 5.8008908469601215 5.482743451066678 5.011774193661925 0.16455960118336174 1.269411480547975 -0.5469875422755548
Ni 5.247457624771641 3.024855788439105 8.90534385131363 0.6729093764820605 -0.5692844060005422 1.0725958475443849
P 9.228062794802355 5.588934800887247 12.307470326925145 -0.47986169516133487 0.8074228090123191 0.1362468702815976
P 3.8048783663184063 5.985078100153774 12.74263245666985 1.184088393699438 1.1399772623128368 0.5227009018140482
P 2.262371395536154 8.345098696409698 1.4091986094910034 -0.5116461866617834 0.5310101930106919 0.5197356485381371
P 6.388447276874325 7.855418410602638 5.725627341971034 0.7430506133838365 -0.9625076379360261 0.515130545665958
P 4.6010048469658456 0.8090232194651935 12.781109346338981 0.4958015063200429 1.458634903026604 -0.31446417145771005
P 4.188775800402171 6.442859223431385 8.343072545847214 0.003080181587220502 -1.0479150569682534 -0.46069900618995496
P 4.644750454316275 0.8933771687789787 3.6045817637153172 0.9078943214665202 0.7157727515044898 1.9885253806105558
P 0.006715708719204752 5.456399862660174 3.4618616062628473 1.1313398983528127 -0.6620258968003373 0.8231484472776921
Ni 1.5506678549922615 1.0192844523211495 2.84405362281154 -0.3333512381702001 0.4095679918420946 -1.221890037928244
Ni 1.5291354663981094 6.435370091648006 4.861972494749802 0.5650706250295108 0.29511919127219494 -0.5083196933917117
Ni 6.247905775940656 5.750228005162498 9.197506229352621 -0.8701608114714884 -0.5945346959268987 0.010837714045452302
Ni 8.404621408050446 2.437644312473712 10.496562858535627 0.35984877024009637 -0.01263877180993307 -0.1435742571809463
Ni 2.2765780515858367 5.38779941552442 7.268393028214893 -0.3092540880116803 -0.89645676905354 -1.6498786983693714
Ni 0.6978300373868764 8.942577091219942 8.871516577765043 -0.1568617183184718 0.56702054966703 1.4133081540653467
Ni 1.2964186392481594 1.3825300381537773 11.544258807409044 1.5768256871374393 0.7783325765145821 -1.6353226549320674
Ni 4.004062038549807 6.8801791309032545 1.6527742238400787 -0.2826956207968615 -0.4062749229131196 -0.6776404634091426
Ni 6.0173222166320315 8.099046675817585 7.931944628599081 -1.359295190184001 -0.5023902152811541 -0.9121854926427064
Ni 5.257080024396347 2.8837968565822214 4.889661403556666 0.6426534058109964 -1.2342619292300356 0.398435629374359
Ni 0.67383395137938 7.341309938578521 7.0831300633650836 0.017036386656996465 -0.165615810362018 -1.0187754592898197
Ni 4.79743796534226 4.521783449300937 7.072182314358106 0.772837614838282 1.7189161606840075 0.03347987692500041
Ni 7.989142532179559 7.360518426885952 9.012642684864588 1.2622136772479553 -0.08572135072822011 0.1632622225281769
Ni 4.5147482042923075 0.29371013194088913 10.430663945483188 -0.5351134165457881 -0.07178931402816024 -0.07612393684777212
Ni 8.11868181769328 7.177819922313481 4.471504595714752 -0.6664965309771811 0.21910401208814523 0.9950313215953444
Ni 7.393152885990496 6.091323916387314 6.7519851657898915 -0.35649605171777954 0.060316023281238064 0.8483761114962292
Ni 2.378185144981429 5.031834173558787 2.744141342632865 -0.7944107130233673 0.43064229601389065 -0.9256233633151673
Ni 2.44300925415126 5.604702827442071 11.143812661517885 -1.493465380442228 -0.8302146100958541 0.30278262135472367
Ni 1.1371588477237904 3.3047405292211014 4.0580518704063495 -0.2208140528007165 -0.033314297881413595 -1.3525745836307157
Ni 3.66033358403144 2.665332074159429 2.9851397878749086 -0.46824879351275484 0.2041957275177451 -1.1341485714462016
Ni 1.281394987003926 3.3776165897750023 8.217757130659317 -1.3267879615849147 0.6426775741807125 1.015633057006096
Ni 3.827854114856264 2.48780787881911 7.055029933140295 -1.1974455317326345 -0.14284843475851527 -0.7694620134978296
Ni 3.638792117701793 6.641552697946056 5.833019676197592 1.8175444492818826 1.1358899796173405 0.7986175520158633
Ni 0.6798797232190533 7.3785831205210135 10.864630537463203 -0.4876462242027602 0.013682896803731276 1.1823593268234733
P -0.019833944283036583 5.558660553011406 8.108318674852184 0.917737275698871 -0.23861174310376973 0.1250815976933975
P 8.578196788450438 1.5996785489297938 8.244674431949106 0.5595368396954751 0.11518722139782099 0.0024425480032216
P 1.955834423340823 3.362502160175819 10.622011716435301 -0.46061313134436804 0.7141344445701185 -0.4929252132135123
P 4.0208467714800715 6.172333627944739 3.711800713193921 0.14744222477678479 0.7332765647162081 -0.22036308130622695
P 6.642042895662787 3.79414848296331 10.451177812154802 0.4954901457272112 1.1069329302633582 0.46990895482399714
P 6.366170513969582 7.870750705853703 10.338285277991819 -0.4364061950808613 -1.1012929583687614 0.4081374300431551
P 2.454982787269172 8.430828830424526 6.145842980223215 -1.0027672567870214 0.7449586290398267 -1.7662979924020807
P 7.170249090910646 4.047653324396822 1.6019016863525206 -0.9908890172921967 -0.30235813222279545 -0.49222433049174574
Ni 5.627133911850229 3.175927462546979 0.1161650578089314 0.08507934626884701 -0.9047732593390353 0.42576748442009255
Ni 1.5209019603041398 1.3155998943491052 7.129087007082095 -0.09715838892056816 -0.3168573542802349 -1.155281496770075
Ni 6.815572887385303 0.7126267462437347 9.401170671824355 -0.3457447267385465 1.054982505337996 -1.9263489070818118
Ni 2.8840056444986066 1.8747157789574576 9.371635351617806 0.036504265573621 -0.646677439368725 0.1725001961866771
Ni 6.579542686779677 2.1963217920744973 2.6632287628452365 -0.9470925889325367 -1.051053602597235 -0.2462157807032727
Ni 4.423634973128942 6.943922989549179 10.679979411985755 -0.6471371526139629 -0.14420649144830647 -1.3758726349267079
Ni 8.10826965508051 7.212878136795191 0.10868863485524523 0.17015689276548115 0.5051685493572396 0.3856001681725876
Ni 7.8023136579568595 3.6073286864761056 8.429006928910677 -0.5661461174818766 1.1523578953653766 -0.8475572151393596
Ni 3.0473413392602327 8.18925213343145 12.520779863360323 0.3321567036414666 0.07811114248112999 -0.016454546011597466
Ni -0.11345353821657339 5.051632714673393 10.23677894746022 0.281978797235495 -0.8896747131347001 -0.6512684011735171
Ni 8.75862585914916 2.3583230597183578 5.823547059208555 -0.20527739061769806 0.17529292844046584 0.1355948385198955
Ni 3.6224521938107843 2.579275141666781 11.856749866315548 0.3629698323675813 -0.09106204621484318 -0.37821904521716804
Ni 1.3088914478182965 3.762930150595987 12.71520952551299 0.6596491690380445 -1.0442774602156661 -0.31016374431014326
Ni 3.011756616119813 8.840398100488164 8.136551340015199 1.1920701263533342 -1.0799067793835013 0.7006721484176256
Ni 5.608815041621309 7.841347920585381 3.644745296639418 0.026028048632645497 0.19928800580348258 -0.01277915404253928
Ni 3.0777517531684997 8.302061152427878 3.7410301137142876 0.2549680729746061 -0.5589565417119728 -0.06422589985860551
Ni 3.3438111027916033 4.426902957907143 9.173312248711333 0.28738377030115025 0.2651480988314014 0.3192333107115793
Ni 7.116853850729026 5.776045084910293 11.74223604859316 -0.8408463787780873 0.5101991698026117 -1.6171894356664664
Ni 0.7399126035946209 8.907409943912292 13.061142054209546 -0.40584246336139135 -1.2284522645267941 1.5053053104999494
Ni 4.697092677180474 0.1242124703252534 1.6430229203713442 -0.22145580014977342 0.37781512491052993 -0.8570589839822078
Ni 5.922332792412299 5.639080211761655 0.5470125398728621 -1.0265396766162707 0.02840066262988012 -0.9592163687792642
Ni 7.874871997768435 9.068612370832591 11.258712282998813 1.433147557388777 -0.6965365289826972 1.360247269684625
Ni 0.17607266543466787 4.806225213301426 5.744773193903549 -0.9728992655829954 -0.14950219262960704 0.8990001043006841
Ni 8.139705853099713 8.863292149406568 2.452576279589446 -0.6933013098748512 0.9233222259858163 -0.1292940931128483
P 8.586375828131438 1.6488344866352462 3.6146253702669906 0.39535184824271263 -0.07901437102168973 0.46324079877520224
P 1.9020942292103928 3.0837339808597077 1.7378988728973896 -0.6244705642543825 0.2763051438894854 -0.5249447035429023
P 4.776622717852214 0.9335906292483017 8.138000146600202 1.4071436771258476 0.664850767843642 1.1852973264058748
P 8.546960300612126 1.5746058434925898 12.59239230313332 -0.6335987518078958 0.7484370745067305 0.29182817922574905
P 6.419175411524917 7.846413296991594 1.4297124761626157 -0.2782794940070369 -0.12904032523082937 -0.4701547522862161
P 1.9215387386406937 3.4302220669685566 6.087901610105697 0.4469721435221657 -0.7808347741111455 0.11431098944045476
P 6.963576286895866 3.8981793317360682 6.227832179440552 -0.6354939119480797 -0.12016024913238013 -0.025146160248324435
P 2.357115720897522 8.775510447169868 10.48723639308806 -0.1889683690450294 -0.01782237289340156 -0.8937658524849382
