# total energy = -340859.4067495776 ev
CRYSTAL
PRIMVEC
9.39785801955258 0.00000000000000 0.00000000000000

0.00000000000000 9.39785801955258 0.00000000000000

0.00000000000000 0.00000000000000 13.75471516166456

PRIMCOORD
 96 1
Ni 0.6210640291977116 6.261792833463749 0.3328101070517561 -2.008704169551276 0.1896016317536541 -2.154939261393837
Ni 2.6890467216123612 8.202619686804987 3.084989759621108 0.7270043585542512 0.24087817054044325 -0.7225686913804007
Ni 7.654658776192994 5.0088515995705265 9.611945977947578 0.2861241868624363 0.8542377124833288 -0.1077140529492274
Ni 2.9992324251412588 2.1846824745970044 5.512725278394519 0.6493002217035527 2.182689949144544 1.5222504229947202
Ni 2.4853951371891894 4.978346152268376 5.561141163610545 -0.3205638565975447 0.6157941195263072 0.8376355851502735
Ni 4.903454621291529 0.6235159303687318 6.106254523226681 0.09619576789698273 0.025667322859117082 -0.8083430068337434
Ni 2.0345422940365707 0.3256686747027405 4.942110830899643 -2.3474354410864664 -1.3754712857232312 -0.47525145008283315
Ni 5.6002212166177125 3.051324752435105 4.757535958577099 1.1520835586580676 -1.0793365087023281 0.6142332027970905
Ni 4.2810062875997925 5.751019247243195 2.817405486519007 -0.3022146646663957 0.5575558047097042 1.2184997812997724
Ni 5.548918309401926 5.794117824362008 11.59898021985789 2.1368705768175844 -0.5328852985462178 -1.2330774220036311
Ni 0.8181164376826302 7.7819621616381385 11.77590711528133 2.5583345487663163 -1.0087435289751143 -0.07292779850797762
Ni 6.9399422719490325 0.40227437499194424 4.144653704616989 -0.08296204281552809 -0.3167236569158481 0.05148556947380165
Ni 8.219911745657717 8.286674129402165 0.6498336921139395 0.2517865899228309 -1.2752404285249264 0.15076666116432744
Ni 0.9968402035694632 0.7773062390043827 12.559499581550163 -0.021327557833182624 0.793072453827918 2.643397439974931
Ni 1.3067815627884853 4.87392655122888 10.209671366408946 -0.14559385871413633 0.155774398791564 0.6662332500134655
Ni 3.185244229963033 1.195896235395361 8.656145280793321 0.4290569538046417 0.36380004157836054 0.44521890827648486
Ni 8.220860929323 6.615810147041086 12.29564249895947 -1.1001835273546665 -1.1596351457530802 0.5118598453344863
Ni 8.328250253513291 7.802806610842135 5.285827152244113 2.1617403434760707 -0.29878609860082095 -0.45863441035144237
Ni 6.067388741383558 3.597847790762061 12.949940173657675 -0.7786835320960976 0.4339500202308849 -0.3812395772110467
Ni 5.497765767915293 7.962090907306756 1.8823881524912784 -0.9426692630538605 -0.5188491321681258 -0.638191770495217
Ni 1.9698380412099192 6.126651634386444 1.9770894284983787 1.5134708770298773 -0.28772238458749155 1.802618938320302
Ni 1.7867959595389398 4.3144250709043055 3.740979988558103 -1.1179490788682038 -0.35765021992688084 -3.4277188870830964
Ni 6.188621110514104 3.3931624419509543 1.3989369590438439 0.4020732261269463 -0.3341904462420438 1.2891760647694122
Ni 1.202145811013331 8.698864184446018 0.7598074272740667 1.6849493168202594 0.7919702219026747 -0.2739862659483217
P 0.5967235767908813 6.727437905221909 6.520821296576979 0.2871906804537377 -0.07194512287973416 1.0340408700893224
P 5.469365440821301 1.197287118390037 9.552374835199924 -0.7257838558835887 0.3373863274715222 0.52740344949604
P 1.9763131654216204 2.2173588271138187 3.677473962635649 0.29417019709536435 -1.3561669289676643 -0.7850781227685318
P 7.0338926590961695 4.802155109131983 7.467173387225508 -0.2551243960468122 -0.23429640355786746 0.3658911197794344
P 3.1905728154899338 4.274258625503999 1.4141633686923176 -0.08893291568698233 0.09133304048804271 -0.13515363721741885
P 4.5301435050920995 2.3589187632543926 12.14960918237656 -2.3410884158225165 1.052361522775381 0.036321460138853574
P 3.5366207454220997 8.325600057536949 5.424282036077654 -1.3231585923624436 -0.18761288345839947 0.8539965430068002
P 8.833300544167914 4.27707798292564 2.690999596519751 -0.8626781299411982 0.02960676712283934 1.2839011895237178
Ni 8.302124208072755 8.914122123588278 12.051399685951132 -1.8879996178796514 0.35930549614211665 0.21990285384035677
Ni 6.213600617269839 1.1241153954403915 12.083696365001831 0.0012331010761527151 -0.9927476677674903 -1.6579074822111188
Ni 3.619641423631343 3.5178062335616844 9.949720973418842 1.3694569612083511 0.7858317131051047 -0.9195761286798226
Ni 5.587853635394783 3.3159872314625796 8.759002957821227 0.9438087759749424 0.19879589665841246 -0.6692126443567636
Ni 6.381352383857455 4.652071315719983 3.416299968524551 0.7066160247058862 0.8427140281144454 0.29626256084801883
Ni 6.405345115515616 0.13771715197487785 0.3970143938289701 -0.9028693574481031 0.7584152687653648 0.6387849239945257
Ni 7.452238311177272 2.536632259398471 7.258528720808611 -2.7427708342689474 1.7335207979710596 -0.9100939002210005
Ni 7.249216383244932 3.1106722261606397 11.091650948620773 0.4135488308667136 -0.3503308034473321 -0.7382107687930319
Ni 0.04020873576163087 5.1260616854461984 5.062299097998374 -1.407126964955299 -0.4948717954169219 0.43513992677392793
Ni 4.188944869925155 0.8309999613137204 3.606349093174115 -0.03985724120625394 -0.38240223006058016 -0.5087099868515949
Ni 4.601698796453337 1.6553387208259114 0.7677645937037436 0.583984174104562 0.045444248375728184 1.1469230975030507
Ni 7.5501076051404885 6.595181848572749 2.577056206109954 1.8818048019228495 1.061994417879455 3.145427443703189
Ni 8.86897481340974 2.8918900902413296 9.273896565020603 0.7085137559492314 1.0691194589600104 1.8435807254446444
Ni 3.5410659322902194 6.87466474977998 11.352343772398577 -1.9372182456961475 0.34420360750367174 -1.980511252056828
Ni 7.5152133581186495 0.5381100757807806 9.347360561356293 0.9554923829604577 0.2293809685341211 0.2543507511055813
Ni 5.603284918349229 9.030580380818177 8.081115719576156 -0.8202302451896325 0.022455243679722618 2.212503175851235
Ni 3.786321834398734 4.821072997431192 12.48859368218171 -0.7744784928758146 -2.816803692915646 0.36511747483820345
Ni 3.2536136474378172 6.453058040947847 7.024079415697245 -0.7191375542116647 0.340561125655078 -0.11773904128539722
Ni 3.3843002617889306 3.855189338351342 7.298898159943277 -0.8042390119676989 1.8065766374164693 2.1831599468024274
Ni 5.261644583852894 8.44074261463675 10.862772693774566 0.33287327009251705 1.028247403335997 -1.4926467411956745
Ni 5.653704426906234 6.3369475044666155 8.78025339449394 -0.8265862693146474 -0.5718326263436926 0.3390027800290226
Ni 5.8927953341194295 7.635111231402952 12.95874408709965 1.0661441783817704 -0.2648925311771696 1.1727441723312124
Ni 0.971757320374934 3.699758163696296 1.2350975207716588 0.5676255302408805 1.967348746532941 2.043131240880894
Ni 9.266776747745155 1.5461356100276993 7.673742066794271 2.537406797474714 -4.880385745451725 -0.5947707231971048
P 6.72167701822369 6.721874373243205 4.7524188248568215 -1.2243539260877043 -2.355605635602085 0.06313420945632353
P 4.8543790064388395 2.7282169940570213 6.618741338973785 2.269216055162247 -1.0619000583934357 1.2327544914465736
P 6.980588008111018 7.0117231119040015 10.45842515129191 -0.12818106255432762 0.8426746902360777 0.11003550199355243
P 8.86518747660667 0.670350156071218 5.200245557710213 0.7253017740408476 1.0534902370631856 -0.006758658880072231
P 8.64604822208062 1.3796525542798224 11.182638191117766 -2.0106965173909566 1.5912128090970465 0.688860243384362
P 0.5263777897635269 1.6845096722818191 1.1003218983733594 0.4761814180962703 -2.6240105508078875 -1.4489426154395046
P 8.71906957930111 4.648265183200768 11.586077900510654 -0.02812426904004189 -0.7021749582153971 -0.3227202408189152
P 0.2761767347374544 7.634490972770191 2.339717999427213 -0.00369107569834203 -0.838536499697988 0.9467647732794728
Ni 5.100960006535525 7.829487129908927 4.1896863609270465 -0.44025719339583536 0.5153030666880803 -1.8771045682337026
Ni 3.955859194020055 3.267851402417102 3.192180789006076 -0.29438411287838334 -0.02640600079735452 -0.9218289292697415
Ni 8.026315869371729 1.895435198852824 2.0357668349433697 -0.5443277360552045 0.6122179721392746 1.584057428999188
Ni 3.6764420778193285 7.215355900611029 13.492756696760981 -0.8881446496434188 0.34820938622895514 2.6933123225275035
Ni 0.206781071161193 0.3075777979138801 3.0893090151910614 0.5800979516762784 0.17415881483602264 0.04985703273144317
Ni 3.7973831133496376 0.3020039282912967 12.711943177124077 -0.6087441546580613 -0.4778863166025189 -1.145714679017246
Ni 1.0657734925285756 6.966989307480638 4.423791704432973 1.3042607270166764 1.366937280110291 -1.2673887936909916
Ni 0.4677445532514748 3.1559792999264036 6.392806493275772 1.4073953881253374 0.5121084710101825 -2.239638598615446
Ni 2.175754509428476 8.771500229485554 7.347053724490705 -0.8213183360474887 -0.1875789448966705 -0.797901242675129
Ni 0.8138093993281705 3.5833844871890452 12.72085610571969 -1.392440823698034 1.3063070680227438 -0.684489368010176
Ni 2.5866570579164474 2.572898593698841 0.030012059753364077 0.7626041100357317 -0.5545134183389546 -0.3322960574328084
Ni 7.910477870774589 1.7559897807784803 13.55773442725753 1.6680216878269853 0.4290286716698676 -1.6498455311385907
Ni 7.311580569411622 9.330860741939045 6.575661557571117 0.13904962983771538 0.9066385946825484 1.324131240688358
Ni 0.8950285081449855 7.244385884195855 9.157848054402649 0.3187023779087737 -0.4068791321560218 -0.07018803097931138
Ni 5.022619461646205 5.278673502679603 0.6823531004009492 0.40783224009791047 1.0300119514355874 -0.44141007605335586
Ni 0.4535161961302619 4.875768531411019 7.8092807952680285 -0.1716905558011882 1.3911074495985913 0.5763850216010653
Ni 2.1951986777797234 2.73939104730479 11.272195079616179 0.014399206144465526 -1.9644984215683392 0.9255395453521091
Ni 7.616249730252177 6.970156385650947 7.624844071459144 1.1347085577147298 0.10869955679094828 0.06739427028425812
Ni 5.269754935369147 7.491173637170128 6.5250719477830055 1.0195408767009344 -0.5635187071613584 -0.3908447044009785
Ni 8.41115815742567 3.0849408907591327 4.70603851569922 -1.4864203006699883 -1.4454978514240138 -1.5702665458626828
Ni 4.93497503726547 5.213847077698015 5.804434792953598 1.0601365387351096 -0.586399468414274 -0.6590650143998005
Ni 8.21390651434962 4.145583152780323 0.3136037045097333 -0.48289122601627804 1.3670846043214326 -0.1735047261917915
Ni 3.36686723506512 7.527552745767363 8.974786237229718 0.6783565156395607 2.540756173562921 1.0156029750991091
Ni 1.0288868995954445 0.8144033439583295 10.386117091499095 1.0372416364148072 -0.2920194693009487 -3.725710000586448
P 2.741731113964752 8.927448286334567 10.580209174691289 0.7575845453339535 -0.540275934583334 0.6053050470695253
P 3.500767916876903 5.549576159466976 9.335050307067604 -0.14186164536521373 -1.1699825504256756 0.0941054610268573
P 9.315645609720258 8.8978920226977 8.309540057877477 -0.65574109223289 -0.15845888760226257 -0.1980201948346525
P 1.9034327760722112 5.6688161826862284 12.455321505463122 -1.0110868323963105 1.1195339068568204 -0.3904119877389341
P 6.02258915195369 1.9108852775234146 2.9804545649273253 -0.9030693892740511 0.1836328157647289 -0.9817325476039093
P 1.7330778027986145 2.7712215925951122 8.039369494233924 -0.8591433773150623 -0.5788131714265838 1.5884558151771997
P 7.077611494847742 6.180275812546048 0.7340591757280305 -1.131106185075452 -0.24213646842757652 -3.7688803653263347
P 3.546648259985068 9.116589577894361 1.073609426589122 0.39575011212239586 -0.7820923006673305 0.6122100017194747
