# total energy = -381166.2323325595 ev
CRYSTAL
PRIMVEC
9.28211702575916 0.00000000000000 0.00000000000000

0.00000000000000 9.28211702575916 0.00000000000000

0.00000000000000 0.00000000000000 13.58531651797591

PRIMCOORD
 96 1
Ni 8.679596186044511 3.1547409383282705 7.454588799944781 -2.390168718288935 -0.06263901498745986 1.989960827505502
Ni 8.451850164257484 5.242019861757954 9.769920983232943 0.5360022469086446 0.0054954758969324715 -0.713119630152359
Ni 8.818150345940785 1.3897371158296934 3.605597492691353 1.388975747967569 -0.1646588457653874 1.72195700439286
Ni 7.527778292192528 2.8901077837330575 9.704385524632311 0.2728842911333945 -0.5686886813980722 0.12379604611275453
Ni 2.8225246901305407 1.3719525797299237 -0.0033434185298209717 -0.8144843438447908 -0.6415396039215274 2.0474085281000094
Ni 0.5817808141163435 3.527659269405693 3.8615444422332446 -1.590889364319357 1.235242805086066 1.6895091682768002
Ni 2.8855038537197557 4.2056250923321885 11.618216954081037 -1.2542409434551238 1.6122395478603586 0.8498316129958333
Ni 2.035670353119287 7.0364201486761395 1.8047953297042674 1.6791216543948888 -0.6789841219212306 3.355642895052453
Ni 5.355493741622088 7.4964325832108365 0.7145002352901142 0.7243476376576944 0.11663320981572817 -0.461076958354664
Ni 5.644780198869174 7.28611837707901 4.949932061611645 -1.1589337488106815 1.5563453077959002 1.4417144731221816
Ni 6.151277475151076 1.6091477965845742 11.553496465349694 1.0026191612449311 1.2370785727432245 -0.7420298854288059
Ni 4.738167988810308 3.002458527444754 9.768263197143476 0.7107549865749243 -0.43628561034259705 0.6739501590417489
Ni 4.585542139599186 6.946216536036495 12.040136508814145 -0.0788261662702836 -0.11655684805183798 -1.6711409501822574
Ni 8.73920594117641 7.468790438897102 11.036629207997509 -0.1315011280664961 0.6794942287884298 -0.9269261412869907
Ni 8.056431981663442 7.551568357966906 13.286968936527334 -1.4603336308852657 -2.292648575153574 0.9213303923667681
Ni 7.341263433952044 3.7067391519593738 3.6690816034433174 -0.556593440796435 -0.5301851260062352 0.140204569377765
Ni 9.294183714352414 3.718341798162251 11.339826773935997 -0.941786603338591 -0.7513442208511963 0.23176669515747825
Ni 9.018820432548779 0.4535038141207304 1.5025491807544162 -0.41556534707611015 0.9368043196326511 -0.5699729474271346
Ni 7.56872171011324 5.827480107038153 7.5378939432580445 2.0484192287527105 -0.5010414145627435 -0.15870519928511378
Ni 6.506643323052787 5.787372079644049 1.9832384590343348 1.0142572597044919 -0.4294986693277506 0.41110962529760164
Ni 4.722156337050338 0.32775897563243306 5.142341064123191 0.5012992962098205 0.5885751359093541 -0.864679219531627
Ni 6.4879212931398245 9.140249086649606 6.907725453417223 0.35710386050510756 -0.9906054246135069 0.5712752111783258
Ni 6.215611827816788 4.123060661952517 11.396694591717232 0.17179082882447835 0.1696015344826434 -1.043973555822002
Ni 2.7341218081815817 3.6927695659311106 0.7981497451426784 0.3639784761377538 -0.02585655605178773 -0.4118534454421616
P 4.782536507890109 8.179958394197751 9.290345558988502 0.408259043222684 -0.9758876587873581 -0.6334560555824444
Ni 6.289376811316196 4.316416440394218 5.9446491976649805 0.6941163495769788 0.3560533077534061 0.5340821470677963
P 0.6465737033599923 5.884500151537571 0.6362705535318378 -0.1302986231179627 2.136847951109765 -0.5211178735976444
Ni 5.989768640007032 4.421341490536074 8.47184384419428 -1.1852109373396555 2.410772767692532 0.6633384449641737
P 3.5448219036689883 4.0897192978239305 7.923784961001979 -0.256583497090842 -0.345761696019411 2.284110712885892
P 0.403167822045866 5.562132229436842 4.668077795416274 -0.32492830421382746 -0.9426900889894667 0.6659211180896853
P 2.6112080153667865 0.9273336079655085 6.280831694440702 -0.14466620469354438 -0.12438482873668899 -0.20348301772143662
Ni 6.755645392683484 0.18634685192346712 0.2581681601309706 0.7634129790902723 0.6025007448515107 0.1388771088155931
Ni 1.6427490599881054 8.583535557601653 7.818934167795822 -1.0695891995075772 -0.07388116356018244 0.3395941337561184
Ni 3.7508849002320797 8.223138802306377 6.88909995752067 0.7498244417725602 -0.1426265485556963 -0.1919246234598759
Ni 6.917822540248815 1.1687299109572964 2.505648996636406 -1.1428885224223606 -0.14513388835858232 0.08063133779982243
Ni 4.091863466842222 5.582590015221756 6.41900807217661 2.705959321867552 0.2694819503200649 -2.4723638010314515
Ni 8.673043011469126 0.7440006594197005 10.67736579918333 -2.5561997618115013 1.4418003479677683 -1.0844702303844678
Ni 2.7609935367874447 8.391562814587337 12.408719163058475 -1.91406134796371 1.9463716300606413 -2.428535233882276
Ni 2.803960456205938 6.227892068557912 7.932710644672928 -2.1049019943307874 0.5620817176045159 3.4558925213038356
Ni 0.5210005840354976 3.9723562109525914 13.680685707082183 2.2086382935791895 -2.2917718289755755 -0.6837542896163643
Ni 5.54260265534816 2.3954080781102407 0.07179624649170527 0.5372440897355457 -0.13937873104235995 1.1826429195021633
Ni 8.897902294880879 4.99114280450087 2.2963400437715977 -0.21045610660516012 1.0619802768120679 -0.12593906059768634
Ni 7.466228574615507 6.092456699960972 4.421124288999156 1.4510082397192816 -0.4626581867988548 -0.6222151925613026
Ni 2.70604340437062 6.399472000606054 13.27815278183654 0.10168353048443134 -2.8864409935978097 0.35094966797825367
Ni 6.120878542099539 0.7144649632456574 9.230570582174673 1.031145550819398 0.55034900254862 -0.5584752312001801
Ni 1.7022474297164576 2.100273887176905 11.602756660068628 -0.04395532253502753 -0.5172475920089608 1.3386515457917203
Ni 0.7935207534135786 4.756360938056419 7.09921088529102 0.8003661592758539 1.7230522943395679 -0.9918765780164467
Ni 2.833180560403263 7.513530242655396 10.155785082837687 -0.050791885840886716 -0.36674266914645226 -0.30972434277987954
Ni 9.005407773538254 7.592920189033959 1.9766908537291275 -3.359747918359762 -2.3545705094693514 2.80729446787363
Ni 4.107475987572813 5.372674940119309 10.166055745256475 0.6170251637199309 0.21343395828656145 -1.1491812974096078
Ni 3.923383761859489 2.4063052834239826 12.09311883243496 1.8963708726624822 0.2944165087782155 -1.6346433694768558
Ni 0.5590089965727295 2.406082512616887 5.802736767851747 1.4769411575349596 -0.9137034719491296 -0.24973382115886025
Ni 2.649645261707677 4.560229806642989 3.815082805778445 0.13088252064589073 1.8111496014991324 -0.7250228093478481
Ni 8.777002721446902 0.8272612485715443 7.286117448867314 -1.0194825126591733 -0.5799267162057367 0.8970193264252294
Ni 0.6931411559481624 5.8262270212482425 11.893509691795757 1.0630670821183432 -0.27293339920377513 0.8710563267025643
Ni 8.517790323157673 7.45478372440099 6.194740987827053 -0.3045070602449982 0.43031833701556854 1.067960919875535
P 3.4295472931141666 6.758550695292685 4.6361250359852475 0.6221102915523222 -0.3071871781803226 -0.438454850079774
Ni 0.4385419697891967 7.5965959073510305 4.19950632083064 -0.7403334715629895 0.14704987443437254 -2.793090408459106
P 0.7178919208281391 6.870140305413472 9.403484354430297 0.9113018044861726 0.06834789244677907 -0.8302004690284669
Ni 0.6634058942594299 9.335210671325784 5.512839547308541 0.6831421099536622 0.8320377793475219 0.4337134787400466
P 6.688851279022763 8.102684770486592 2.632562453650257 -0.10101632921407763 0.10207819481968872 0.13514515257698662
P 1.4803677058496043 2.5845961860358684 2.36085632592977 1.1121532981220328 -0.7876553965774048 -2.97648976805679
P 3.459185092574795 8.678148175798391 0.7628888392262877 0.031106748707133525 -0.14337705356847566 1.582691658999913
Ni 1.7061830473084734 6.91312578906589 5.941457077641646 0.5422145463669437 -0.415557119545994 0.40141322394544415
Ni 4.658972966887952 1.249707099336414 7.247983727751091 -0.5427907305853877 1.2455734975881128 0.9766085961137827
Ni 7.899508512298775 8.356838415031365 9.009482622884704 0.3787432931517542 -0.5565304487689834 -1.4129312303419022
Ni 4.6902722652848325 0.7064108703574685 2.7836725331614356 -1.1535609145345422 0.6250644890846396 -0.33936119180970586
Ni 4.214155357820544 7.688646661266174 2.7700185391098904 0.6336602011734507 1.3100040572583567 0.9676549864649207
Ni 7.765251972556048 4.5661610793819 13.228457255832074 -1.1566832622136078 0.8134741574127216 0.40559846567138536
Ni 2.664255313806339 8.807587296837685 4.200742698810018 -0.3875704045250809 -0.7093833030383783 1.2331077610209344
Ni 6.688712047268329 8.68329975071247 11.349567427476236 -0.34786434418471057 -1.2452551950167456 -0.3128677735048676
Ni 6.975232433660649 1.855959286612169 5.489663029465371 0.2621882448721291 0.8845875284197798 0.8969329373590103
Ni 5.045712370122241 3.005883628603843 4.486795266507438 0.5741666737935078 -1.5927328452859988 2.6714144940131477
Ni 2.8120823085479514 3.8091673126383703 5.932150827175241 -0.7051430397047855 -2.044382596789492 0.4313784028489667
Ni 7.250660690283019 8.982221045366424 4.75793147224644 1.0352006947253785 -0.5074473180890874 -1.850615777914555
Ni 0.9274505626392334 8.194939730974905 0.37268999100014927 2.381314867442731 1.463089853474164 -3.921746589332169
Ni 1.4995909700785308 4.648447046252703 9.55400966057285 0.8978634195930795 -0.21187509843987384 -0.5138791897573601
Ni 5.05837317765882 5.313130159806145 4.032543313759547 -0.12006794652889001 -0.9300968257054886 -0.41458704232324084
Ni 6.561732687224046 6.39614900273355 9.873916893466873 -1.4331205608055835 0.8972324708772998 1.4637210593002596
Ni 2.8201299039542667 2.1005337864518494 9.155484753431528 -1.5562751166795972 0.384137467584132 -1.0945355850402698
Ni 1.4668715077864183 0.23951203324844095 10.117351549343583 1.5113957396684035 -0.8472849353145795 -0.45398302762236004
Ni 5.64520717624944 6.821149292086446 7.729813778205677 -1.0968742604757753 1.5124516917367437 -0.08886940943889857
Ni 2.1506757822822014 9.802472439208039 2.2265246010396473 -0.2890459884949216 -0.4683179561877934 -0.6004754868913658
Ni 5.40066980487761 4.849943241270341 13.464584101024364 -2.0608579687366957 -0.2914252873603755 1.592168745252413
Ni 4.782527225773146 0.0650258703794026 12.636884736532199 0.3522226211534063 0.49829341950396117 1.2129626535316271
Ni 4.1649230094524965 5.704037233556507 1.8802617252428668 -1.2844629755644588 -2.3556010076163947 -0.9238475023616669
Ni 8.545172568196463 2.6459324149227563 1.5397593312328899 -0.1930332831430224 1.7150641339277688 1.1603298578272596
Ni 4.17844705386657 3.2341216025898727 2.6404689608787457 -0.29701692251554007 -0.1122232536734906 -3.3603439000725484
P -0.20245782233493367 -0.13261917431057776 12.446105673759233 0.39609746815948554 1.470521884272177 1.1145315685462225
Ni 8.238472859528098 2.0601937061336875 12.981313466017228 -0.15807347923838583 -0.8854830436508556 -1.436988271291106
P 6.502596320057223 2.6581012702603335 7.719149554027688 0.511713549564609 -2.884027499060311 -1.629325042587736
Ni 2.632807501538062 1.9884893525999088 4.181560275895726 0.31157399439410854 -0.158891604264307 0.5131554242174582
P 6.229024486827313 3.46481005545395 1.7984380077967872 0.26521083374853677 0.6135433758189175 0.1709369654646153
P 6.499264040067757 6.2601752713527965 12.382201083108876 1.596897775296966 0.4068912163408799 -0.9683964926166354
P 0.6736533513858105 2.343530326407938 9.799048266260646 -0.7547969552864872 0.7396503294530358 -1.9017174816863762
Ni 4.163623513077775 0.6055244693059106 10.437761872976962 -1.4275970598841932 -0.496205683736997 0.20115591225015678
