# total energy = -340892.88306558965 ev
CRYSTAL
PRIMVEC
9.03430928276702 0.00000000000000 0.00000000000000
0.00000000000000 9.03430928276702 0.00000000000000
0.00000000000000 0.00000000000000 13.22262483731244
PRIMCOORD
 96 1
Ni 6.14279716143685 1.8409392332280445 11.213063732700613 0.8901534525433314 1.0106196629519044 1.0510610587964029
Ni 4.439902171204529 -0.01018528007548288 5.75797715174444 0.6640879215356885 0.20677120155440518 0.8072356327021776
Ni 2.9401255523905876 1.5664678885648855 4.818496638498487 -0.7112195849161687 -0.33691453004142624 0.042608064478513716
Ni 3.3435526250983116 4.244137727390764 4.685952482880761 1.0882027008437063 0.832236011401257 0.120605821310231
Ni 5.19681465593409 4.683060600538946 2.630614639896348 -0.833611551592545 -1.0227714678230901 1.3340091619237024
Ni 7.143401099737526 6.285999994926719 2.822395856829431 1.8106243251232816 -2.026874926923032 -1.1171276114081727
Ni 5.320647930720894 4.267997337714828 11.789992904746311 -1.2544376328469622 0.5841674937599617 -0.6786575918197473
Ni 5.331136763582022 8.108129796615687 12.489734474650902 1.6437031656862786 -1.4698919639976622 -0.2340449496686937
Ni 1.9182458161674687 6.361725573774242 0.20346709574950791 -0.16994811918878475 0.7122958486994829 0.4441138481377641
Ni 2.556140312858701 1.506299389981671 0.40108086263534243 0.5392359233545938 1.1049655221243422 -0.2093335629649427
Ni 0.7426039459823992 9.02036012333363 4.526487893017049 -0.5448555835342165 -0.6119793737659074 0.8974715834712995
Ni 8.53603984697514 2.324202495422235 1.533031007167538 0.7900835464029232 0.24228379263871824 -0.6905003500909463
Ni 6.90082086618529 0.5434850632010746 4.668565051593485 0.3339405350147668 0.3306407812175725 0.5244250835940065
Ni 0.9968998715710784 7.311872895770526 2.576283208420433 -0.9729308901518792 1.1398489642650886 -0.5797336263583242
Ni 7.590283199199793 3.7026122058327373 3.8270643307926577 1.3292163685207496 0.624415285536415 0.24126460734558453
Ni 7.5503244500656255 4.041001287354191 12.544396561839752 1.5252159333809474 -2.072814369767624 0.7766433617376173
Ni 7.75052473964581 8.640205430858693 6.8501257441207475 1.6206421701017573 0.45404524831886317 0.9149396583490758
Ni 6.676607383026399 0.893071267416828 0.4078331052541254 0.11640746695816727 -0.4534022154182256 0.05923076063685928
Ni 1.7846554875563587 6.416708378936021 9.196970025000828 0.058019513937577503 0.07067808324185247 -0.6761546228922355
Ni 9.241194774890399 4.929868890748381 1.4495169504478544 -0.9135407211190203 -0.8366138287539785 -0.2813645606902638
Ni 6.557146713842338 1.706418370779987 6.8054068175235924 -1.258178587946633 0.7854401340936409 0.20322205075056618
Ni 3.671452873758637 4.633290591725893 0.7055470169300524 -1.36813875661756 -0.13520043129495427 -1.0797861946452372
Ni 6.114049989891536 5.534200929145823 4.939245600159719 -1.0432945274771064 1.1266620332611694 -1.443175116828108
Ni 5.1359866527868245 2.826726904610331 9.210497096011135 0.9583751038248914 -0.0768459026154612 -0.26323468385877247
P 0.12662668315946704 5.612176050958394 12.416996541821618 0.3369294424397617 -0.03781141442081875 0.16989926822872028
P 4.12394527916988 6.161272323539353 12.388329775627264 -0.407501339121053 -0.4093785015391078 0.2889310601836121
P 2.3160354799989276 8.540042045904924 1.3170712687992812 -0.2021023353238261 -0.7808023782113133 -1.3179875896844655
P 6.223699399396712 7.6789368743645205 5.771028114665357 -0.36930143101256396 -0.7593028135766408 -0.21902173678698406
P 4.604109773343944 1.0873333056278318 12.566055414467892 -0.4798737793461929 1.1866558973162982 0.4648729350619864
P 4.11950943340346 6.033590433077406 8.18448687366906 -1.750005168779328 1.1052138906897222 -0.446572851201218
P 4.799359261539204 0.8667407735548491 3.6678897422509467 -0.685898846763193 0.05412326420696485 1.0081735154042573
P 0.2016674613774694 5.620180448817963 3.503519522547793 -0.31059029032460056 -0.9485573464035211 1.6988263319126677
Ni 1.5613454353071254 1.0468415322569657 2.5975183519519414 -0.7905687135694579 1.141003389584506 -0.28072049934836174
Ni 1.8943862058434044 6.331288986427869 4.839916985366475 0.431732700864592 0.9226406265377595 -0.4632806508742021
Ni 5.863194329206834 5.581477468648219 9.141884228715348 1.7547072022406875 -0.19561852737169536 1.088837506214228
Ni 8.710040640175247 2.3223143248210496 10.32737259238478 -1.1931281353042031 1.3283753606766928 -0.3971094543637677
Ni 2.40898045198453 5.182459138779626 7.053754554003085 -0.7444125267283696 -0.4883468498142106 0.1822603608972345
Ni 0.714703289199435 9.442479181562176 9.366259426007069 -0.5224389064019132 -0.9119574357923004 -1.3691227177973841
Ni 1.5672990450017708 1.3174190896994993 11.391832834241894 -0.35752012210691975 -0.3863496447441024 0.33165122475995784
Ni 4.033819011622411 6.93673224484419 1.382332407420237 0.8688032690023295 0.7903054326057422 0.04409776165016276
Ni 5.681017486274324 7.919330805115385 8.09898978610268 -0.37869881306706393 -0.4237643379471347 -0.10618270390636553
Ni 5.229997673245823 2.7356791375350107 4.805670629874073 0.4208919014953461 0.4306014154736261 0.6790214029170693
Ni 0.8279980424250809 7.2843814931896365 6.905872851832097 -0.7750983858480006 -0.25644568596139705 0.8882500648730315
Ni 5.082593886026044 4.447463887918365 7.006219633260526 1.2143489923561925 0.2986097209239567 -0.22603236377686234
Ni 8.15367174877154 7.426680895769849 9.182292886442525 0.6558837884583413 -0.6640161877574887 -0.9677904836015202
Ni 4.463138414200929 0.284457869938517 10.31559094989193 0.6260967870038959 -0.2846614862739807 0.2571504253379055
Ni 8.224591075179683 7.099331739964415 4.8906256588946615 0.2916970529645235 0.2020002625283231 -0.37374943948158856
Ni 7.258895707228189 6.148524913404081 7.019626547959849 0.4026992897467194 -0.9549933318368521 0.809475834886606
Ni 2.3886261535899376 5.323566012559089 2.556052680060464 -0.4783360025454278 -0.6125889823254482 0.25195216896641764
Ni 2.3473935668731523 5.197636778061878 11.348317277616403 0.03395990188521249 0.2565264186006614 0.45097997912997817
Ni 1.2872987031715057 3.2742594743275526 3.70675082282988 -1.5020464372430198 0.3992722663430414 0.7233266525923479
Ni 3.6197314541807235 2.6140140969313848 2.7844074905092273 0.7616679713747075 0.46530436617245025 -0.6710162732244056
Ni 0.8920079292361606 3.3034854642549845 8.280932640429588 0.3025594496003241 0.396908136986239 -0.7211874947621578
Ni 3.5766829713355257 2.8784844614246303 7.173419398572728 0.39447870160914 -1.1240107116812514 -0.37342933713800847
Ni 4.132021951502222 6.5442547547615195 6.039354322281023 0.04117107492167103 0.9913608147222928 -0.6094118701490473
Ni 0.6574140249253002 7.358670616890804 11.120769230969964 -0.43109146773616724 0.21110325327085577 1.1464428154325224
P 0.046632393263810516 5.41289726090606 8.094480762432577 0.472359987467651 1.085924446332491 -0.7365328668699767
P 8.50482630904646 1.5668563638560384 7.889107427463689 0.04665009575837128 -0.38665432046871473 0.1781594513549835
P 1.72526393955545 3.3660570890578887 10.341242967140756 -0.5312099677263238 -0.8876383994309617 0.5631962908249333
P 4.02766664712764 6.205188100057822 3.608004920973365 0.11159230495771105 0.5954458948872584 1.2007884800629385
P 6.862235332033801 3.877155057578639 10.289687778850222 -0.33809620905435317 0.2219042005411017 1.3740880322224593
P 6.480743561812571 7.818245920633765 10.350008957257169 -2.0118429722905735 0.2607150027607123 -0.16795525712847204
P 2.296123862750068 8.36941104999784 5.873252225524055 1.3429745986471064 0.32712248365166885 -0.12239145245574405
P 6.9999272369747585 3.8583456260395614 1.740308774493983 -0.2786852140858878 0.38704127149448825 -1.173552784275437
Ni 5.1163189618835725 2.9776360037595824 0.6869986769238666 1.2001158794759461 -1.8206066331469744 -0.2938786339968745
Ni 1.609010450100675 1.2772886886924966 6.918342005247194 -0.5523989430991132 -1.1484289926246156 0.5669315894976494
Ni 6.778604732726773 0.8038421067626486 9.13820907177486 0.4029839108666737 -0.0956190694579063 -0.11176431175920105
Ni 2.9883055228026416 1.747361859605682 9.084617550213954 -2.0948320116892956 -0.5678535870912865 0.881364907717424
Ni 6.381402298986591 1.952540053498082 2.772189490887014 0.31577903361439164 -0.19267410003139074 -1.3891904350815365
Ni 4.017385603375733 6.879382450699108 10.22702581095635 0.3597122446622322 0.018744627597354815 1.1023393973554048
Ni 8.442697365389288 7.227673134990412 0.5386047294271028 -0.8038286639031577 -1.4105550168002416 -0.1108330581941833
Ni 7.344974604300391 3.6427237708315165 8.27002461562638 1.0808526882365386 0.06536541277968742 -1.2235157464571251
Ni 2.9818730947258776 8.454965957142441 12.39755922580033 -0.3144073500778456 -0.55146074755556 0.07177337318856025
Ni 0.009133686496641114 4.983252623200064 10.247679144982039 -0.19435894393298142 -1.0514572657935568 0.03300036618542059
Ni 8.711314477757863 2.4243207088305203 5.774808973022275 0.046377815933591096 -0.2328424447201603 -0.23319931383894676
Ni 3.541882812695505 2.597987232594054 11.349401394707993 1.012422006267966 0.9246188333100528 0.6256041636381936
Ni 1.1720028504809679 3.4929258917011445 12.787508012766867 -0.5858279121815201 -0.09075454227675338 -0.3786347925983479
Ni 3.2653245426310358 8.265146088714225 8.27582915922093 -0.9211275323273427 0.18157516190475181 -1.1386384888967551
Ni 5.74548631598751 7.859984428659959 3.52597158751461 -2.3068066118215107 0.24144638433908738 0.13639316605147478
Ni 3.0133305590001647 8.334050764193831 3.3270108051424754 1.512642467591311 -0.5707445354858364 2.00634826772459
Ni 3.3763652357370852 4.305363240138278 9.339272137873769 0.12966818862281537 0.4333290988174343 -0.4663857721620871
Ni 7.132054007512222 6.0207888170875545 11.43438352665587 -0.17614036404242567 1.2690978059622982 -0.23685516542397916
Ni 0.3879377497616397 0.13924761296738755 13.29481970234524 1.024168862391249 0.6883825324169951 0.37661133441041594
Ni 4.497107416404065 0.44335420176005375 1.5741795748097251 0.17682633436585676 -0.516404270172059 -0.5531113957851055
Ni 6.083794088727093 5.482831847622676 0.6287066043400116 0.1273670512934645 1.375722739612405 -1.2245945813436008
Ni 7.926025228155949 9.143985609011214 11.31470603405349 0.321054423080718 -1.31012669887915 -0.40338705984236334
Ni 0.23164239552900806 4.824068096918347 5.7851758427106 -0.5542478233823939 -0.1593798567546352 0.09790760838176686
Ni 7.868295993028811 -0.3261204897682996 2.4352639674392065 0.7513853585017769 0.800926402654698 0.32944264714441324
P 8.59360646453854 1.5694130733303704 3.618067334445134 -0.30145387524097117 0.0960659271873378 0.15356556406570326
P 1.9142797544740706 3.252007971022679 1.6458333905474203 -0.051110959743202296 0.1606705505416007 -1.2994082840203813
P 4.666961461728842 0.9962313326979315 7.987800930327445 1.162249957668108 -0.1582233745526888 -0.38988259759802535
P 8.26677226435161 1.820901135651833 12.457828005214516 0.7012339344583666 1.1522249693319382 0.5683289840658082
P 6.4022173471451085 7.6298083014973255 1.220534255516879 -0.654405404140602 0.781553397444725 0.003306695775729789
P 1.9559098507911055 3.2360443468490243 5.957215287405839 -2.005406215526295 0.31422840129782015 -0.5370340306072686
P 6.923722839745117 3.935733517760855 5.9338110062602425 0.7067286390243507 -1.4460475532798969 0.8072518306520935
P 2.3490649140560196 8.44617557439147 10.332238471264198 0.21427470902030193 0.09220670134224765 -0.990907786345274
