# total energy = -340871.9923346213 ev
CRYSTAL
PRIMVEC
9.19184605492857 0.00000000000000 0.00000000000000

0.00000000000000 9.19184605492857 0.00000000000000

0.00000000000000 0.00000000000000 13.45319582742416

PRIMCOORD
 96 1
Ni 5.186434880990044 5.74156724098833 3.3557923049420495 -0.562463783534283 1.5090290392084398 -1.11420298156221
Ni 6.930357903155735 6.45002878761329 11.1076310189807 -1.2695876011145233 -0.3162397753008941 0.669031638694209
Ni 3.13801356943032 5.998470150707707 4.664020897575755 -0.8989144865654132 -0.16393456600485315 0.7433848567948035
Ni 1.8591428144062863 1.9413638787534842 6.828156522702165 0.8368768526073781 0.21323315512966504 -1.2544664292023686
Ni 5.296976023509821 2.6272870184718684 3.5817251272265453 0.19365343322552456 0.7262057739123559 -1.247310791994194
Ni 7.683776769593121 2.81298069560346 11.471701663660836 -0.7275095803254439 0.0321416177295511 0.018903007552090026
Ni 7.701820363703076 8.96497306170825 1.9556507653174697 0.7280536257543719 -0.10035812680478846 -0.9701273592648131
Ni 2.8671758208567946 8.335772804950912 12.425129588517049 0.16320822936178989 -0.39274243564432365 0.7071330735516208
Ni 7.741915196870485 2.894907620871942 9.119289452617863 -0.7433084950309135 0.22069861026877477 -0.18663072205078826
Ni 2.7194260848795047 4.850197146633365 10.039891456289423 0.029293863868110837 0.05527666108511771 1.6026056243150206
Ni 2.2303003725142236 0.7879388448785152 10.761884319719918 2.043692769811319 0.1242786421761279 -1.343427369913809
Ni 1.6573634064074394 2.732101640802902 9.185720763545763 -0.1168052166172182 0.45435480913948206 0.1646750437153035
Ni 6.791165775999824 4.1636397695265 2.847718520799763 0.06209059868315758 3.637160436380813 0.08110313522991838
Ni 5.57216151534061 7.71012060083058 1.7768445385509257 1.627673623027242 -0.11841575563744769 0.42425413309935966
Ni 8.488743509575402 6.740730115846323 13.236868880786755 1.8364965649043532 0.2262781612390813 -1.6036579768389352
Ni 3.47224748131325 2.3866628683901525 0.2372332780148981 -1.9224297745330632 0.09313641224536862 1.6391320013758286
Ni 4.892911655970583 2.408245323290904 11.949895513328729 0.6214754861818006 -1.3593718090582072 -0.4192209415508264
Ni 3.4616400907870717 4.1381323962941385 2.9685692380285182 -1.5657262347901681 -0.4235663630037157 0.1164573463594962
Ni 0.17875015650466375 8.214256598056563 11.3501247905815 -0.09237099483425382 1.1496919184974395 3.394123310515839
Ni 7.600176928314444 2.3336810668365193 2.3336856627596245 -0.05156578789243377 -3.455276999207024 -0.8184204456744034
Ni 4.156552856098698 8.05286616230384 3.6728705550588967 -0.4739209041968676 0.2870400138084863 -0.9462538950813253
Ni 6.480067741027113 7.5617917785420685 8.762227590672746 -0.2462137238207437 -1.4421024525892194 -0.06498051863644293
Ni 1.156040114121674 1.2159066084864927 12.571701848994854 -0.37787606005545243 0.5051358963470913 2.038603785324186
Ni 0.7224120116176651 1.3975834488243755 2.0031266509913963 0.008762062463346201 0.20320893812444357 -0.9811967297050971
P 2.3871776117779047 6.143931116978742 12.030063119232645 0.028611750199421693 0.3417307204831469 0.37193706886319816
P 0.4674596116640199 8.814842637562606 0.43905037258320556 -2.1659515533439406 -0.5667117601773596 -0.7141282739225313
P 5.261182974368625 0.7009986866871752 2.579932465167911 0.2146943130562238 -0.40141219550417967 1.3005364840875537
P 6.39355408449991 1.864097219513401 0.344332074129082 -0.4834039039866384 -0.8546712004763217 -0.5760019272300338
P 2.7256765403022096 9.171982630200507 5.818951555859899 -1.433206178540854 -0.17913749899753664 0.4663122386116743
P 6.885051293187335 8.36605074636619 6.387617990217583 0.7249397627157386 -0.197659211950808 0.5836859261378529
P 0.11222600793004386 1.7767838723659406 7.978404854527005 -1.240862722376005 -0.5005287365923832 0.8792416907268341
P 1.0686164648196956 5.628948741225124 8.801793892683088 -0.20262761169967683 0.5282130898815289 -0.1534452364377551
Ni -0.011175446621947804 4.109683632274622 7.6794878541516 1.0047511199862695 0.1959453145834948 -0.482161289828789
Ni 6.874921878664069 5.8014337353531475 0.8561938180944516 -1.850016453767659 0.4581029633280046 1.9920768454072402
Ni 0.08278268615062026 3.1273510278268826 3.8623724140752334 -0.9137638928734197 0.30637573802262075 -0.7695792558019843
Ni 6.620344506035786 9.06736103663988 4.112817132647564 -0.517644056116431 -0.20881857100173715 0.2979967699303061
Ni 1.4321355987272395 1.3559443854937099 4.428429283293937 1.4582762341356046 -0.02074108920209331 1.4074455246369826
Ni 3.979085881324931 3.1350905623355847 7.056390064092988 -2.291309030406544 1.5657917979207807 -0.3724980835729907
Ni 8.636759809092776 4.474590734959855 1.5170360862446115 0.3630261395268135 -0.9160421473846352 -0.8315410422167614
Ni 9.005784858880027 8.214109528517204 8.916751717306703 0.5407531313300687 -2.2800067180198478 0.5180106954272304
Ni 8.63192489798639 1.948138269410151 5.833709064949829 -0.10826915412174903 0.9267464211760168 0.010108549188911624
Ni 7.4008701269460495 0.44770173823592574 8.25958986437897 -0.43684096862543476 1.9180552996144513 -0.6065093517902715
Ni 4.354664717459811 1.0585513932198989 4.682263954748464 -1.2122854249589445 -1.690834829066759 2.404319298757704
Ni 4.559937027018405 0.36930723946589267 0.7220719133079003 0.48746470431957345 -0.0839766001229715 -2.4046162611728326
Ni 5.911680738794209 1.5629355702935475 10.014854705583009 3.661325720773107 -1.6544748023804858 0.6238928373740417
Ni 5.070498124745079 9.136235540290361 11.683374255735355 -0.49817669142043874 -0.5957120040644515 -0.5551831907124697
Ni 0.209069461227887 7.018985684311205 1.8825994867492282 -0.5904834086756605 0.8294175681158555 1.2006815221714289
Ni 1.7127167042832163 7.271926908314134 6.829716379003978 -0.18809085153608252 0.9649992940096284 -0.2500760349896273
Ni 1.4381286824560684 8.344275262695032 3.5909004281132275 0.18251772832367918 1.0269790781465347 0.9740554906746256
Ni 3.7728851952991413 6.6465412677338875 0.8317012246836586 -0.7280194300823268 -0.8159408737856594 -1.1082112827551494
Ni 1.283374759666865 5.400926612297128 0.572049033762912 2.3343410697963543 -0.12166845824679044 -1.788051324918772
Ni 1.1600109916843337 5.0430880393472775 3.0069644988317243 1.1478610359362875 0.8374993166827254 0.7655616500021589
Ni 5.174623358610373 4.294614386170796 5.331030894532731 0.25956674808888197 0.5025899899967861 -0.2675158277326296
Ni 4.028960838859631 2.26798694197465 9.505140176892262 -3.5390499679596212 1.3519220376483814 0.5321278515549029
Ni 8.582325695837985 7.69957755322787 4.52367795127437 -0.5473490393800315 0.1415132608868595 0.05715536616506931
Ni 9.088511474768767 6.137699045248457 10.457236203232666 0.3795825012235979 -1.5481943965539917 0.007370838542774402
P 2.7388668396133586 2.837844639601131 11.597031567547656 -0.15913277374083562 -0.39339421029570953 -0.8650605141304457
P 4.997818196763716 4.449588913269036 1.5647013239504615 0.2500040441011114 0.19580570368183697 -1.2486773333244172
P 3.396791615776509 3.08155725000936 4.929870231211189 -1.3113909103035544 -0.2679647423445901 -0.34742905641950483
P 7.178951383901398 5.137653753154317 9.0706425257368 -0.32380216102918424 0.5212106904217668 1.7172793964115327
P 7.487659538859548 8.524417064715868 10.524489265211729 -1.0981562125119926 1.5088488048768338 -1.0144948296365948
P 7.042195095991102 3.1850574383323838 4.775266135515206 1.188430729828534 -0.2525836319028295 0.9797934215996675
P 3.8321634115065284 8.844302504665206 9.775926451127013 0.38195048723514224 1.2884764675992262 0.7678116223786002
P 1.7949377686304142 3.341236097284115 1.4286886563985421 -0.11480438413710552 -0.05418882733757765 0.7301015094223361
Ni 1.968966992921694 7.519932110902365 10.333063552783669 1.5174673997837802 -1.3013813485863523 -1.8022749247173218
Ni 6.9306428503882405 4.448145793414088 7.137257169493473 -1.5285534823946128 -0.7508027465254296 -1.4274165684422706
Ni 8.454614184598192 2.3623963943961224 0.13411271294034155 0.554148064579736 0.052141715000561806 0.19644050905235846
Ni 9.16252422045056 1.1079759502903161 10.427316743819572 -1.3912982254531587 1.141551548778492 -1.5327690631378568
Ni 2.7775001692334005 5.331932614645918 7.645343822220454 -0.20362545683657188 -1.9058721272846983 -0.8279021599125936
Ni 2.3441046204385008 8.84015698202456 1.2959703465282364 0.9557248106862379 -0.3971266807549483 0.5978946135380672
Ni 3.7660188861803756 4.499132964340181 12.616569088714424 -0.2985171612101504 1.2664752807377866 -0.18732234880117415
Ni 8.19662663702605 5.17614920508121 4.751735928402587 -1.5095121494924455 -1.2990971805378662 -0.4639697065214268
Ni 0.7727447230936166 3.736972652157218 11.269405673904993 -0.014571984276903937 -0.28310416908918984 -0.007607122923296576
Ni 6.324367058078294 1.2461477825169318 6.112971140574691 -0.5512612299502442 0.8751320394338348 0.44317950924895283
Ni 4.154751254241566 0.7448244902311668 7.558005657088227 -0.9120618225806486 -1.3322047617251123 0.20010715927066827
Ni 6.082437665834778 4.00408770301575 13.137409428057586 1.2446507286635273 -0.7108210639261694 0.934944383605777
Ni 6.241171658032851 6.5239863822178235 5.262271288959873 0.7659491152485648 0.485420677306351 0.5856998712440881
Ni 5.742146327299551 4.289650789217471 10.882101718744817 0.22984119599999125 0.6555927395804838 -1.6497334310407588
Ni 8.153755866303262 6.563336675842234 6.9040995560880285 0.5725787604810978 0.40758695685632385 0.6382452494409717
Ni 3.5632743343294937 7.461187021775151 8.272020917193185 0.7990474404644303 -0.10946985929806952 -1.338153008888747
Ni 4.80783192745212 5.150154663999726 8.89834780282532 1.1777804492035393 -1.029155002751931 -2.3496687012923596
Ni 1.7561022183937556 0.18331482733248025 8.500267327168704 0.9469429507285497 0.04427928153334955 -0.3043777337559855
Ni 4.567318079524923 6.798252689427627 10.265811409989228 -0.05104591083322177 0.8454687080414472 2.899588843833677
Ni 7.15850871793067 8.58671020648009 12.736194532843406 0.14395195223533916 1.1929844106374874 0.4367743770535575
Ni 0.04944018320897406 8.98268574935465 6.699301545793862 -0.2507632908646391 0.08765764851898451 -0.6227926623313275
Ni 4.632819175616385 8.145639466099956 5.932590350552398 0.251330990442651 -0.5912696520223817 0.9938074764905723
Ni 3.096144709944408 1.5468498394262924 2.7587800552423993 0.13369556461465362 0.5708584353558814 -1.2080598169133712
Ni 1.38152529349575 4.284282751030913 5.626274833162676 1.3265704462574701 -2.0611197070385145 -0.2434078789408324
P 7.320340362301465 6.5271759528526445 3.1566040783897615 -0.5048057667011822 0.16086338327869718 -1.2781367762361149
P 5.516201555614981 2.324213465240364 7.970870298188784 4.374277457889034 -0.3471565194844086 0.9332016898830573
P 4.520265018776649 5.937500634797705 6.571630478677391 0.2893704617138758 0.6752184842312113 0.5327680562420631
P 2.5653155913249917 6.948539374958838 2.6081578673245285 0.12580330635077044 -1.8941733507905312 -0.42197073638182164
P 0.6635152570279871 6.154952140584364 5.357883034865594 1.671850574654772 1.9613650181456803 0.08736274298638502
P 5.60826708725294 7.064843805052197 12.9259923693077 -0.7828206941929227 0.6081090921772238 -0.11270225019243815
P 8.682682272757237 0.7927664025079336 3.7166742981719842 -0.29959162522125177 -0.7248459174503518 0.7375775060844071
P 8.380003968912758 4.703247101276332 12.397752593765603 -0.5385988039912273 0.23647027128073472 0.6788391117029342
