# total energy = -381176.4711637762 ev
CRYSTAL
PRIMVEC
9.18123194787363 0.00000000000000 0.00000000000000
0.00000000000000 9.18123194787363 0.00000000000000
0.00000000000000 0.00000000000000 13.43766100886191
PRIMCOORD
 96 1
Ni 4.706198516020749 8.81781126821118 5.269847200593451 1.1512574632123462 2.540685468225986 1.4417023889373235
Ni 5.022969381567509 2.260198962287377 5.48744331648658 -0.6415601727468178 -2.3076226799649033 -0.4235869318290059
Ni 7.149269256754604 2.261796496650751 1.6119948037323142 -0.4618084372040498 0.048254721241329804 -0.5847753025472897
Ni 3.4282628376411353 2.5158962727469802 0.04472361718889847 0.5968923975257978 1.119125358564492 0.6166832069994799
Ni 5.5707492247973605 6.599175743067452 11.274641003180394 -0.48739657008579934 0.41072447404404094 0.5575987421324978
Ni -0.07601233763109896 6.680695901759403 4.633413381428307 0.6694869810640729 -0.42059571041116595 -1.2113593136002492
Ni 4.475171175873712 5.863869236780603 2.49455358090158 0.30083192538625614 0.8913346173356262 -0.08049301244974523
Ni 8.088702093506386 3.8251399521559395 7.247441415876737 0.8751042715196928 -0.9093685920192016 0.7166844646854819
Ni 2.0352404164747657 6.8391088782287035 3.091065567199922 -0.11920945518333664 0.04641483981911361 -0.38774215421625485
Ni 2.4950456949353557 6.405589466908 7.025208777837033 -0.3670730559026775 -2.539044075967821 -0.9015429253271958
Ni 0.02491694545265059 3.2514782159930324 9.554203914240484 -1.252273278205792 0.8230695144106406 0.18726398475941297
Ni 6.870499510345808 4.419505366418897 9.265750722469328 -0.9466246481571826 1.0381839457234183 0.05293335766392174
Ni 8.301963749784866 1.4753229845760605 3.687025761456663 -1.2160487486561185 0.15430475622457296 1.7686389818304316
Ni 5.402347067940985 8.160490146306516 9.223059830039345 2.8803161116469944 -1.8410559021402617 -0.19317392248594473
Ni 3.031817241029082 3.6961160992335405 6.224915675395958 -1.8067990378399204 -1.1840290012164125 2.3910184678837405
Ni 8.917602078530226 7.869876610652016 9.44956449531628 1.3748092266592 0.6616024361096735 -1.1852412763569586
Ni 6.920876930183936 2.194204266862471 8.698870244241986 0.90322288413278 1.376698987482745 -1.7956052260066304
Ni 1.39380282588411 5.373224200121313 0.027205826583622913 -1.1006524965712852 -1.4831711976050714 -1.1477515069416169
Ni 4.160915967887668 4.569012547873985 12.872889666402111 0.8125524169294007 0.6419792625621074 1.2038426935082298
Ni 7.640189730373097 9.148464156501742 0.49715085763565187 -0.23006899574008116 -0.8084790181909753 0.08993950257462575
Ni 9.262944937978252 7.529969040532251 6.718803523188259 -0.3529790397034566 -1.5595936395298688 1.8283477105449737
Ni 5.260735745983035 1.2139792164528065 12.976722055035854 0.26615211461588356 -2.1344930777243434 0.7634278914886078
Ni 6.733717516405874 4.658226578959657 11.722477627640439 0.020382677421410058 -1.494853519039006 0.721735396845828
Ni 7.262014785388137 8.045880827582378 5.450355729929971 -0.49725597937838234 0.42153519150629987 0.003851769645922399
P 8.875882560443028 4.28094221347612 11.622152469620541 0.5330033121813208 -0.1978481880331625 0.3254615510094782
Ni 0.17791391318083316 3.227634556558074 2.65150582336391 -0.19876170098636736 0.17870838187991803 -0.5632672532721847
P 0.44329650524919234 5.020940329301384 6.0076959900137386 0.3641656524478954 -0.05768295653376518 0.7331248696296923
Ni 5.891752638283863 5.405184068620771 4.457029979617441 -0.33242821213529844 0.22914879791865697 0.6690707194622606
P 6.121503787186597 8.542897639231219 11.919017506125739 -0.8694383314831672 0.1972843451098925 1.203488652602921
P 3.102072028089652 1.6501887287417198 11.527793276136967 -0.23942806835747793 0.24228430685935048 -0.627594711705661
P 1.8174524128333918 7.184791443259746 8.863427301147894 -0.713329689280636 0.095016659987217 0.11763773982084258
Ni 8.204688597026536 8.375698223763361 3.155929134845704 1.2895635300158177 1.0815260601544792 0.4555092344588994
Ni 6.588369433034742 0.7934393127729202 10.254937573408244 -0.8195882407302595 -0.9971038878536569 1.1504686487624638
Ni 3.1272561473927287 1.2721606834683363 4.764550753950985 -1.1521334380593964 -0.012859886681803658 1.1406825159099774
Ni 5.1091536061019545 8.172737909759052 0.7084688471053603 0.04820227073683957 0.03382569030019336 0.12258042853809856
Ni 1.9815302094302887 2.3347964720713725 8.922606768078934 1.7312399723566827 -0.8678992691308214 1.022513586176013
Ni 4.206822127754742 4.687275996923542 10.535166217577613 0.05215122808225857 0.1637273350900535 -0.4292819253312542
Ni 3.8061531644349174 7.082650237555505 4.612987894657049 -0.6740738291038069 -3.0412399158499817 -0.4806890761586367
Ni 7.838770596726087 6.3316254621301695 10.472695278984103 -0.9302168962231205 -1.1290261626179718 0.7743951891333889
Ni 3.2254402421164277 8.77218972653528 12.167156826424828 1.8649671615402204 -0.4344848096884324 0.3468112203298479
Ni 5.540111453702075 0.7835630615391178 7.489225487403828 -2.7206107532321404 0.7637757617463298 -0.5867905332051055
Ni 0.17580131170375038 5.64092138077017 8.299086351684398 -0.40063906478358097 -0.24424657279204387 -0.7371656153579692
Ni 1.2438274015983783 2.7711528840718604 0.600275373284245 -0.046732113949216295 0.0979996538749409 -0.6322175551896531
Ni 3.6529000403346767 8.292892692595132 7.767358056313668 -0.375751814623598 1.29643840275878 0.27505250242930696
Ni 2.83570612607694 0.5566571764249456 0.8740744007026335 -0.5668426293282689 -1.4215392837258871 1.1409486250871705
Ni 9.212356349804736 0.3703764065467395 5.859881827734549 -0.22878601526259953 0.8484565870251775 -0.9974610140827596
Ni 6.8995397470777196 4.833202497908997 2.388785788567841 0.5908978705052598 0.05858901328780232 0.5635760427618552
Ni 0.9936755552507169 2.359953047678529 4.913628253749717 0.3514384346892141 0.09606129920164747 -1.9541507597854282
Ni 1.3208303941594086 4.5710875062999765 4.077537527844298 1.0102998177186406 0.5782040770876753 0.526013511127049
Ni 1.4073359618129235 9.111858584623738 7.888525529036416 -0.8628087419817915 2.062429941209506 0.1342270116380914
Ni 1.3580511085796323 0.01660793051671014 3.739822435919785 -0.02847882416598321 -0.05662623313447668 -0.4903934479305942
Ni 7.434071072569932 2.034138668637956 12.302259573036824 0.9085401825806354 0.7308345309336187 0.06754108027476756
Ni 7.499726062411822 5.736406193293685 6.296538466020568 -0.6465041470156543 1.1964769971717781 -0.660993598881081
Ni 5.882497956454661 7.767845579731456 3.2151884784949125 -0.8215628479581272 0.07629362965641699 -0.267166671923327
Ni 0.7948927017943118 7.585285963172076 0.946544619038389 -0.153259088568878 0.9496431232685322 1.2586174752562644
Ni 8.08871127473836 4.000244408352907 4.599832107362344 0.755032725446377 0.5369460988791527 0.349332701200121
P 2.9576971553077036 6.104601139123541 12.00026130973529 -0.4946303688300772 0.3729215442636545 -0.7992891241615911
Ni 5.7999035936218215 3.816454506709089 6.672497061607143 0.4053544679813793 2.045022801476652 1.4687069425506252
P 5.9403856240470425 3.2716034764787576 -0.09361643181692463 0.061621372356222906 0.47220597838829 0.9205387497034083
Ni 0.20215603808343777 1.096275822553628 1.7696999072164639 0.41898568561156874 -1.2731349521461495 0.002778076965769409
P 4.266509316813912 5.349867145980945 6.004753405166259 1.0012230522283532 1.0200409562658046 -0.12004994880676098
P 0.7783012974951538 0.39714796085801995 13.298809772018418 -0.4103840599854868 -0.19968446991095287 -1.1911075053297486
P 6.387649339631948 0.49125650670871956 4.308316056604857 0.6447542542040832 1.5414866455165128 -0.6113540814770826
Ni 0.6212994763801676 1.6961499760006347 11.33673642938619 -0.023517109285333695 -0.1782926344987381 0.7380135651805613
Ni 0.704561314777475 2.4126257755100102 7.015990820935724 -0.039765967044028294 -0.2294658149384435 1.334050042463967
Ni 5.15369176240499 2.6358398872476725 11.140130446030682 -0.03770882740468344 0.521882776788127 -0.7042585802173033
Ni 3.5787799546132986 7.042500710135762 10.085582404673026 -1.2109026856788048 0.05884560938329866 0.3516346098604202
Ni 3.0952503727334046 6.598450425741553 0.6683854245558258 1.4337396824468212 2.1655466045960385 0.4289955044390869
Ni 6.202812777543159 5.759047111340125 0.4429366009558345 -0.27344067785749676 0.7230312328391161 -0.5507308113680709
Ni 5.444433835307118 7.194257293424337 6.846260139812795 1.0732388804450226 -0.41637344479970223 -0.3005460187147211
Ni 8.423266186617623 4.10110024158087 0.532302122369068 -0.7327510312300413 -0.27253616376535644 -1.4908395127836067
Ni 2.0240209510032527 3.622032738440056 11.766486026858608 -0.09505599786558469 0.6286673759445496 -1.0073602754743425
Ni 7.525148893746207 9.145103825599472 7.830272448411493 1.547642894925896 -1.0423506755065985 -0.11904233347785306
Ni 1.8545996773978284 9.075647805720589 10.212152114288934 0.08759285671932011 0.4634855677961566 -0.49725546515775004
Ni 1.2031637251881238 7.728696806596815 11.988771916043758 -0.7918491229437782 -0.38679521692195323 0.6345145787539459
Ni 4.457304498453446 3.0139322011448693 8.737973111216759 0.16279890973851316 -0.22326148589994455 -0.5102194815175858
Ni 4.865502071991471 3.5980789042214165 2.0716173756766327 -0.5518857509081205 -0.5013558604793688 -2.2995962101160012
Ni 3.6711064233379584 3.8962669562539847 4.142132085393258 1.1097418604670628 0.6558580774267286 -1.606037789925021
Ni 4.719327677742733 1.188271766927245 2.799346611215823 0.1829460741103494 -0.8660737858863083 0.05841572093473165
Ni 4.6187656439379206 5.530058004691186 8.314324442390674 0.23185874065065232 -0.22469590435362594 -0.03360328987674213
Ni 2.366875696586484 4.77158725013541 9.013472502796624 0.8504008552357419 -1.0297779810479104 -0.7548506913425581
Ni 7.348703977681121 1.967703274078326 5.996166198901524 0.08812893172844821 -0.7567417377176838 -0.1433845097676434
Ni 1.0734880047956123 5.787683373865207 10.540461034056682 0.022119457606858677 0.1332566773050221 1.7536106267423994
Ni -0.03273201010842132 5.521152209676973 2.3004742725851557 0.8147944188860419 1.4875806395266769 0.034948233940410786
Ni 2.635775618623858 4.610006748635282 1.8466037424721813 -0.8048691893525299 -1.1657080914200375 0.7286778896019322
Ni 6.244761826429692 3.0071564519484895 3.708243588547224 0.06130666932928151 -1.1622864673329985 1.027553719703082
Ni 4.1877435277139865 0.7026672266213595 9.862692390424026 -1.2004390671433196 1.185585804180571 -0.28656281706175163
Ni 2.506375335190549 2.2941695205890116 2.8354674140456315 -0.8569800511151564 0.3105668932858329 -1.304491869190876
P 7.558247235010368 7.03738676392657 1.8122163562389533 -0.9227648108204495 -1.3985723905170688 -2.2433402158367493
Ni 8.146580579866793 8.93105258337128 11.559196761978834 2.2784928524784824 -0.7687464754880438 0.556693456709409
P 3.1849877340415618 1.6319548020425179 7.202787576050836 0.4459982096446705 -0.7191491241758905 0.06413796813048954
Ni 8.57567463737631 6.402017967670341 12.95795010814301 -1.936307303846104 -0.06633420445085994 -0.6672218391789799
P 7.204916703745471 6.586891254687023 8.233859207252468 -0.34774093123296884 0.5091270197843554 1.0633316486336397
P 3.5513372522447613 8.386146465749107 2.5209588040571216 0.33333169778617433 -0.6793170797806172 -0.04844035488957464
P 8.78751320269891 0.8215816250178315 9.53394001715196 0.16725591706860227 1.4412110511232017 -0.09484953828173343
Ni 2.1614548124132997 8.303423565668638 5.884768475121687 0.21827868797337244 1.2796097612372155 -2.1644477151049046
