# total energy = -340898.48498039524 ev
CRYSTAL
PRIMVEC
9.04747848366277 0.00000000000000 0.00000000000000
0.00000000000000 9.04747848366277 0.00000000000000
0.00000000000000 0.00000000000000 13.24189929398417
PRIMCOORD
 96 1
Ni 6.295117714751018 1.9395983766415914 11.40131446189343 0.37296859545150607 0.35590289821847093 0.5679217213250606
Ni 4.780171774932122 0.3165848334557993 6.076032125376011 -0.6745250577086125 0.1666617351280291 -0.13930468327131493
Ni 2.772780644133541 1.5126297853995447 4.844257777270332 0.261806178942362 -0.5760278953719628 -0.44344407576424916
Ni 3.410003581279002 4.3986124767788155 4.871999154928969 0.4764007331959279 -0.448078489212467 0.03342305554513599
Ni 5.025186532082188 4.490733899817181 2.5075257735009457 0.34890615518566365 0.6429128301199701 0.6145435349486578
Ni 7.27876859219691 6.22812113867568 2.52952019300657 -0.12850579288359806 -0.9280422571693049 -0.21522421741776485
Ni 5.107672390836928 4.5848548155378746 11.50449552228419 0.42549597592626076 0.05898753427780164 -0.11477455934043458
Ni 5.653570083025676 7.976356303896679 12.61906612353602 -0.7054060635581851 -0.09073525900304373 -0.6483620261599995
Ni 1.9931232576762572 6.500821179119537 0.3557224146558935 -0.19216990670146258 0.33401612544770864 0.16987381430742357
Ni 2.6526391811079617 1.534732774643576 0.2766963115650565 -0.23055853378199 0.21028384269335398 0.7958011656129906
Ni 0.5355754243096992 -0.12136468207829851 4.781848272642691 0.48761819917830207 0.39927689432873176 -0.37590685214422354
Ni 8.496957247036589 2.305351730378474 1.2865351146625448 0.7758139238577865 0.7488366239379942 0.8514714625921014
Ni 6.944663317205676 0.912800075657105 4.808676759750888 -0.4853543428447899 -0.5872381622654854 -0.4654745732017274
Ni 0.6512854325126316 7.408681331679122 2.363308066235787 0.64223277333381 -0.19237019563772675 0.0821770850203875
Ni 7.697096841757396 3.9860836607449044 3.7852495491439395 0.4677086047385687 -0.5788627937175966 -0.12888374504830705
Ni 7.637935381803766 3.8080383372355757 12.584121143734079 -0.234541429689138 0.07168389879854752 0.33460696495417214
Ni 8.054788892417557 8.880208423613405 6.785943407132798 -0.2160045472272151 -0.5179011664325597 -0.011487946034941507
Ni 6.826865151034048 0.7861236191272425 0.4327092161603185 -0.15385327050945116 -0.4540174804047213 -0.17043122947279035
Ni 1.895763344759753 6.59492399988383 9.227471446151752 0.3965877775323428 -0.3842981615317123 -0.4035431258042534
Ni 0.13468528423302106 4.922796221286157 1.319014656654828 -0.36642282391318826 -0.267500658223978 0.5484114192062749
Ni 6.52913073840917 1.8165255306790224 7.086693344241932 -0.4378020469871235 0.3800915796495325 -0.38464834578227947
Ni 3.544204825428292 4.20192030069808 0.4993628928118544 -0.7686873401153342 0.7555047799867891 -0.8550764063345402
Ni 5.983178761351219 5.537355225539152 4.798308349733017 -0.5572835248849242 0.1173564611349979 -0.31088776696036136
Ni 5.3448429843870855 2.94959551060759 9.338107628579793 -0.4715773436653556 -0.2528569401688742 -0.5315910052148264
P 0.24466914348280264 5.647996836454115 12.452217959047736 -0.07103263836779379 -0.08782451311415197 -0.22104596630586448
P 4.046683669732428 6.1556327433325855 12.695273032419555 -0.8322231558854507 -0.12492296062834617 0.372454631929565
P 2.3777948883305653 8.533690008530968 1.3754229689920205 -0.40200380634159155 0.14830662965960908 -0.3004200346598181
P 6.348986399957305 7.852007763507828 5.911448544681334 0.4501942500038892 -0.724402659265346 -0.44061226274240894
P 4.553306259052433 1.1216792048740303 12.516018061074808 0.803917366962222 -0.07066985571173635 0.6103338677426844
P 4.058698720782806 6.169023011069452 8.246736570929906 -0.6421846937046941 -0.35745455897630696 0.25026475396166575
P 4.743701390305561 0.9803214054680771 3.8564251554001285 0.2131753053085361 0.7071089051819048 -0.25595871902264955
P 0.38604684734079703 5.579887420560105 3.5545497120028418 0.16172341728614728 -0.15189254723865453 -0.14023310862285526
Ni 1.4610863020908071 1.1209011217487799 2.606376710824906 0.21809254010449539 0.18267070896177573 -0.3908339057677011
Ni 2.0693573089943937 6.556309362923729 4.754913930039547 -0.997388251863295 -1.0155739216333863 0.41143152741339467
Ni 6.0286875767001655 5.469281999557943 9.27085229462792 -0.4237777076835734 0.8884398122863344 -0.19420647751551715
Ni 8.48446267964158 2.228430070717094 10.126238883119749 0.8820295378846165 0.9387406174234155 0.5731868263787419
Ni 2.360686107053257 5.216332604025965 7.052277641914724 -0.053279942370063074 0.09699615231109102 0.10414150510662064
Ni 0.52678398974219 8.907993229167404 9.24107071063505 0.24725990569707096 0.4905520849956455 -0.31395946390714957
Ni 1.386752221194794 0.9873965334209351 11.40332752579306 -0.23221329577659364 1.3981954667936245 -0.5010884657505951
Ni 4.0585811035661985 6.979333253670321 1.6537405886506218 0.7798011906403086 0.010757752737136311 -0.6912865934376675
Ni 5.623812927223948 7.865027084638471 8.1385242079118 -0.356372895876354 0.10855891744802594 -0.023318363010966292
Ni 5.210641740237796 2.733921725262025 5.181792951247408 0.16448143964725864 0.4645785437500192 -0.68702473283752
Ni 0.7864022814558206 7.391029701709779 6.90086990372356 0.43037978638112334 -0.7164682349096178 0.053020003840457075
Ni 5.136624321078804 4.493837184839982 7.164013092944139 -0.038163398443598784 0.06345251202769071 -0.2868487237332866
Ni 8.057693132919946 7.188809516448484 8.885816955349947 -0.015619965925444065 -0.016282796320423572 0.4688470892183861
Ni 4.685236586173375 0.3277503263031422 10.439701431848524 -0.41460992514137623 -0.4507102704083593 -0.6079414562511077
Ni 8.150936443255183 7.00387906202851 4.580320219463742 -0.4357425933549334 0.8369254464571263 1.1712117948470862
Ni 7.0730017954809865 6.045389221458447 6.95847248318323 0.6919201132566084 -0.17344199127465612 -0.04481227121868411
Ni 2.455901767636223 5.181246483564093 2.4846573676011445 -0.8416308223525958 0.5246721666078061 0.7151916821900393
Ni 2.23609328475299 5.262121891199129 11.474952791715818 0.6280816786444087 -0.1911977725961804 0.16324371058541565
Ni 1.1980037309741722 3.3978347230992143 3.797842734051335 -0.4169311170753852 -0.09857326699022378 -0.1531906972247878
Ni 3.550863769383923 2.7206309797853643 2.661489424283775 -0.07833662822837477 -0.8197707890547107 0.29659731847961823
Ni 1.1148845487453902 3.3670009173916173 8.168675833763073 -0.5156396240918926 -0.09333592985068442 0.02915888095214333
Ni 3.607700027440003 2.7222142884704668 7.068552245701938 -0.1315054989418703 -0.26935545204452965 0.5234087265143502
Ni 4.1914342734636 6.889636554789713 6.10998459681935 0.49320032125176994 -0.37516457466156033 -0.39532536588015144
Ni 0.789390663505474 7.5006760900226785 11.296227097845804 -0.4719013026636775 -0.6100513035052589 0.5575948854777558
P 0.13374253700452 5.528606314119185 8.023001482507619 0.5973541676535647 -0.1509458670546691 -0.467715289606788
P 8.584482551149057 1.4495869572978626 8.056861669673312 0.2660143034864386 1.334979753367088 -0.33585626398024093
P 1.6820709571401162 3.1140424743814386 10.386389166551572 0.4181649894824862 0.15820331994803075 0.09753325576148364
P 4.084918312608104 6.10427925706606 3.7046591370722215 0.2255852489371147 0.6642781831696237 0.6093429645843248
P 6.981025132093831 3.9148981022626943 10.447474120370648 0.2808421125278905 0.12976923297705392 -0.10587674263017251
P 6.380019250185314 7.552246715766017 10.236172981239426 -0.36761170201496685 1.3758713493751271 0.29008060040702305
P 2.551108380740988 8.435217255795791 5.81300836286768 -0.8988653784950326 0.7066144820439895 -0.5778163547309533
P 6.962975413083662 4.081561698195686 1.680105844874949 0.40867041972848966 -0.08315333289072777 -0.910247137969413
Ni 5.404393485903341 2.894170659150801 0.4933707479996064 0.2113606206973005 -0.4598315159833371 -0.6636089250167411
Ni 1.4454884496729972 1.0362348207476975 6.9134893263177375 -0.2169586836103683 0.14032284012318416 0.44465223713973745
Ni 6.863588865050227 0.7148928232540301 9.204536993661085 -0.4722157485803029 -0.9443353379023736 0.31159790565350853
Ni 2.6562491249099955 1.4574582633323725 9.111035830197132 0.11756729159422334 0.3003015068040828 0.7314734500691983
Ni 6.316080721741774 2.0610788664408575 2.5603874743835084 0.3797853612630233 0.12138152313399096 1.0135952006404607
Ni 4.260891763609498 6.873631565852876 10.69029124506579 -0.2592103931907278 0.0005481591939861528 -1.4461732802244838
Ni 7.95908466801176 7.1057084291761035 0.3474385436154371 0.5461552761822465 0.7482015614571565 -0.11689263412470191
Ni 7.5598285024981084 3.705177557573115 8.094123708642424 0.9771996927305623 0.5568490084506668 0.7490698229947228
Ni 3.037808423063302 8.444364256256584 12.327399854540277 0.8015324116698131 -0.5439844937831728 0.7484892679009045
Ni 0.19775887376058512 4.921149580253651 10.186767417029486 -0.6048594748916745 -0.7514725188989446 -0.16154986782276048
Ni 8.713029121422979 2.396993637072208 5.753446099629763 0.3310151338378557 0.23202869056961328 0.22796789023667835
Ni 3.6119794846288804 2.877550441696325 11.521550923440117 -0.8653379361615483 -0.9579300458676728 -0.24824052444278538
Ni 0.9943449966789851 3.3479559757793846 12.661784696607906 0.5560648219864747 0.06251637336666653 -0.5948123750683175
Ni 3.110767287272826 8.386912769682864 7.9012025214756925 0.4794824574450452 -0.3272363835217138 0.8237958510537039
Ni 5.784043766156324 7.874436461967079 3.69769438835341 -1.185349519800049 0.24140113292344875 0.6945482949080748
Ni 3.045435447186396 8.232019942888835 3.519299832185539 0.8043940494883243 1.2601755637720038 -0.019995212175004273
Ni 3.3538368366097653 4.348534684938573 9.485595999214464 0.18048527127468272 0.32826353923464757 -0.8163455654232458
Ni 7.2747515118758495 6.030515167296684 11.448614677926091 0.5047399464602533 -0.14304126749561172 -0.020065660401623508
Ni 0.47919968289402876 8.994613785459812 0.18539730429512472 0.12114601008441718 -0.14957135530464566 0.7011758275269215
Ni 4.596887961544654 0.4876699319854173 1.6765963280809417 -0.5581227329567678 -0.2542191106237235 -0.29870999394724684
Ni 5.98212020640175 5.655985759705232 0.3641021889652761 -0.2681156661001576 -0.29004666184529404 0.6374397228205408
Ni 7.807177509023925 8.913521238347963 11.396878483331683 0.038284754512811485 -0.7388208915732051 -0.12208137741449297
Ni 0.08218186348720138 4.975769206150587 5.7283529188404385 0.28968002253449465 -0.43597836351482333 0.5086791336136594
Ni 7.899642736233912 8.875295642950487 2.6794721919552593 -0.29070794957837676 -0.14127080585875024 -0.5784439610126231
P 8.645978260478438 1.629188447057692 3.5638984712275072 -0.5013486613905173 0.7527336449995552 0.7120227975437544
P 1.7626930353855366 3.3251382357575068 1.5226064396113306 0.14076249876376404 -1.2114341327022426 -0.17444215040439634
P 4.683327568273051 1.1503868532044892 8.22238528335303 0.5816976920632305 -0.6947856077298615 0.13571568036847595
P 8.490063068647743 1.6727972919845158 12.390868818865204 -0.31740577058453723 -0.2392115814712977 0.3123262991791008
P 6.15508084716235 7.919131004277974 1.5481501848150445 1.133845695493802 -0.3234560905436752 -0.9561919801306437
P 1.8619348237677626 3.210760016345701 5.952895947066038 -0.9531974162786939 0.15732091734307743 0.2262398518019781
P 7.0049738068907805 3.915006672001102 5.9620990418916735 -0.6436165410552142 -0.05938939770191061 -0.1801687684755284
P 2.4818137452027007 8.482237000004236 10.226268706853245 0.18454761426951444 0.15190643119572547 -0.6316827657321057
