# total energy = -340890.059029804 ev
CRYSTAL
PRIMVEC
9.09365515045630 0.00000000000000 0.00000000000000

0.00000000000000 9.09365515045630 0.00000000000000

0.00000000000000 0.00000000000000 13.30948351344246

PRIMCOORD
 96 1
Ni 6.18923270796591 2.1317164792406116 11.440952298584795 1.9172657138336204 0.8511822134864566 -0.5264176885440031
Ni 4.577109503093522 0.35637216543357697 5.833333412605964 1.6923474090565436 -1.4698590538771976 1.435784737901308
Ni 2.859454428903984 1.4140542996076917 4.989006618192206 -1.2920554431997362 1.6292247695644455 -0.8708408682576486
Ni 3.6436366967794664 4.460956244430192 5.229561990207153 -0.692367228096356 0.2800101035448984 -0.5916846280726134
Ni 5.12917622040285 4.41533337598003 2.8700967336572676 -0.21703350271236171 -0.27779561239208284 -1.486227467932892
Ni 7.207931251396752 6.210484580313533 2.619838431477616 0.08914785991126582 -0.6270573511449523 -0.9249733884359941
Ni 5.223541081058089 4.5842389288190395 11.84695763443914 -0.3611602899626683 -0.10584280406844351 -1.4726278748715862
Ni 5.753119188904143 7.845241893133392 12.152477170281296 -0.73345242817244 0.5774497154201538 0.3876691348864743
Ni 1.731932112951099 6.672733264598694 0.5916741328035849 0.884670060831257 -0.01763416814199544 -1.1877193055838062
Ni 2.865474428687522 1.7663606917735653 0.5756020064932765 -0.19233265753157197 -0.699125629866112 -0.9345983131202679
Ni 0.3319793445584095 8.87938146319935 5.037865918550165 0.5977269776119511 0.6979251818001077 -0.46412782936584585
Ni 8.910290797435367 2.5891637135473613 1.2632896796511268 -0.15190617408540935 -0.3411447660726899 0.7167528560295721
Ni 6.89160845310317 0.7644335767426907 4.783907408044348 0.8086505107718331 -0.5962370233299861 -0.8715762037617764
Ni 0.6196898659351895 7.418685805752135 2.5056030247090724 0.35288930820312775 0.07565188230736004 0.5589388011001599
Ni 7.45536051742435 3.897249648385322 3.7249648932509 2.1882805558584444 -0.00262663898956967 -0.23544645800191064
Ni 7.804856970114223 3.9908779229643274 12.582905336073173 -0.1294982387038544 -0.8942371356944018 0.6013684310192804
Ni 7.745266247181411 8.507496431254085 7.315637413687077 -0.9806958788092788 1.8124438948305237 -0.11629973773570937
Ni 6.984918449748001 0.6804845888247081 0.12942362978737193 -0.8057076260934253 0.021458426984092074 0.8382588205565692
Ni 1.5897164383064728 6.600447798919934 9.365843823351012 1.0595402999120076 -0.8764049926089875 0.30569696678804126
Ni 0.029505273863543277 5.169233771832581 1.500830504946674 -0.24251544903355013 -0.983445673640274 -0.3417980833859726
Ni 6.379599287223573 1.66772181314512 6.855848563150326 0.8733983445721797 0.7453100988419744 1.8192915138799766
Ni 3.7798778399168658 4.264042233383787 0.5781109459801014 -1.2492918269799647 0.6929117877459162 0.14421960407442905
Ni 6.0315214447545955 5.481491706223986 4.73656583874964 0.02722309738201118 1.4437716127615263 1.6620230470413893
Ni 5.168378968237941 2.7954714704795585 9.112790131543779 1.1891701790977196 -0.3822348512447804 0.3348481344307007
P 0.053520708045331926 5.706668797825126 12.564218783874997 1.1999713834782817 -0.2026605218201413 0.6115859949822307
P 3.93240571962876 6.166780473123683 12.624178709211453 0.010405768714356273 0.6938574394886372 -0.3430016167757706
P 2.3840563191097672 8.69081542768359 1.459105177141865 0.584604067076748 -0.7153647174327938 0.545166429906416
P 6.365649620051449 7.673790116820982 5.818786292283117 0.21391758279119935 -0.05018484838450712 0.25533702627825056
P 4.804623664097031 1.0426148567702729 12.656720354567025 0.19730182861138923 -0.3983847215317655 0.47920709229647146
P 3.8720420359986667 6.168917482110286 8.024926155554617 -0.4578090862366696 -0.6390309785670608 0.3920176416631571
P 4.919758433371 1.0578012610580487 3.7601555203843335 0.25883269813633486 0.6761026866083776 -0.4000569670278659
P 0.32590478284329916 5.4044957271194365 3.7184301925795253 -0.7321812747695002 0.04208741608835332 -1.0612354282262433
Ni 1.626827645431271 1.1854852745937732 2.77623838960013 -1.2751219006691912 -1.34616482344963 -0.5983108751398792
Ni 1.6916017518635025 6.696731420835485 4.624073685694849 1.504098691786358 0.6698849878334399 1.3450988440789606
Ni 5.741261062442311 5.472088866682931 8.989424694892046 1.8045809471426792 1.0738983684058923 2.1943622432761503
Ni 8.782915968178555 2.1972089844385523 10.373012521274985 -0.3662161072190209 0.6775003382868525 -0.21422971471497942
Ni 2.0073971181518795 5.329873192038305 6.935558998350625 1.0249049692263252 -0.22397033904151104 0.29569588971127136
Ni 0.5306184220080428 9.212418399864745 9.078878072340203 -0.13065343535422017 -0.46764124183574296 0.5710980621705133
Ni 1.5662911823511971 1.135297391202016 11.542277442977678 0.7121276985527348 -0.8637605643720994 -1.1955125763759797
Ni 4.088298251787646 6.753966887055402 1.3971628349582643 0.5293410328383851 1.1354822026559606 0.981751830877619
Ni 5.516056689875384 7.861083040600041 8.008662153118278 -0.8909535798471238 0.43905674532983097 -0.10885999362821253
Ni 5.420982524109698 2.89617460885251 5.037972314316731 -2.2115696082933716 -1.175750049037072 -1.7357003221208818
Ni 0.4945911785904919 7.407282362053411 7.049235145320547 1.7790396083384654 -1.1637586810031506 -0.3405981495406005
Ni 5.11168002767849 4.483099294993505 7.12527174379494 0.10854091972589694 -0.8796736360579301 -1.3414813019310314
Ni 8.397763293205829 7.123623973461441 9.335764739840428 -0.763230430765821 -0.2697843120518322 -0.38778406319778375
Ni 4.60198974389074 0.6232563975290013 10.464249164520048 -0.008624765554533533 -1.8606402520300924 -0.10706304962878979
Ni 8.17777867875937 6.981953918132543 4.654087294887546 -0.44892952435885264 -0.15640200507323387 0.5922651831664316
Ni 7.296976323723638 5.832243083340033 6.985522268457407 0.29556502056036194 0.8686209777881944 -0.05017739218533939
Ni 2.4196943540820985 5.2835864867540066 2.645845376161814 0.005860572545835068 0.14496496688088584 0.29684337305215325
Ni 2.3037320621792743 5.1787821098578295 11.44608930444238 0.3643978230633595 1.4405091399601708 0.7057960999077522
Ni 1.2259520405103013 3.301497011196667 3.768327079002894 -0.7199762480628761 0.26754668097056505 0.32484680024361473
Ni 3.5134792090124396 2.5536529897487 2.732637040714742 1.353824653987733 0.7994942981938618 0.6631594961841483
Ni 0.8497938999573574 3.445540510548983 8.454157596313996 1.36507580142152 -1.4654233867033473 0.012779411152855412
Ni 3.2898298514953392 2.847023402160637 7.489219833427407 1.76195797026583 2.0429718324848944 -0.6154349364146756
Ni 4.099783538383731 7.06267829589457 5.878772589219832 -0.24561311412226733 -0.762230785856713 0.2100375310105028
Ni 0.8826747386542075 7.407555171711275 11.678699549854795 0.3212791374970144 1.2146012175763146 -0.9430251037313825
P 0.18369456439183052 5.378778870038101 8.147773253856409 -1.4748536788783115 1.5983483917005636 -0.31786831204325255
P 8.56663247142379 1.6624293057825537 7.967549737678138 -0.7395099472204296 -0.312786526644971 0.09341434849710363
P 2.0653691704480295 3.2643676167613442 10.472846306204877 -1.6883269750432408 -0.6087158725232872 -1.0295846340901817
P 4.144324261857697 6.109717786353746 3.850779251264728 -0.9662797033839488 0.86104625076473 -1.1235157743227038
P 6.882751232877845 4.156227856595841 10.498254888372825 -0.13876989381376745 -0.6735459816247948 -1.1370822001532288
P 6.425049376223755 7.862528931786722 10.009663703524295 -0.15341618297203255 0.3164652610481388 0.4221998216734922
P 2.337996955207022 8.55834815147998 5.9041666215393604 -0.643648422734414 -0.35162355411682666 -0.06435831167141175
P 7.087467600139167 4.044312241284669 1.4923261185455194 0.37207925086801724 1.5169079277358843 0.7356664051046233
Ni 5.7053411241568535 3.0168656014916477 0.3809377657587251 -0.8778198706786431 -1.2007452855298288 -0.6910045434208744
Ni 1.624972539757794 1.2883254219533276 7.203651777230388 -1.1168393907437928 -1.3160417788120045 -0.967471923919837
Ni 6.8368282738040325 1.0041123203903672 9.308892079175276 0.2834535820088086 -1.1001153931208925 -0.5590791833327661
Ni 2.8092028899253916 1.4878311247494431 9.180961627581947 -1.2737728428404644 -0.48674993764073593 2.4737491114147523
Ni 6.4304237264836805 2.160425148903191 2.4939713302632676 0.6077553083822308 -1.086828189093683 0.49164943182488224
Ni 4.2065066765402195 6.9156247966504845 10.339339625204802 -0.5374214958536745 0.3858040566532775 -0.03210947894003502
Ni 8.074511129602495 7.418713086717921 0.24877967383402738 1.1986590924247615 0.008065036396321593 -0.19200509898882417
Ni 7.503002177342708 3.753697206417161 8.21800719090803 -0.10319688180516422 -0.6631939489665094 0.37256621780676485
Ni 3.2467895811396255 8.570560930497034 12.644568503040226 -0.18643120444547248 -0.7316832520871592 -0.15855350419859793
Ni -0.040625904883615734 4.736839557773031 10.600458479864031 1.2203121519181628 -0.5061252568435541 -1.6628357727506715
Ni 8.951985206812283 2.0677426144714484 5.781013976420761 -0.6552978340478844 0.6505315230074925 -0.3869757083638755
Ni 3.7747762993148046 2.670288212140923 11.634671708537612 -0.2052784190589626 0.5099443734793282 0.10199129153283724
Ni 1.323908894994086 3.276362148052108 12.53705421687593 -1.0498734662462048 0.33149747279091296 1.2205998583619109
Ni 2.8297363635073065 8.149133664683626 8.105821494035574 1.162355887118353 0.6615749253058477 -1.2792559774422227
Ni 5.774871212291185 7.891837782696602 3.6283248000490733 -0.7569841927457931 0.01765576540855024 -0.01615167005919799
Ni 3.356922840019417 8.665780594746915 3.765106106309043 -0.5096432972991416 -2.1991923176749415 -1.5716819381529707
Ni 3.6601507747355146 4.388352500817256 9.521538113825184 -0.9699926334591616 1.250976156660923 -0.31515039889145724
Ni 7.368752544707718 6.1946525265021455 11.314737819739433 -1.2617981869770913 0.41034112256269323 0.31282637874397096
Ni 0.6697468006911719 0.26148260086971237 0.24424375858927136 -0.3620257232867572 -1.0268371532520315 0.9985725019793833
Ni 4.83056786255992 0.5713088918440198 1.5057283476708632 -0.42980874436900174 -1.3378197939190444 0.3304492340320567
Ni 6.160305790577038 5.833607131629355 0.2604250087627254 0.048415158078594034 -0.1290819771020422 1.1792040690239434
Ni 7.969724940016842 8.840042310535326 11.344298564900075 0.2952230638399109 0.5052197143101492 -0.4430409267885596
Ni 9.062072997415767 4.553484186722478 5.693836740884718 0.4297740344763243 0.17219629179301313 0.3909112959728558
Ni 7.92066466987759 8.86333116166167 2.40001932155693 0.36400624405189563 0.8616504600076321 0.6932663428718577
P 8.676602044508863 1.4960063208301078 3.5402427458144476 -0.5213721557002957 0.5044864356885506 0.40142325124777317
P 1.856506096387171 3.5092051910392335 1.5210347882080992 0.18832327926186274 -0.28178365050555343 -0.4498687483436704
P 4.501404823036196 1.0126603563367798 8.001848277230357 1.4605174647612975 -0.31617344083933285 -0.24234087112889877
P 8.596568784546758 1.7167093340422745 12.489140656665235 0.09543317869934533 0.38403282368546765 -0.7743933893611761
P 6.340487475941104 7.873159414788165 1.3829885545011649 -1.4577877245349602 -0.5853365743673983 -0.39999654610357566
P 2.0448993524529495 3.0860865053470663 5.87949098798554 -2.4713073347424794 1.9801685240054285 -0.2804281649189235
P 7.014354611831552 3.7660191092973623 5.85902116999046 1.1425254826559872 0.5817030913798691 2.4491102298201497
P 2.4201399431899433 8.53927875639527 10.209438578516169 -0.09441913561253418 0.30631763109117566 1.612061627521598
