# total energy = -340894.45300393243 ev
CRYSTAL
PRIMVEC
9.02845063224050 0.00000000000000 0.00000000000000
0.00000000000000 9.02845063224050 0.00000000000000
0.00000000000000 0.00000000000000 13.21405011006628
PRIMCOORD
 96 1
Ni 6.446656792175294 1.8501552342263607 11.385502750434043 0.14764251371304896 0.42209646332640854 -0.5081574567822345
Ni 4.506659446270093 0.466867499185112 5.993047572660606 -0.04815239133551062 -0.9662084838263811 -0.7428567522054755
Ni 2.8040110375496012 1.7552662186757007 4.720745677701441 -0.313036437872248 0.06831986742232105 0.5164739470677299
Ni 3.5021901490194494 4.376062908692519 5.077168140993954 -0.2755754648123125 -1.0034234023137816 0.4022069234913331
Ni 4.952348908939773 4.329033709643672 2.6480824733467143 1.1922089659240436 0.08994335922936769 0.3934438325867224
Ni 7.418867435518944 6.509187840862628 2.7477032998441016 -1.0065755747895182 -0.8377088615903703 -0.7240378197267595
Ni 5.101769765967693 4.460018470596 11.548101533922262 -0.2850042143253801 0.431396914791728 -0.12280565717502721
Ni 5.567971868345374 7.876041087320921 12.4872644367786 -0.8442824010428299 0.019477906218953553 -0.2577618336696593
Ni 1.8348971527534192 6.5388282441026675 0.3476115983756814 0.334310773869992 0.005356122105590776 -0.5659003200196576
Ni 2.714403665585728 1.6905141711467437 0.20656101787649866 0.20824598632771876 0.07298744810131946 1.1868286754487365
Ni 0.6455278962475093 9.125596703899655 4.889845848449225 -0.3344550127573402 0.07940389315062454 -0.557253442977937
Ni 8.668107056327527 2.3259816649177454 1.2140801257316147 0.4897797256059952 0.15683575017654278 0.671686816928869
Ni 6.89324007145197 0.6109281651062348 4.909905259938326 0.0021697539578091666 0.39175024693438343 -0.7009264305202767
Ni 0.7868899582915538 7.3533299127899 2.367284117766423 0.31906156102040534 0.44348598474577816 0.5106480844145722
Ni 7.453581827982529 3.9628939249965276 3.7522881612621135 0.38174428476160704 -0.07287303401064224 0.6747369166091024
Ni 7.550493216462148 3.620065599735855 12.67446755377573 0.3813560481842529 0.6379963666549593 -0.6088853082216159
Ni 7.871012240350254 8.712617317665753 7.050462412622355 -0.02066498454851925 0.661605521433467 -0.08941859707414922
Ni 6.865730382547797 0.8507969428466245 0.32319866801897484 -0.05640023316659964 -0.6249763002462075 0.09488681927757207
Ni 1.6526849632345395 6.688167845075405 9.156081267268522 0.25435897863569745 -0.15807450767965034 1.0104355719655564
Ni 8.781495367107807 5.001165741202611 1.4527661764465871 1.5009622030399052 -0.7220063911190275 -0.635702171304144
Ni 6.40754554428134 2.0413055898151886 7.045546421283885 0.14593555832427124 0.12338646937916169 -0.5594825894187719
Ni 3.4595578054009706 4.492024327886875 0.8264742969956751 -0.611854675262585 -0.804941180241046 -1.6228774871901792
Ni 5.870867356709704 5.90801943082873 4.752988080397399 1.1216674082600553 -2.3131515802029323 0.7374746619579556
Ni 5.348580519355742 2.5978012264004975 9.248249107815663 -0.23257402155012202 0.21342778763897435 -0.11465988813944125
P 0.16366143212097845 5.427462092035677 12.198510210550996 0.21327223589771657 0.15646294021815635 1.456183356162318
P 3.8639059928844977 6.085627110554001 12.550308301458633 0.5097618251548769 0.521934713071985 0.9933097109185473
P 2.4614806511579266 8.552091466429717 1.49448303517669 -0.5347709456047048 -0.1409098229749057 -0.695194670242822
P 6.185210920404027 7.8467347367521825 5.855674280080908 0.6012105652851775 -1.3273291788003658 -0.12662991601712384
P 4.712742859111136 1.089174220551908 12.706088799072079 0.5185166885293715 -0.6854023667427487 -0.4334846505586921
P 3.982702345559625 6.230831681163065 8.339294497740578 -0.127571968215419 -0.7483074909074016 -0.3235766752819395
P 4.660450073376652 0.7871427549076736 3.6591154541658946 0.4954104415292114 1.0579179338172362 0.2566953400783579
P 0.14635298952229428 5.612355731375541 3.613315930085458 0.5312235945730786 -0.32470461823879565 0.5962964158130117
Ni 1.3829961160876536 1.2133154159678525 2.639030548799512 -0.07306380986520966 -0.19066426869021358 -0.37793236721468465
Ni 1.919511791548927 6.3789524413080825 4.749644845149216 -0.14332974527030798 0.358032542966964 -0.03708456355712323
Ni 6.059661286698273 5.576485697238264 9.206559334437287 -0.9638991189669143 0.6472960467893304 0.6126933691137963
Ni 8.61789984267603 2.4659948764457793 10.119795235775374 0.18267173740304024 -0.05047409749015178 0.2184902897635463
Ni 2.198689540250879 5.466690709787116 7.278271888928777 1.027309979123392 -1.1441676462451003 -1.422002339405235
Ni 0.5799497454908755 -0.10417658265788807 9.1218038518128 -0.880226937458239 1.0576903911874622 -0.4956510967851077
Ni 1.5386466040128088 1.1846681422911403 11.259229937837175 0.027286860740411072 0.1661428865100816 -0.6208342530533759
Ni 4.098898504468949 6.728705588160321 1.574203350915108 0.1582583415556823 0.323539651396417 0.11841909807155734
Ni 5.6688557750783035 7.692700341480078 8.004847283149333 -0.8303336521722215 0.8996593351512376 0.08299341027409578
Ni 5.267911313461816 2.6484147203279003 4.589001624055696 0.012840089187461759 0.6939919081839726 0.6254802364658196
Ni 0.8664622074405305 7.588927330562924 6.779587227069822 -1.1147670815957964 -1.322084899682291 1.534208623797861
Ni 5.082764877505833 4.516960908376973 7.266379613830458 -0.1682948998560779 0.3212071466084984 -0.38368546764837796
Ni 7.930672241754512 7.2271844013461495 9.15670242466813 1.2216594099746765 -0.4636364915517241 -0.5455590373591443
Ni 4.726682786800025 0.303026400897677 10.500544859144124 -0.14475362220102814 -0.5040912571326609 -0.6630615371537032
Ni 8.25211216760134 7.090457545827672 4.969434348809237 -0.4922600688256877 0.6256900384837806 0.14343490338960457
Ni 7.1072143500961795 5.91577486987326 6.956404917369718 0.674537913224419 0.9241732611322018 -0.16184760156883737
Ni 2.128348881815561 5.410163580732625 2.507365945518832 0.06016484241535444 -0.9129416540824407 0.7428986611870044
Ni 2.2396064782599745 5.114057487201227 11.49265601324674 0.7052260863368952 0.7590323335240734 -1.1020858865837018
Ni 1.0172264979141143 3.4185957251389967 3.7938723017687535 -0.4838571894739732 0.06716852742669722 0.25290527690830633
Ni 3.619433608195556 2.3630615114321656 2.4532936521758772 0.13445224027502006 0.07979187261766259 -0.09932685732679666
Ni 1.1145351382190634 3.4153274260305913 8.248368971992653 0.20855760403086662 -0.03477802691113365 0.01260791857199764
Ni 3.6787415000273627 2.7225112142027115 7.077339207141172 -0.6496267518050362 -0.6391628761592347 -0.42488996691114567
Ni 3.9358717724234427 6.707569985362595 5.973305962631769 1.1271693119148911 0.6911940337238612 1.0232232106485282
Ni 0.810128287228361 7.46337769685717 11.394964566637382 0.8932655158097519 -0.918506806875044 -0.338143774462837
P 0.10889214239357882 5.562058233218288 7.925760764641328 0.06138945885107493 1.5024788967947478 0.015461585970708855
P 8.521755872495348 1.7766726749906971 7.941392623968104 -0.2160112320954344 -1.3937695698117867 1.0376309014334257
P 2.0466684894571574 3.282175836940093 10.307302611556905 -1.241158913460185 -1.2680727071318934 0.3480792884089941
P 3.9867561198681165 5.943826265811977 3.7133195628872553 -0.7086286842605408 1.3722628060882625 -0.4719653231323936
P 6.769649611521143 3.9055813207419523 10.273817894061729 1.235008577588073 -0.8058454372228702 1.2492254925184034
P 6.264742541525413 7.5691098815492515 10.36342255749043 -0.3739972938263365 0.8950043528777296 0.026252248828309625
P 2.5098099470896758 8.355939349221948 5.89358564689335 0.10786986180080131 1.2516613556534055 -0.7870092783529736
P 6.955166213950731 3.9875235381670513 1.6414093313105416 -1.4056290402535339 -1.3310739905547784 -0.3550410644388079
Ni 5.230957865255456 3.0057607941143067 0.37542283752908323 0.4104506515573641 -0.4085251523998771 0.16837203295091646
Ni 1.593476384359066 1.1864648039557057 7.083483970602996 -0.731404801614792 -0.325908922959542 -1.1297013343081252
Ni 6.926500883372868 0.5730086726882735 9.137185623058627 -0.2826483124986938 0.20617342006940623 0.3055820384767318
Ni 2.765233842326948 1.4238137411404164 9.053632730050824 0.7096329571553391 1.0462736647100883 1.3084441689704045
Ni 6.412574391252008 1.9068087615889102 2.48043588314162 0.3104108273239428 0.054014249432926334 0.45840146840502993
Ni 4.118228417151534 6.919133667703092 10.532232012129676 -0.3931003332043746 -0.38275190009051496 -0.783470926182412
Ni 8.379684174236052 7.100072845690797 0.21619798602100626 -0.5642869527859509 0.25645802725657124 0.272587328718266
Ni 7.704040075403164 3.9613410314975064 8.241999400111492 -0.6712183619328826 -1.3098878433954666 -0.6122094874988425
Ni 2.994718999060219 8.506055396944197 12.318335806591755 0.9161370210912867 -0.6515206263936393 0.4331640339944798
Ni 9.022870993249281 5.069529168961849 10.045664433788374 -0.09038584608342497 -0.7190300820995229 0.7106922516577889
Ni 8.670553766433542 2.351875261168867 5.851736069939785 -0.4675795353598721 0.4589897368083321 -0.6511462737733561
Ni 3.92969631222966 2.5098099470896758 11.263180787809103 -1.2495841614094028 0.053185325773727754 -0.16421558758038168
Ni 1.1316169667082974 3.274853763523196 12.397104523639495 -0.9924645893094326 0.34820347269168417 0.8524963043121898
Ni 3.0961084990253873 8.309045576931736 8.05228547100926 1.0482796393965237 -0.4935939571457628 -0.6211332723510335
Ni 5.604835032045979 7.805113579598181 3.6223940371393297 -1.012232001744347 1.5807944419772002 -1.050101265986295
Ni 2.8576942046727436 8.467521969887088 3.759225622684485 0.8095784219027413 -0.35099543361452457 -0.8464544689934842
Ni 3.556532393034619 4.183468001011579 9.153028748128875 0.054921077517911865 0.9587317158333617 0.23535492672936886
Ni 7.080508193293245 5.921191940218684 11.621479363131247 0.7903879650172194 0.07258301357404918 -1.2058867205214523
Ni 0.7562311458265746 9.06573807658273 0.11773280119730922 -0.3548294626486341 0.00314420205593652 0.9626945571358517
Ni 4.64536353246465 0.03961593828113626 1.5871664002517056 0.015980948809288603 0.8922270472429086 -0.761466911107495
Ni 6.0223467004688835 5.477804732445809 0.42370879689806906 -0.5068150838217271 1.024363237790242 0.8146283256218227
Ni 7.9471672209563256 8.652072528105075 11.383613095728547 -0.8884200147919925 0.9046454755119193 -0.020080058579326706
Ni 0.28451085445702107 4.941749507963896 5.814168687094276 -0.9674701241476241 -0.7047437473838379 -0.18109590827548813
Ni 8.088092305992506 8.791462776543385 2.3579414771106832 -0.5252871744839857 1.7038003880884915 0.2070951605527272
P 8.445808546252517 1.6004463482035103 3.6672555052049507 -0.045844826248256525 0.313852248905324 -0.49089275616451583
P 1.6894758993305377 3.3567779240471443 1.6465627708991541 0.2650020601718404 -0.5873196662356982 -0.8024960611346631
P 4.76337440993969 0.8820344789935065 8.055364172655574 0.3432661832910669 0.2516256388649344 1.3334810573343745
P 8.654094901034032 1.5865064205146213 12.236395394856771 -1.1875161884340646 0.18649676757608527 0.3168450129850608
P 6.494516608677107 7.783580724975126 1.1734882119432448 -0.003899077944090059 -0.44262569362801185 1.4152809615210011
P 1.6900266348156558 3.251822186104573 6.034619073336439 1.4980661124390329 -0.0749851952576386 -0.35158678734162035
P 6.662518016989828 3.9967325577542705 5.922814352787138 0.5919072856063805 -0.28003401480429835 -0.7072860541897174
P 2.4051611764666787 8.527227113544225 10.164947419949533 0.5652140925859104 -0.06415596585261854 0.7145244809196856
