# total energy = -340862.88434470736 ev
CRYSTAL
PRIMVEC
9.37988989299827 0.00000000000000 0.00000000000000

0.00000000000000 9.37988989299827 0.00000000000000

0.00000000000000 0.00000000000000 13.72841699220378

PRIMCOORD
 96 1
Ni 2.8664099222150994 0.6519117251616429 13.312706964338958 -0.35306979964505 -1.6644074881131659 -1.5222049144687655
Ni 4.860199310862153 4.075355786604225 1.64390917898925 2.9167784682390865 -1.3510859149003311 -1.6699451301019437
Ni 6.420900424892101 6.539799908757786 9.144004389825728 -1.609972349092737 2.1596806327335645 -0.9480120154230125
Ni 8.586763893021324 6.133772616386855 9.673454148952848 0.13487030164904515 0.4596826491102986 -1.079737600795489
Ni 3.021074926117062 2.855998244470471 2.3006083999354496 -1.7198322447403733 -0.3789404967642248 0.06448069618188895
Ni 0.6374545009203854 0.3303953644515716 5.170547036715892 -0.7719133032517996 1.4624190526593845 0.2574486733046147
Ni 7.942965772588603 0.5408482012850232 3.840098769024922 -0.07145712749972209 0.3722175762180945 0.23074185343738973
Ni 4.677985570441294 4.368064629576186 11.773627434425352 -0.4183745343901311 0.7797171155669345 1.1723549073125938
Ni 6.373803997904911 8.342624119744576 2.6031689412273953 0.0622824029789895 0.08357216559570123 0.7964400847485703
Ni 8.488284429380915 4.426210566818485 12.502125960294105 -2.0420606335245344 -1.591685120747775 0.276582051699956
Ni 0.19245751813699236 2.9056272417198663 3.368926265598142 0.2347741145252344 -0.9036681992003146 0.17092308150754434
Ni 9.117506200971155 3.0484642045083374 7.60259114331495 -0.6974929793586955 -0.3165709333880677 0.7338535202656006
Ni 0.8447322450362181 6.948228452932883 2.3772130224332932 -2.2555889512971157 -0.6374253246428377 0.6407919271222254
Ni 5.881472338931885 2.7027308441576516 10.789066357278775 0.12725238009247117 -1.8012310568338399 -0.7744226999372147
Ni 5.3491448295957085 6.86330293014021 11.451105549522287 0.34662327268875787 0.8137973450800953 0.15166808993267428
Ni 8.708017729241876 6.107330706871443 6.101567702541443 -0.36648427327874306 -2.119553939916008 0.7579301015988301
Ni 1.7777142458315018 3.1814522829437806 11.293695989847281 0.7476873408248995 -0.9019496738473113 1.5004631519162996
Ni 8.603854052346291 0.43671172607003234 10.869638673187408 0.6273795103710615 -0.08322609511019215 0.659540154264006
Ni 2.1921646792967353 7.274367223365974 0.5970571912712269 0.06165788202111317 0.951250062744336 -1.463965571210898
Ni 5.005315586886609 6.695871896138752 4.695255823651572 -0.5140321703954567 1.237985657938526 -0.3646356501057785
Ni 6.6524523859766935 3.317029210980592 5.276914987728581 0.3769877439132282 -0.5016589935420843 -0.46260110830867424
Ni 4.321615414989338 1.559416069119125 1.0379795498994246 1.1932330363131838 0.4653707006340115 -1.1135684333020048
Ni 0.6287190094937435 5.322693540190437 11.226838948891976 2.239575092367362 0.8114072475813638 0.4522017673522212
Ni 0.5691304451909726 4.08779352055862 1.2687173365441677 -0.8025906777309985 0.9574567057756801 1.690156829163128
P 4.2212318337073444 8.703309024532143 3.191665107023377 -0.6084502775667263 0.6876024597178609 1.5641558049792543
P 6.55966651548132 5.520796814034179 12.655459019835945 0.04359305409960234 0.016228546043720437 1.3632428619778392
P 4.914668331279321 1.863362020143396 5.290121872651498 -0.07356466076102813 1.8358247356483095 0.09359458282870978
P 0.34876212678648777 7.821965193394272 10.64501469875343 -0.8123523851034526 1.046323029890785 0.9842463151646984
P 1.215746284537645 1.585435883590836 1.7688108543763654 -0.41357685589117155 0.2096454377784067 -0.346203668652836
P 1.6188376713823873 4.927471880938256 13.382666872859959 0.13543877255800546 0.8330533650962297 -1.437690696674769
P 4.013495412977356 2.4437989845716435 12.24228800334762 -0.30784615192056014 -1.348914618280625 0.9208768497691173
P 3.5320162865723796 3.5067562431793307 7.923122615589718 -2.3004117640387607 -0.42554791221011873 -0.20931530813249757
Ni 8.850592055114266 2.0923720310759224 14.240623824609827 0.5384293682928986 0.09809709868475362 -1.001848601627494
Ni 7.282236950958536 7.960290429160071 5.578995278659694 -0.24223057080327962 -0.24007495791285752 -0.2726863161899756
Ni 1.6235651358718401 6.6049713835052435 9.369370313547634 -0.23025694338117117 0.961567128399628 -1.0957851411766548
Ni 4.261480941096714 4.374902569284145 5.903974694706087 -0.7467200918156237 -2.254008494183873 0.0006240067372440866
Ni 9.22899557184742 6.24890138452881 -0.12478630274183727 0.058370983739725275 1.3793019723232312 1.4672853796127503
Ni 4.186254224419309 6.008138371601672 13.532292999929114 1.2320885757278006 0.9795993033109903 -1.218190734699786
Ni 6.286055128264371 5.162456881711618 3.240633760026627 1.0513883602288343 1.4139943814990936 0.06531990425373267
Ni 2.8672541123025015 0.4141793546482787 4.916517107570732 1.2082084266760935 -1.0968369794799366 -1.0944227136114895
Ni 4.398980746554831 8.529086950272026 1.0766472078583944 -1.104735408391407 -0.7286840602495191 0.04407179350823377
Ni 5.3310322622760005 5.782195584653374 7.0980168520966185 0.6002793117201598 1.8914551805284199 1.1407061700590615
Ni 0.42841896544478364 9.299129008330832 13.086297996864616 -0.5039279920819192 -0.381668180108033 -0.5226109132034031
Ni 8.630389760760304 5.030266093914277 4.035413401613278 -0.11575903474089096 -0.09950323500366089 -0.8962325688578757
Ni 4.624726555816069 4.834329574628201 9.337190725404843 -0.33105652859875245 -0.08690688639588903 -0.5329524043387273
Ni 3.8825802902009787 0.9963600406015048 6.870084590509009 -0.9759403664021644 0.7480956320069116 2.88292243892159
Ni 5.3393240849122625 2.5759147332501047 8.038070351857375 1.2887544038509613 -0.17334223247199823 -0.4463280821802636
Ni 5.086779930320931 9.335766858124092 12.662240680204745 1.4837733499654446 0.3547890963290019 -0.27625449315720807
Ni 6.839318551768125 1.4368115287587295 1.3870643448970974 -0.5816879218712177 -1.1212472900035013 1.153302261556517
Ni 2.722719389449366 2.820739238486634 4.541539126614459 -0.17476688073366675 -0.49884492113205703 1.3480471280740076
Ni 7.665508630529044 7.625925495319736 12.088927742125186 0.8477425916772884 0.13036392913825937 -0.857329206924459
Ni 3.8186469609150437 7.757881785870577 6.697381120417231 -1.153720322930542 -0.31456598714289696 0.3619208222777767
Ni 1.7300362656729913 2.0584637292319297 6.709529953763935 0.017907476408040128 -0.4378457557408653 0.4015278951464375
Ni 1.0159264908495185 4.2470077710426954 5.857448565022388 -0.3220522682176131 0.0856763564228976 -0.563067735666869
Ni 7.498490311681427 1.5924801808757154 9.051914507157967 -0.5118238498902281 0.38083231447029897 -0.0766489561133067
Ni 2.916264036821136 5.561561815365851 7.55846814141339 -0.22942801972197263 -0.0061328523706152445 0.9818572461072316
P 7.407270882792678 -0.10923256937594274 13.53562848876334 0.008680301382817309 0.16377695738106635 -0.3320302053659314
P 8.930977711214686 2.2829807729215035 5.427186451220109 0.4311632015143671 0.5570153588252019 0.31467525902725163
P 6.758398241945684 3.1769686955906886 2.7739636037326583 0.07288743218834545 -1.240792531259702 -0.39029268855225036
P 1.618059140524005 4.785385309338588 3.747720923738459 0.23147770316214974 0.3864910554179731 -0.32167200206005886
P 1.9650306463362142 8.989208067465725 7.080938886628469 0.09400030290756069 1.2044949823802482 -0.16199106912523717
P 7.599286608117263 8.07386213558526 8.129694053999092 0.8069456122655845 0.5005331074677574 -0.41995833393748316
P 7.99328888168764 6.935040327789687 2.10166937790518 0.5708018710863331 -0.4106326856611831 -0.4334558542032857
P 6.592271012634769 5.523348144076105 5.422065969345521 1.654304338240893 0.2637823288321264 0.2617614417473556
Ni 2.7060325653883806 1.5085958258575058 9.092564135844361 0.7015779480613464 0.5943989416799828 -0.4958608988030686
Ni 7.647790018583456 0.9881057375246824 6.553822844098525 -0.35476184263549226 -0.35915508660718143 0.3236170416015717
Ni 6.1429555285598205 2.693304054848326 13.35206592018061 -1.2838739358302083 0.016227260492139794 -1.463767082046847
Ni 3.258958312857173 5.98925665331344 10.881074634904753 -1.0164488680391721 0.8811723320906437 0.4023061680733588
Ni 0.004400106333338034 8.126642775827625 6.756989382488707 -0.04468782982567788 0.6988356094295191 2.229923171099895
Ni 6.522634710313939 8.854747346322258 10.166620618123416 0.6186341600782636 -0.24281575388278828 0.7988623210368178
Ni 1.9216580356234554 6.590610772129545 5.804045100093317 -1.1131100056083476 0.41525990002054936 -0.9362055097063878
Ni 5.52863840195716 8.869145477257396 8.05908880905572 0.21884690177201666 -0.3987143369570424 -1.0984025241948436
Ni 6.2914110453744465 7.34233390529172 0.3503276304041261 0.9247808128092138 -0.8173740066877601 5.964959334183275e-05
Ni 1.6445104299292777 0.6712324222953236 10.980948888167347 -0.3176374269793691 -0.7305792203897031 0.4095978166387655
Ni 6.911937659064443 4.33289942249095 8.156739090432504 1.1673636247455896 -0.23063335288398343 0.1764517246352574
Ni 1.7652108526480876 4.126963940614087 9.283704717445007 0.7780973205753244 -0.43460333754416763 -0.8877666974787096
Ni 5.205257319142916 9.140496311018078 5.6052298926092 2.1006067093895435 -0.4082721558488065 -2.479932614517645
Ni 4.088909727451963 8.773995874517297 10.410766957323066 -1.2239356076033632 -0.3506480775774348 -0.14303098308296658
Ni 4.008242674655742 4.571833356895383 3.69155789521257 -1.1316432885258445 1.1821963188830478 -0.1362286154491525
Ni 2.9648143467366284 5.1589675626836895 1.390208483978178 -3.150037688781691 -0.07826489445017488 1.7831474598592516
Ni 7.422728941282 4.129618449444474 0.8905614489033177 -0.005415771698932609 1.2180606368798248 0.9331898628085153
Ni 1.9559509129517092 2.672508839028649 13.768915729472038 0.6492657689211915 0.30394681686615393 -0.8987077698712458
Ni 1.5072357418278022 9.281044580680701 2.9770757387616538 0.33236959098322116 -0.8351015058745102 -0.3792731975132952
Ni 5.095174931745654 1.4353013664912653 3.2223476647445066 0.3110561742174256 -0.056661200137470155 0.3907793983806818
Ni 0.1635074260730092 0.32945268552063905 8.438006343753205 0.43165222533564374 0.2740374309012313 0.9077765649417333
Ni 2.8137418406510553 6.999780327603584 3.535369597197339 0.8032020860627522 0.052092092709548996 0.024056783838887603
Ni 8.77572177425154 9.084564027782745 1.5293732198864487 0.04971690760915309 -0.5183102289455201 0.7313724057149598
Ni 6.602673310489538 4.904387971992733 10.592174027215961 2.5237367561867887 -1.3422150947732625 0.6107994945251932
P -0.207326519543105 2.420790114745001 12.002260373785507 1.371590462611586 -2.277072317981872 0.704645788353393
P 3.2572136533432077 7.892905300405646 12.371912453279258 0.47474442853942755 0.12080611024649518 0.45431264304763697
P 0.4236905629663447 5.145319822937352 7.957635920329683 -0.30971148726407305 0.5651685840599557 -1.0760712076874952
P 0.1008103662706257 7.680413275516625 4.727791847609043 -0.18128976945384906 -0.8542425975793352 -2.403048916685713
P 5.1268039203536615 1.0491969601830293 9.492005807544567 -0.27788894343683757 0.7023909308809452 0.795109795972921
P 4.066482410796641 7.219719985041465 8.820219971747502 0.17073667652835112 -1.5390402408585493 0.30212339050417
P 8.47613747201218 3.2702329404689237 10.15470440604524 -1.3681485268095728 0.9660089662210652 -1.6175774151335045
P 4.64377711212178 6.350710709069529 2.275388690068799 0.06845279345575954 -0.083045860778586 -0.561912024795871
