# total energy = -381171.10591236263 ev
CRYSTAL
PRIMVEC
9.21236256602300 0.00000000000000 0.00000000000000
0.00000000000000 9.21236256602300 0.00000000000000
0.00000000000000 0.00000000000000 13.48322381524948
PRIMCOORD
 96 1
Ni 5.802231429196237 5.047149356604319 12.505892520233271 0.06203017775886737 0.5596563959924749 -0.4609334907982642
Ni 3.394958220141999 4.118322128955502 11.66909587182639 0.8738683422300628 -0.8794396656702532 -0.41528355416963314
Ni 0.7519784276959122 2.8592593459872475 5.063718711635354 -0.7503893131370947 0.2299455827883395 0.2757834670580605
Ni 5.7456675239974375 9.173421754319847 12.407451057990057 -0.6287565932242462 0.6664739052693618 1.0446708389993429
Ni 6.523798927339746 0.2911364467779497 5.897588592504506 0.28042507959512997 1.2504889326118593 1.970508118097529
Ni 3.9179993083450975 1.9737762834785542 0.17096854902645517 -1.088183674680313 -1.196760332740152 -0.12513301975662322
Ni 8.780081516490348 4.269119289248523 11.621865010985394 1.1901055464277956 -0.41131814176398196 0.3760102104913073
Ni 7.438595727037784 7.470212554829686 6.6469193872437184 -2.0067732710771504 -1.194999384184987 -1.2413049521197461
Ni 0.1376262457551174 6.722150302394362 12.511811463081841 -0.044625866239490886 -0.12826642317928233 -1.0287775648078539
Ni 0.7041754791492397 8.194331877360828 0.6511574122421373 -0.285315832028528 1.788350858437062 1.4203025831053089
Ni 2.6776928952440664 6.901192565837141 2.1952847739237606 -0.2574291329205889 0.7256180197296859 0.1317052736575022
Ni 3.373659238249552 8.603664776334485 6.367843765333238 -1.1679025279681952 -0.5961015261933863 1.0579289895608297
Ni 5.680959890427996 8.010250451679655 10.448770151556904 1.860753894789821 0.2451379742580617 -1.104869105755794
Ni 1.6598005478131674 3.3124707271208185 9.97398526013106 -1.6689241450365966 -0.3236034147548169 1.1407367661866807
Ni 4.1529974610676 6.72652617453922 11.412213752198392 -0.5961773737366443 -1.750135266599289 0.7599797850390073
Ni 3.6173262240000796 2.408268144194542 9.467299800151082 1.8586242500413281 0.7074248937604268 -0.7015113564894693
Ni 9.052021242477865 4.865656604760419 3.549337146940116 -1.0188772749750066 0.6391351082450928 0.9837040695079834
Ni 3.2320928650915803 6.989152202129996 9.307253427998193 0.6850928059221297 2.865063813473614 0.20756284421776514
Ni 5.360765810135707 4.659953764502441 10.2744455389044 0.16993012146665573 -1.1668656020632486 -0.032185326483292954
Ni 6.7611093830272155 2.462077553032683 6.968588366757886 0.23411359812310004 -0.8347958017086332 2.429375470395384
Ni 1.7517859864792928 0.6820787066720672 2.5178031332521518 0.219633402229054 0.4517150575237897 -0.8825936379182024
Ni 2.4394427785907533 7.0281481322124915 13.336081141083294 0.7474081190215837 -0.9860134343674501 -1.9005044352148817
Ni 1.523715530289281 4.756259801138963 6.131697752254421 -0.7220542136378275 1.6032378585823808 0.7344088785484384
Ni 8.29141175243981 8.814056709059267 4.674391378871749 1.9173580164371111 -2.6907018814878496 -0.7984362892429926
P 3.598698827206599 6.613619460839467 4.612799366269448 -1.1288994072321203 -0.319764757735017 -0.12678752464091067
Ni 1.2301175402753188 9.178682013256088 11.851496962603937 -0.2235605051976021 0.7999735518231255 1.6092498691044155
P 4.907471517740443 0.8944688008036299 4.740889895693739 -2.0783715521404273 0.6224033973127087 -0.269334111888291
Ni 0.7884824137464402 1.0859993427297137 9.436517612393546 0.7048561045919861 -0.14396069398608755 -0.01264699934004919
P 0.17076679828967115 3.9502610015057154 0.4298313265726535 -2.7599427180625438 -1.6571649476181396 0.9588175906789486
P 4.633726168720522 3.7756683091070764 7.746314426154144 0.8582728017846509 -0.1464682908992897 0.06197361348931908
P 1.8515374466572403 2.699388008720153 3.2920506046023075 0.6326446154247427 0.9626783591859357 -0.576670156941652
Ni 1.7404547807147126 4.787056728676355 13.118151653434461 1.4441395376239063 2.07878112887402 -0.583146251584299
Ni 0.20795986904848418 8.378993681873846 6.886947489842205 1.289362212638289 -0.21952618722722836 0.5948558267117433
Ni 7.864087109678979 2.410829180944585 13.15865564724351 -1.612741684307758 1.2559021332076306 -0.4320638589517656
Ni 1.9086725183254738 5.340968443316126 3.6804345914551044 2.438950001457696 -0.6441266479224133 0.9866155867278236
Ni 5.369747863485678 8.418192283929365 7.957677341876966 0.3296406220878323 -0.6798202446692808 -1.6396451935668213
Ni 5.96530866858209 1.6876955811913374 9.249221993467444 -0.0009284253515403365 0.9612177154800091 0.6697685168602336
Ni 4.535715845038107 3.979040421675267 2.93874913628014 0.4585598483597651 0.18161449978311947 0.8129571085669871
Ni 4.005645724316005 6.159763214337181 7.035437874587704 -0.839763944347186 -0.2898548575494621 -0.6441063362074391
Ni 1.755544630342666 8.13539118266019 4.768099529308588 -1.835428014430523 -0.6451252643902567 -0.08092418644989288
Ni 4.075466219023122 0.12766215457221491 9.441762210313689 -2.0197804819700953 0.4818332170654089 0.713777318341016
Ni 7.562584912717041 4.022734656586978 5.597964796238013 2.057443543738508 1.386773855220244 -1.5933622513398817
Ni 0.6994596708314441 7.74040193195926 10.27718253177648 -0.4779829900813832 -0.6277685182793641 -1.7900593564877363
Ni 7.986049575627986 0.04648465948576886 13.133859652580142 0.6830243534288754 -0.7218279565596343 0.32468507785476985
Ni 3.1269982347157006 4.859134252173978 9.099517419356276 0.7034558818103498 -0.7852174765598735 0.23202329125297458
Ni 5.008982539138744 7.2408063060901915 0.21965404189202745 -1.1252085886440943 -1.4053143372265928 0.7139490680321897
Ni 0.15640472529212587 4.943759013274331 9.26866468433423 0.8062298171454825 0.1671337896684412 -0.043439302130557446
Ni 7.145946610352075 6.5708372498063685 4.012364300221785 1.375771333462153 -0.35288956531344384 1.551116455296793
Ni 1.4620019145031646 2.5910229896886423 12.474718807073302 0.43243049826256497 0.5772003184135092 -1.8365220188256497
Ni 8.72846464990584 2.966997924374863 2.3691238950772426 0.6685261598127001 -0.5161070506466144 -0.10602483817226256
Ni 5.620213572694953 6.293453017634407 8.747767312863992 -0.6674835774807989 0.9741845600533222 2.5876644080786853
Ni 3.5504444729018254 8.672739069686372 3.58296411220993 1.8572427963127691 -0.5205067223762068 -0.08887840829996306
Ni 4.134452975535812 1.4431165715621976 2.5389445837473836 0.01894440231298673 0.9997750069279168 0.4336525435951241
Ni 7.621682217578653 7.370193936141842 1.9755211049190513 0.7664162846929704 0.6195096207046814 -0.1449701090872084
Ni 0.28053946629746457 5.914613038238606 1.376839151438054 0.5181572483074237 0.2585164524474967 0.3654656022062416
Ni 3.20376485068013 3.4532816865611515 5.408511642035434 1.0814450704048988 0.7488175977746007 -1.2155682094752742
P 1.9574427649252202 8.732573363540801 8.364951277851937 0.7516162435656604 -1.7016164930632953 1.1299934116272474
Ni 5.496509970250414 2.997361870878974 5.168173082823723 -0.24885887475307464 -0.8632859387285261 -1.1348605099115616
P 8.733531449231466 5.359236557975609 7.046009060453441 -0.3145577596127809 -0.25348531778149247 1.163839670752731
Ni 5.3023133706428105 6.726747271237066 2.777840487005654 -1.6487942070559412 -0.3209515789542666 -0.7148522965727496
P 0.6328975887088246 8.115897823800148 2.8228741994118116 -1.1857123024561063 -1.08750181812194 0.6802961558644348
P 5.622424539673409 0.5670218275857671 1.1216088083902085 -0.0034290802862069975 -0.2357804443025617 -0.21772950033812177
P 8.752343093273153 1.1217248841565775 6.4397223018028 -0.9739184508761292 0.3368129714665554 0.31423122951129756
Ni 2.65116129150261 3.5626969149074283 1.3494554041736517 -0.061160373559404346 -0.33006254011659936 1.1775215391151979
Ni 1.7683498140928828 5.746109717393129 11.069740494653207 0.2250761705111801 0.16321594267127373 -1.527521955806305
Ni 5.385012747999426 3.6307854854814225 0.6967632123539704 -1.4775032006860167 -0.4106658528919638 0.412480023282567
Ni 8.148297702396919 1.0770725635542029 10.890844707772748 -0.3621848745724408 0.632435327627414 -0.0401230932731309
Ni 7.366177346130983 3.9542038926172927 8.930329619983718 -0.877983907060333 -0.542687115127988 0.4561689795300854
Ni 4.36321435890659 1.3330656902096152 7.076616213325182 0.4272535820473158 1.6673465161368315 0.14127440540317607
Ni 6.311546097408095 5.2895081868925935 7.091272160683614 1.0871552334157986 -1.6333369919606064 -0.6152968681749145
Ni 5.233819456122766 7.782373455100259 5.349900749909083 0.9218780373401221 -1.139883931268082 -0.12213717035309289
Ni 6.483430355258127 2.2110130402667423 2.3951055207828085 -0.33449872151108195 0.10320022423927389 0.1012677831032514
Ni 0.5297338694941287 1.6789898987136722 0.6512449296850346 0.6134479878916339 -1.909346201876228 1.5750068887611457
Ni 7.388572599150247 0.08573116582582167 8.446956043082821 1.7866487881442907 0.12132701574697169 -0.17754110104469426
Ni 7.136669761404976 6.916061318767248 13.300444959571811 1.0303122562848255 0.09061133183066974 -1.3213943013731693
Ni 7.578236716452018 6.033185354820649 10.794466814709429 -1.1710711555041637 0.2351636366541692 0.24886684517287463
Ni 0.11159487329253646 6.476889577946865 5.317499950076071 -0.438732786331509 0.2565819544289452 -0.48364404502190256
Ni 6.19858410953388 8.9713485848515 3.3910577058975084 -0.054284986595809735 0.5052425971282848 -1.3341150913739475
Ni 0.16860649930447272 2.8805583278796947 7.517679252148385 -1.2273577459110347 1.0133460607441322 0.7350300570722051
Ni 1.6357839190097034 1.0561236514333447 7.007365963851258 0.8608138230389497 1.1633889563685575 -0.16629432448628134
Ni 2.489769914437828 3.239969434952325 7.568700078884951 0.09113789375810111 -0.8733968019102828 0.09696195663904592
Ni 1.449721835410331 6.471030515453959 8.029718015924947 -0.5316406275058392 0.3832650922815077 -1.1979332700023304
Ni 2.58971483422639 1.34255442349215 4.909268849646678 1.0653162831638363 -1.2933566785096628 -0.8751063284022219
Ni 7.2533166942432805 4.772077427397324 0.9948301193731346 1.6560868840626122 0.4757304466017807 0.8635512765747708
Ni 8.340836076770682 0.5225196684906793 2.3066557868097286 -0.020962718294596158 -0.21794932965841174 -0.23236653352500627
Ni 8.115796487813636 6.913491069654794 8.72353787848885 0.15219156653631208 -0.08937231721724609 -0.2262452511186168
Ni 7.926731174068529 1.772007121969743 4.628804003484737 -1.1593672368036743 1.944059694098013 -1.5803211018852075
Ni 3.4244930540291896 8.842624244893384 0.8063912462719233 0.12395082652306394 1.774546862674434 0.6209800346026209
P 7.102740630648107 3.092801945448935 11.099011854975464 -0.8379639150239697 0.28369860814007913 -1.2084691365366476
Ni 3.0471454773438453 1.3827018988759232 11.392218319586991 0.21819769822379198 1.183424534863194 -0.4120231382508065
P 7.847606193327081 8.18632633442634 11.042004835144732 -0.05416851562260349 -0.501516297316633 0.7774558303365836
Ni 5.322055463287929 2.323127490799216 11.948172414973111 0.5500831504817429 0.8464351857197745 -1.1166735545898898
P 4.018239023730787 5.437606124999417 1.354403364024185 0.4965648668486286 -0.3446571501013226 -1.058857672022686
P 3.530941901679373 8.693347124398052 11.869618600701099 0.09797831371870222 -1.3891330994810398 0.9785479792283406
P 7.067770502938881 4.305941101802204 3.320419153408363 -2.262942049228077 -0.376081687159191 0.3481566786141488
Ni 5.412732746491802 5.39889577815164 5.040177440732258 -1.1279720103218445 -0.6398848419269239 -1.3316920837547517
