# total energy = -340896.7111520513 ev
CRYSTAL
PRIMVEC
9.02940972243802 0.00000000000000 0.00000000000000
0.00000000000000 9.02940972243802 0.00000000000000
0.00000000000000 0.00000000000000 13.21545383551346
PRIMCOORD
 96 1
Ni 6.5287867343429715 1.9442305004746472 11.56876832178845 -0.3079235421257149 0.4778107261695771 -0.47277676329009544
Ni 4.726986138450704 0.45760505301713167 5.972565180192496 -0.3369595243467487 -0.3982124576199593 -0.01873511451565806
Ni 2.690773043961812 1.4209852525575495 4.617704098881155 0.17830060491853808 0.7575742609213082 1.279382475717758
Ni 3.2853867441306615 4.1959755984110725 4.388059128471388 -0.04095201693232947 0.33208831229737645 1.4075506827562791
Ni 4.915655648799938 4.681541120714992 2.544767493239289 1.2085467838521189 -0.23235702044330953 -0.34613219198495226
Ni 7.385488073056777 6.178409530246697 2.6032726487959694 -0.5626859268474181 -0.7319046240693459 -0.8862631163499897
Ni 4.982924749163747 4.68324767910006 11.463229875374719 -0.046524111703468256 -0.5866028426743317 -0.45157621795308034
Ni 5.651570577370565 7.685192231348799 12.450370965869144 -0.8675336582612866 1.7849588020363774 -0.4716205381984652
Ni 1.7168338530166376 6.525310411706721 0.24845955086990984 0.6235786485677325 0.14629319877400612 1.0355310814816037
Ni 2.7684079063682594 1.5004621144907369 0.3190966209566319 -0.009976651596737655 -0.6792977965069075 0.4725643901689732
Ni 0.5181427286398376 -0.09947790679437882 4.650002296465227 0.14503644354876957 0.04366427365716996 0.4430836071010369
Ni 8.6650818031181 2.391258503268132 1.4081589764412015 0.12950646623397052 0.4915489016912761 0.3426720013504937
Ni 7.051842364661728 0.6797610312333754 4.887061314970125 -1.4470752232134627 -0.4042753759845877 -0.6789280718723145
Ni 0.841642089641757 7.3922781889592715 2.583621042080292 0.05050726472093237 0.0053062427042618295 -0.6753722362002563
Ni 7.733093248453497 4.076453305590167 3.9512623495198134 -0.08014694196423616 -0.772857926553256 -1.2390210411815759
Ni 7.569823466872504 3.865770095014495 12.768877063448086 0.4264385423451882 0.19411057536760118 -0.5374212387433583
Ni 8.018738616239954 8.736043931944835 6.867066335665095 -0.8055217353348644 0.3372148348906644 0.746383020191179
Ni 7.019462902392652 0.7175427891732797 0.5726442440486902 -0.31176168492488243 -0.6073716997905669 -1.0904652716256382
Ni 1.7052130030611714 6.480813481962714 9.214012109141894 0.61322044526186 0.7216464366764476 -1.0418853058344055
Ni 0.20900554630082738 4.82847670061033 1.329210334960535 -0.42864840551231337 -0.17144912921434344 0.08852025362959594
Ni 6.497761683490616 1.867941020075476 7.086958640933526 -0.2862239456650942 0.43833812199625155 -0.19665365350442907
Ni 3.3917712462093728 4.123234675923711 0.203652912381946 0.09827270503066945 0.702558566807061 0.5716313089661639
Ni 5.853856437162569 5.49239111826807 4.781721515564177 -0.10023728495620801 0.3446296392974968 0.15660409378171092
Ni 5.35632694734428 3.0028294343743283 9.341370123479003 -0.9332932211555991 -0.3880776831788026 -0.1892527330546676
P 0.1773069015038893 5.468932712530463 12.232276416021174 -1.394395890541876 0.6621099718737113 1.1814216455005524
P 3.8076748746466094 6.187195145636493 12.65395525473931 0.34304815374298986 -0.15221367802349914 -0.33717164035755476
P 2.4549338986729086 8.32966633047187 1.3232238364986284 0.17615964731613534 1.0877445302603654 0.2281118720137104
P 6.267791654340837 7.719991575349083 5.778033777231693 0.770228459350209 -0.13701460168555757 0.4560090569134534
P 4.858779398707101 1.0871318677452702 12.62337445083164 -0.6595877196724899 -1.3807114510762477 -0.20913918756594946
P 3.927359696837521 6.215755167710416 8.196171026535126 0.10649972092615205 0.5243744328617291 -0.2891105231842699
P 4.662046625723655 1.0505266418560242 3.7555146851067955 0.9990121606199632 -0.10910013466347662 0.07320804875255779
P 0.3590978077380696 5.506504085230302 3.440775657148227 0.6024362101621624 -0.47173983738514885 0.7930678258422277
Ni 1.3452826837722909 0.993478832983736 2.4474620623573307 0.6812289520913493 0.2719550944509058 0.3339721595836506
Ni 1.7514977558752503 6.651514467516783 4.8309218646879835 1.1413893121690148 -0.7621832204482293 -0.5798374989260401
Ni 5.967933996088254 5.513682465738923 9.174260134061132 -0.7145869587265048 1.2359632281918584 0.3404400266961814
Ni 8.572521326899388 2.4684328657928942 10.282151517060958 0.5997010706191865 -0.6076516929248309 -0.09516167020551353
Ni 2.4338231393909506 5.194682459463352 6.879423082490313 -0.22400299205165938 0.1673101673453054 0.4285039095146491
Ni 0.37639273858865213 9.040515618423715 9.145133065074075 0.8286341529826117 0.7200376974284308 -0.2733347484072518
Ni 1.3349349805485424 0.968259692404391 11.400218141564137 1.000517027300264 0.6631250434017869 -0.7724347229729084
Ni 4.146927846306883 6.843660300502267 1.5941404315987167 -0.23363177339067506 1.0600478356760454 -0.011895980106637578
Ni 5.479668680360337 7.9321826973020375 8.006344848836013 1.109080315623664 -0.26882349080045964 0.5607023207584859
Ni 5.1452825603908146 2.814629453316224 5.065483348540447 0.1546495411585014 -0.07492194611987096 -0.6697731448459239
Ni 0.9114015011304439 7.530446212283703 6.908127575115353 0.050336029250390726 -1.0209850653466288 0.9992078215705372
Ni 4.9777960445990965 4.606597022323098 7.121014864536503 0.4390102083626117 -0.09737179048295487 -0.41603637317525766
Ni 8.067813456572477 7.13559013726231 9.189458436038631 0.05340541220433383 -0.5352846520163298 -0.6434553328870014
Ni 4.443110534915429 0.3335770848832682 10.539535736226116 0.6432589006054792 0.006371707854298704 -0.537460576621726
Ni 8.164870578694703 6.869556646789973 4.766087093110494 -0.2565027644515776 0.7368370283739568 0.6683724078436554
Ni 7.0979374998774665 5.875996549121234 6.944693974543987 0.7019988376488491 0.5867321691633444 -0.0069232094823945284
Ni 2.4980402993624153 5.196479311942868 2.342927686273861 -1.2768499391038912 -0.06772208593732208 0.4661422886927134
Ni 2.147500565896133 5.264245029826141 11.450661840368493 1.476736240613005 -0.24538222905838383 -0.4856716169748926
Ni 1.1360712669361217 3.050694333841248 3.8986118630471456 -0.25780502820276885 1.2837284113912797 -1.0434369665922416
Ni 3.697859196978871 2.6491655252401434 2.583250836293055 0.21463492057319808 -0.3708484637847097 -0.28506617791156713
Ni 0.9580384009128701 3.3158971186446626 8.199567890368261 0.6765698560527832 0.4760312656716511 -0.5604968896158992
Ni 3.7821938811933653 2.633291823436173 7.090883725219183 -0.5359096871948383 -0.21004575854061888 -0.11549369689464627
Ni 4.122096970333665 7.0137924332613135 6.040796815603121 0.043442644564667114 -0.22298483519979018 -0.5473634375577348
Ni 0.8512981401020333 7.4519535559799985 11.3757827537246 -1.0469498648415065 0.21597832197496997 -0.32086184745393775
P 0.13916577306808176 5.53345687242305 7.869524916341692 0.05186300741787843 0.3449751955623736 -0.02893416653584694
P 8.507130343700098 1.7211589401407001 7.946478961276 -0.11966659732541327 -1.1940938416515823 0.8982218313737627
P 1.8129248283282693 3.282957832990008 10.423781415966527 -0.16539983769647 -0.6577933467762284 -0.09255431448965351
P 3.9911705333839693 6.220215695976151 3.8771363156236176 -1.1034912515716608 0.02229660661467128 -0.5732395339935483
P 6.9028571088224195 3.936985047305685 10.502307481085177 0.11516793812411133 0.5311230644394724 0.5223658870721326
P 6.291114618936772 7.765517857769798 10.293305546548128 -0.6274003363066678 0.2945337510823702 -0.6528961665849272
P 2.4521979876111324 8.578300148944063 5.764065280820578 0.04003079066964074 0.09223858302144759 0.022143883086890897
P 6.917873016729133 4.084661038775497 1.663033019780702 -0.04213446727620485 -0.00438913020663115 0.46616002930452616
Ni 5.433076927625136 2.8027016034396346 0.4562939827657458 -0.18304506158205894 1.126157839931241 0.7092092393543592
Ni 1.5672345973350819 1.1381480311084273 7.036436386266999 -0.5281058748797034 0.5796068709724728 -0.3229331281606696
Ni 6.758675498807748 0.7827161636049492 9.378003340537527 -0.25841000877661946 -0.1343396259565557 -1.2578631135887435
Ni 2.8072614552092623 1.8019992429000535 9.210787707029155 -0.3797699346440556 -0.7689912445089983 0.3590152185952075
Ni 6.435088552534213 1.9611425843647698 2.60647086562132 0.4198642315617801 0.7776787449806671 1.0639345723249614
Ni 3.9415629578942015 6.856798091244461 10.411914063133219 0.9439411877877485 -0.06233845302790555 -0.1294748416650867
Ni 8.118098237770607 7.17410056854441 0.3310271796560548 -0.37531729818934073 -0.5093910720790195 -0.317101351970241
Ni 7.530066977087021 3.8604156552137248 8.375954695049725 0.438644854603393 -0.3309274592200559 -0.9320801746841043
Ni 3.0244006935379715 8.399292106700774 12.27546498433663 0.6027977072666393 -0.5162736581314656 0.7962338822750352
Ni 0.25181668530148893 4.811447234397425 10.057951280546412 -1.4556488238150866 0.2872562435843504 0.1719764624727232
Ni 8.675194741696284 2.2862825890628105 5.744559047596963 0.2143785815880179 0.6597602406946121 0.5916524892830971
Ni 3.62299636327198 2.6296078243826924 11.592847047954917 -0.006945835190213844 0.08726221285277874 -1.2095060624415943
Ni 1.0501654654782318 3.328773056512957 12.570948796654148 -0.01179159331828937 -0.2788014279487779 -0.03622838620441502
Ni 3.148293220530163 8.502552433111582 7.934677523131638 -0.3884211825611504 -0.4237931343025411 0.6292119355941099
Ni 5.668834808229036 7.783260647328842 3.542520848654197 -0.6490400260636306 0.6598260609355411 0.9211820397143619
Ni 3.0133306375586386 8.418434454723764 3.4852590427780665 1.0806040625608422 -1.1092194123046897 -0.23549042386596863
Ni 3.3582540783502504 4.517720545157866 9.387359614604236 0.34127332123075416 -0.8313584938923102 -0.25880930109756717
Ni 7.13068716793378 6.05219644502719 11.318018009742396 1.1312113431947486 -0.7287005153097514 0.7340337545972069
Ni 0.6092855875757153 8.94609508385937 0.39527774844246516 -0.38255803891215406 0.2083945960904411 -0.48810079524167554
Ni 4.761821600088767 0.4793650268381711 1.5970479014399441 -0.836230734382947 -0.9922157065234202 -0.15384324320712214
Ni 5.852890290351973 5.661746721814862 0.3138035811400862 0.6539266647319706 -1.0060140458590932 1.1224194559347314
Ni 7.936453607969431 9.023982769730273 11.224571748457148 0.6146494643989027 -1.2391660513998723 0.8065630321151851
Ni 0.27670264067232037 4.7855057410624955 5.680992908046468 -0.08304174701352794 0.025253632360466186 0.6741458199923228
Ni 7.932507756042051 8.750427781190412 2.647214269859121 -0.24271136709444008 -0.11505943757070507 -0.23585449207360673
P 8.564123976115718 1.599912030115837 3.6093782079473224 -0.7822907898313817 0.22867340094413519 -0.42265439271240757
P 1.905340833995865 3.1146044938915893 1.524098399594407 -1.1564827161670277 0.4040380631628009 0.1271654768056197
P 4.714326906409085 1.10931712675116 8.34766013761348 0.9511065951879363 -0.4566870568170845 -0.37123772880332834
P 8.653912423634875 1.6041197349171168 12.515390840340253 -1.1339279707949632 0.27189930151230596 0.32979488827750947
P 6.206536140667269 7.770113827177204 1.4292245886759354 1.427491130433948 -0.36252683129289176 -0.46930268869856595
P 1.9870931071091438 3.247345842139691 6.009106297274683 -0.522944385283422 -0.8507119587182574 -0.4701706931258161
P 6.85687032652002 3.820948106530475 5.927659218200638 0.19471169928670984 0.24604428812241497 0.8928433406706687
P 2.3909244151186746 8.432393921725433 10.07133828298928 -0.9065858870677418 0.9570751540665452 0.24314716908027806
