# total energy = -340862.5282774909 ev
CRYSTAL
PRIMVEC
9.30199137254693 0.00000000000000 0.00000000000000
0.00000000000000 9.30199137254693 0.00000000000000
0.00000000000000 0.00000000000000 13.61440463342172
PRIMCOORD
 96 1
Ni 5.174641931951438 8.00885635023449 4.398773072251452 -0.0953259636975197 0.9483418879586054 0.4008424390436387
Ni 5.219244980094519 6.235636358280526 12.5224066927753 -0.28291699277904825 0.9183882790193086 0.7013414065705084
Ni 9.451567290348661 2.192321208656054 4.146130989338817 -2.8623073337743996 -0.09236251019382156 -0.475969044975148
Ni 7.680365830500441 4.27806950332352 3.264624995972077 0.2657448518751359 -0.5375968450892742 1.2742050452818765
Ni 8.199984364873883 7.829030254989017 8.473061062210025 1.0912738835698625 1.5738470641250895 -0.9697625197262267
Ni 7.0204360597995255 3.3664371508283124 8.667460587179328 -0.7923934254830225 -0.6705555315379033 -0.6433884842048081
Ni 6.754454921404686 7.42946321995543 1.012834296724084 -0.14335468497097248 -0.8743316550197265 -0.995570481928266
Ni 7.445620778792662 2.8098525031450476 13.473386468345634 -0.49021989846720737 0.0807588645166222 -0.11294881898560548
Ni 9.034559021682481 8.53833499535489 6.321290954299529 1.2936603257930106 -1.365691837738964 -1.2545803290724133
Ni 5.919526788927799 2.4644509632808376 6.6638014352768 -0.419537958570613 -1.9043528624266945 -0.1986560286464385
Ni 3.639906392196079 2.4423494320216177 3.979299775898534 -2.3014016387558556 1.38886544764195 -1.7685690478244445
Ni 6.442317302324555 6.270704865371123 3.212944992870235 -0.4206599879901981 -0.5162757150139947 -0.10335140510515749
Ni 4.594346508519119 8.33983980362909 0.20118160680478187 -1.522351724459275 -1.2179199975369026 -1.0566483230761932
Ni 0.46235082511528125 3.6941742092694336 5.744584239099451 0.7400131121090933 0.00783800798718005 0.12053691574550855
Ni 5.846161983775665 1.0758962163447732 3.8093514651834335 0.2715210922372808 -0.16706694098624775 0.6726363253263319
Ni 0.6845242356206869 0.33015092517587186 11.749040068727137 -1.3025203472868019 -0.38240248717089625 -0.4721185608808062
Ni 2.4813154734546448 8.051543188175804 5.348772417941852 0.12208497695891879 -0.01281232127331987 -0.38318384542161105
Ni 4.878159564179922 3.8882323511591013 2.6347415872747004 1.6993261543672218 -0.39779336780466973 -0.19827653381983273
Ni 6.998697306199864 7.633660532330178 11.901930387849998 -2.7498110289451803 -2.351384398431886 0.08698273393914698
Ni 4.204639584232491 1.1135320730260883 5.498790282160318 -0.17305375469730197 -2.677249612637686 2.6974116894078577
Ni 9.230207804079443 7.1185348597404925 2.1165499783621864 -1.6920085376598861 -1.2365373555277737 0.6567253105230303
Ni 5.675219290193725 4.636093845342091 0.639987231615628 -0.8989671941802194 -0.020743917415570728 -0.8025207437250114
Ni 0.25190722560224793 5.843650446132571 6.479884324270467 -0.36886588613704213 1.3411750835445226 0.43628226790848734
Ni 1.1870085020734704 2.4551582740013926 8.143429188147058 0.15822028922889525 0.2862414291665909 -0.03211616380825437
P 4.865480950077936 8.483332320971149 10.938670123404068 1.003222856267201 -1.0297126750276138 0.5873147811396918
P 4.716556069833781 5.958092844736186 4.659202782255929 1.0862790014584325 0.18054620641960517 -1.0508054911421711
P 5.806414575075897 3.0851728407756864 4.3826127228168374 0.7794854591721027 1.0094840066855646 0.3593065245833812
P 1.484644316762556 3.9097943669246207 3.665297107568624 0.2985665263908471 0.7288036165465192 -0.16935907945453413
P 8.521079801547712 4.063267920900156 7.443021802431625 2.0691932280752687 0.645089783166631 -0.005866743193422155
P 2.5185699484938606 2.9776790296512976 6.0259806374281215 1.0634378351942009 -0.0015552603022618375 0.5874945012506657
P 7.262194812925423 1.2968185090242677 11.834743035100747 -1.348941614863819 -0.1312913260485352 1.948130778843593
P 0.7727973421823964 3.8008308411794585 13.645037043463276 -1.8307360082714923 0.38658078691830194 -1.4286401564367266
Ni 2.924518149539158 5.467040725555111 5.522546637666598 -2.488915020521914 -0.9988602084231314 -0.2848805442633223
Ni 4.548515597528303 6.331474774342707 10.203247251948277 -1.4461329139048513 -1.205998563508968 1.0303395099783352
Ni 8.329151815659039 5.366895487534587 11.619594488402987 -0.021956449666433155 -0.8413986517371317 0.36716690116806444
Ni 8.376061757637258 1.5836919198131352 9.519981575746518 3.8754451351624675 2.9908689195965974 -0.29479523227387294
Ni 7.108991016696738 8.630406104952433 2.9841680987617485 2.2951721129063762 0.13617436517244935 0.7522083686237045
Ni 3.1171530867644064 5.205636166865462 2.694671526434539 0.5236015592514466 1.2067346703440442 1.5666307488823084
Ni -0.18107814327051142 7.565635070167436 11.034338313025994 2.3060316813286996 -1.213130289457743 0.18353048585890974
Ni 0.7764623267430582 1.7000319246359747 -0.009061999895931093 0.12859783837677208 -0.9365333253594517 0.726683999100355
Ni 2.6971216709352457 2.298177869316797 11.96322213853187 -0.03526627940146184 0.4894904765003505 4.2515345356311425
Ni 4.906000424053174 1.5634507868080583 11.895831072173792 1.0475635871661055 -0.3876403385310679 0.25602222527073326
Ni 1.1413636309080692 8.742374173878035 1.2309427370441872 1.4357579984284305 1.5084767662493956 0.7692380704124816
Ni 3.6717471083157385 0.5229151600797831 9.817278797953351 0.8667371305019201 1.150095067473129 -0.6132559264854858
Ni 2.516532812405574 3.2965140824463437 1.2197608133376598 2.292877403334929 -1.1782440191035193 -0.11007972496792656
Ni 9.174572594289293 4.100438678017936 9.377506696249476 0.01078217821716853 0.5325456558186118 1.6982198086769202
Ni 0.373313094871119 2.8016016368879226 2.0607854708933737 -1.829010283829637 -0.5875238118267042 -0.9880119528547178
Ni 8.104852900148275 1.516885018506856 7.140496861130651 1.087643743016443 0.8594619369967456 -1.5541560134540655
Ni 3.503195026490373 7.797031405017756 8.564059652214054 -0.6009220875104813 -0.12176256062249351 0.36735330614725764
Ni 3.494544174608607 7.639557994795811 2.7074961817994745 -0.3749421742381091 0.07880739721720621 -0.8255848246333266
Ni 3.1991315358332226 2.9969155475991376 9.912198177277986 0.00015066664525135342 0.4901733614999881 -1.3775441090918596
Ni 7.664422217462434 9.193613770420448 10.457441837203994 -1.2222669616516886 -2.3220092877038785 -0.35760034052555184
Ni 1.405633202909098 6.997236893570361 13.33578583227445 0.073572374070512 1.3904299639155924 0.14242574539879987
Ni 2.2872573315649767 5.083966121044503 12.711578498650463 1.6138189765323367 -1.4674769267982661 1.2213871301498966
Ni 6.462949118963001 0.9242784096277449 8.693205708419287 -1.893232841254133 -0.2946404518635635 0.43906651552184384
Ni 1.7819917697222494 4.780516561811221 10.561047415977226 0.05073609290228682 0.3930558531196844 -0.8432819848027735
P 4.303938341047379 3.0457044918140403 0.024779574546059162 0.5459670714308403 -1.0689225124578559 -0.34656028066130634
P 8.066937983728838 0.6004072587587331 4.998256643277003 -2.147484604888005 1.1893036193517905 0.09915253653246149
P 7.63122341061725 6.467516396676922 9.839184987395885 -0.9059019736268398 -1.5767889203622327 1.2946951948154282
P 4.830784522638168 0.4853583703242691 7.507186938217021 -1.4248320955445462 -1.1718622839468913 -0.12958874153513167
P 2.3382043377546857 0.080571987988684 3.4418167672896836 0.5690105835138651 0.472655921441515 0.07300775981629364
P 5.283744987565661 9.149792089544107 2.05900134896765 -0.9392800348666532 -1.2887749726762516 1.6641375222812307
P 2.259844363290178 6.750594595027338 7.122430533684668 -0.6866200411999337 0.6444470073763096 0.17705824787100471
P 1.4496967355584776 1.815785904008759 10.513628655076499 -1.9205641820792343 0.09865965605644299 -3.735696679485515
Ni 5.83257177452915 7.666533769480886 8.930150681062589 1.2037038539375204 1.673721309314924 -0.1463371646380641
Ni 6.700270822252767 3.143012622496996 10.949003705506703 0.983547746435777 0.6985252772779518 1.3717041053713148
Ni 7.254204402423878 4.024087933667903 5.86451388235366 0.19531539430897976 1.6271897414122878 -1.7653708526021208
Ni 6.092683356432168 0.8246968722782267 0.4558133856502224 0.8022590054231925 1.308450853838624 -1.6428143353234224
Ni 7.101465705758729 2.2867178160712753 2.103207202083472 0.4727981034463341 -0.027797996048874708 0.5916532606140457
Ni 7.184337145989534 6.659016490967144 6.687327101399567 0.34061177638735535 -1.271712617877326 -1.0032683647931562
Ni 7.845383155642934 4.777288770840282 1.0375664311146626 1.908389237279597 1.249045001076481 -0.1968482860137384
Ni 3.4686102229458524 0.852222394647401 1.5508577510257633 -0.9718368857567521 0.43197309901017217 0.053289712562075965
Ni 4.423227077103036 4.209188257963871 11.724943260340348 0.01611875993873353 -0.5787180406096162 -0.186264339850305
Ni 6.649016850351124 8.830064045587072 6.643297986117889 -1.1807084214836117 1.2235879944559571 -0.6921749095798917
Ni 1.0859795748822287 4.980900057764975 1.7955354690124112 -1.667563517243644 2.681207568844169 -0.28233720901617826
Ni 8.88995956737921 2.6355703946969204 11.668061583719924 2.5542457234089238 1.358761686278034 -0.5004510892769123
Ni 0.8787944629113271 6.38987267554026 8.791883092217292 0.43214536292197836 -0.01384436208226003 0.9891452951282127
Ni 1.5455444536119307 1.13175467392542 5.359065071282899 1.5025102642533155 -1.2096235618560651 0.5067451498157403
Ni 8.114731614877774 8.974961163611008 13.2265032482287 1.477537653468378 1.4711065531310537 1.3899941619297547
Ni 4.851834928883797 4.491419975108652 6.387320209135575 0.027339568355217433 -0.655721294738548 -1.7881893931585333
Ni 5.80747500208076 5.37758347550464 8.131543103701338 0.4574401329330251 0.057676785886178084 2.1481237811339002
Ni 0.897589136273808 6.145062869277568 4.203787521832093 -0.5674077578031196 -0.2703509831885796 -0.9418369969605521
Ni 4.693654567325279 7.078610713206581 6.7465361362359255 0.27973268151379566 -0.39909743132807396 -1.2633495906246113
Ni 0.18572448791023383 9.093728988155503 3.7071207207200154 0.6808466290512661 -1.2882412116599684 -1.1759125427568653
Ni 3.8437781348763522 2.480236442467242 7.735133164505033 -0.6682484806712814 0.17995331003061266 -0.16257933752853937
Ni 2.2850806656076297 0.36820072046873376 7.5125783723575275 1.7413624055026655 -0.27254387707484035 -0.10014703923524688
Ni 1.6799303214999584 8.707305666787438 9.813671485738567 -1.2772163213043746 -0.5737910356216441 -0.3849144549594725
Ni 3.2893050392115395 5.070580555605944 8.047310782147628 -0.2875151536726919 -0.050660245359028876 1.1901209730467632
P 2.0929666398935414 6.898589276144422 11.281535010248753 -0.06001340443915472 -0.13492352348448378 -1.85479279211038
P 3.811267675385201 6.0256997172917455 0.6886915277099676 -0.1828907953923818 0.5691193411775876 -0.03673926440256253
P 8.024120917909734 6.8874175846282935 4.595828315728544 0.9558117139730893 -0.3455359531618501 -0.09237125194456995
P 8.64260101550834 6.691499044484482 13.66477772933799 -1.386943805139205 -0.5305178267553057 -0.5898329195758552
P 5.188232141197954 3.6234139616731005 9.68483797644003 -1.8713650946467641 1.4973462035538727 -1.2973272331216368
P 2.26324889209526 9.370919026031556 13.035642200738778 2.12762026186391 -0.310858970604955 1.4961570683417782
P 0.2973539643535829 0.2738841101784405 8.072797308030262 0.10649714982299079 0.06868496407122364 1.554533194287826
P 8.75984331348444 0.7034379744714329 1.5846890932773559 -1.17691835831356 0.9594513676082056 0.7866909757816064
