# total energy = -340863.26709431846 ev
CRYSTAL
PRIMVEC
9.36382734667393 0.00000000000000 0.00000000000000

0.00000000000000 9.36382734667393 0.00000000000000

0.00000000000000 0.00000000000000 13.70490783203104

PRIMCOORD
 96 1
Ni 1.2946052954430252 1.090389587710146 2.6967007726356966 2.9775218088657303 0.4220383563949635 1.3067822078869493
Ni 7.702122437461709 3.885716743253729 11.075730533941998 0.19909517306638613 -0.6876255996463125 0.4779269400324673
Ni 2.7103597873942804 0.9267417250037204 0.5887955825164791 -1.3477175126487304 2.2866586761187264 0.3547703272759245
Ni 5.965235491170543 9.045260449360303 4.358283820463484 0.3001102167288831 -0.4525126137244207 0.8766078526484129
Ni 3.9526400163596436 6.75302363859935 3.1904478906231573 1.6805398748986544 -0.8285889015669731 0.7744358125633372
Ni 5.916187764218146 3.8121919719612096 9.644815069346865 -1.560567316297048 -0.12728888975736144 -0.19124739488719322
Ni 3.101318301276768 4.527916105143043 11.177804678030464 1.2780825259594117 0.5600801137934548 1.741355720634446
Ni 0.3176790748630016 2.5641904445674544 7.429951562863817 0.26881706304255637 -0.05691316824727618 0.9017655828609631
Ni 6.284017624879477 4.526605169332937 4.971112601910092 -0.20653928804925717 0.19469318734394858 -0.21089782212826907
Ni 4.513327262342005 7.61172404952768 9.596600723016609 1.7389409405453664 0.26237876361638035 -1.2547788182364648
Ni 3.0198155491970313 7.872581548084357 0.19159420502972227 -0.4358125273609204 -0.42512265174724206 -1.9992479092343822
Ni 2.396531118282105 8.538649305544816 9.615431379546061 -0.23385674491728758 1.36751912075569 0.47874223684491096
Ni 5.657146848141189 7.652578427666914 1.1955172758534371 -0.5371582148899587 -0.200526506196274 0.8000661115369317
Ni 7.1683561947225956 4.982136635690363 2.073511852758364 1.1648750539957808 -0.8633203915108874 -0.9984694007426158
Ni 3.9818832487522235 0.22809346713123949 12.118715746375988 -0.00829540723957281 0.6278711052954993 0.3303492181190827
Ni 4.703057129373213 4.487876379971518 7.082503944901471 0.0731255163410805 2.1742968399848426 -0.46142251461954087
Ni 0.8416123626435974 2.789259395508235 12.004895617428971 -0.3347311492368622 1.4083793493051615 -1.5283557645615098
Ni 4.352531621405283 0.19235548418230528 6.699328644200127 0.800092593899493 0.8280867651195738 -0.34587251056566237
Ni 4.373328681649894 0.756396853073096 9.735569282715065 0.8345178654568982 -0.04984263455373997 -0.03940832659429343
Ni 2.324120642428175 4.041502736630404 0.17375517780234329 0.2632225996739144 -0.4474398271872036 0.6877716383058735
Ni 7.684921086867673 2.9729121386768793 6.152050398789708 0.15327914317353603 -0.3003092201135667 -0.5226649063697902
Ni 7.780029479890868 6.847570201989642 10.844789526954663 0.13488392849579994 -0.8720942810487755 -0.28602519939072674
Ni 2.6450751840509987 1.7936785583504025 7.849609270777691 -0.5588925212432567 -1.0852433611050663 -0.38452647549243457
Ni 6.024639611022779 8.508834879692118 11.171706017365306 -0.18313942106807812 -0.5863801851405643 -0.3320916547314861
P 6.4604508572653225 1.1045383306320764 6.49030180204416 0.5994030797627935 -0.6923577150146591 0.9545367039154077
P 0.6002025968298449 8.810425026634231 0.15853427666429043 1.3178947728603432 -0.7717549232970644 -1.387810009794242
P 9.238792030240818 8.451575076272128 9.89048912207435 -0.9265828990149592 0.711639960283039 -1.2987282272342213
P 1.7818801360594478 8.962203301962868 7.570755432696423 -0.1649043861172902 0.7452044265020457 -0.8505474081159351
P 4.5506795691028135 0.1355367170241441 0.8379698338569456 2.0478633562492408 -0.6480876894526902 -0.7521726302897627
P 1.8461347184090748 7.673394215565955 3.7535416401997854 0.5156110848468023 -1.9496634134380357 1.569576975994826
P 7.401084756325281 2.046483165502141 0.15862978770188388 1.8548143893769349 3.330857717687973 -1.4516849540713321
P 3.2857388782770456 6.870286846813338 11.113926521534882 -1.0647660670873211 -0.7350853357901728 0.5787962021457194
Ni 2.1633811844547415 3.3754724344788056 3.993678861895014 -1.4615255943108376 0.24407199488739256 -0.19945769861212748
Ni 5.444868885176157 2.3442809624221628 0.5990808103294827 -1.772793370318437 0.630513685124669 0.7639485398787682
Ni 0.07628429117279317 8.120432690639337 11.928642226885987 0.10524039459775424 -0.7208684208598424 0.8252186995431594
Ni 2.840713626054898 1.6029280341527556 5.512703258670095 0.8288853497614692 1.2278321144442916 0.009806187457144403
Ni 0.41769036781599306 2.9547463138796957 2.20792959243031 0.3310205331544944 3.1152979713076605 -0.29548274525920076
Ni 2.354328349023904 4.0938090754536365 6.851521737074391 -0.47738752258922945 -0.5424464598720916 0.48673373969081973
Ni 8.798467419280621 1.2762428302743252 9.82045705833304 1.5021487671488387 -0.508400426030976 0.051093733352021685
Ni 0.551787864597185 5.148007470977641 5.335978811257862 2.842229589187918 0.2371333587860303 0.27979464509998264
Ni 4.48604106983737 3.6763790220342214 3.012873207699798 2.3978758571252055 0.3722877673343975 2.0051622178362885
Ni 0.12907942177665024 5.050239751025373 7.731911580980925 0.3422832505525073 -0.39567555013071853 0.397130023189058
Ni 2.976985403515423 8.624627967033343 2.2629402045532463 1.2318749170550978 0.9037430183023081 -0.9519954255507928
Ni 4.89709435692334 1.0623355613738763 2.7918541120295237 -0.9411214589507663 0.20209873577940032 -1.074811624248781
Ni 7.466013534234391 5.479468226735742 13.200073922737225 0.6005251091823787 -0.1512086337977525 -0.036908185880259015
Ni 6.418379181588134 0.3011116553714256 13.28312545183833 -1.9082984773380036 -1.9475674501409554 -1.424196518843076
Ni 8.594214256238882 1.5391510069910956 3.7133305569902255 -0.5710468972176037 -0.5210060306101285 1.1992185644726572
Ni 7.033891635914574 4.846145773046289 7.943858064462544 0.6422754536462874 -0.21826891778135957 -1.523321287461396
Ni 9.231029417479546 6.90118747662298 3.665966446171093 -1.2535588297864346 -1.439332088932934 0.38957792187341295
Ni 6.180725246870335 9.317598000082622 8.34138249398822 0.6356245239886731 -0.3831182822909982 0.5461125958697691
Ni 4.431618506063538 5.910410282826464 13.507845132023988 -1.3953220019005712 -0.9211774117286716 0.23546754104783318
Ni 2.9960688833796816 5.728405573247668 5.1713552377556296 0.030349558826134826 0.37283412675617084 0.24628340071641452
Ni 7.964318963310135 7.920140426509561 5.6416113224087105 -0.4206219356634111 -0.5491650095428477 -0.46844368313238033
Ni 9.084026694030582 3.6664720928407055 0.11382293809518022 -1.1393314011987217 1.5425515964459175 -0.8848387251986374
Ni 7.29355992841494 2.0916917232963703 8.396256394233816 -1.1424915440942582 1.4613006227842253 -0.15353651059998075
Ni 6.476350635876466 6.570981473711694 3.49351845864797 -0.39217884983136975 1.6899249156579799 1.1609605494327233
P 6.446611120641489 1.1023191035821112 10.544240637598863 0.765931631747068 1.5715562112083838 -0.5795207390165698
P 3.0993331699071787 2.696023767928049 2.040976298716974 -3.3702524174355117 -1.5276993619244335 -1.7747862323787498
P 7.833131744027379 8.85009956254437 3.1964229487690767 1.1585252005183533 -2.9731352497622603 1.9290423947535744
P 0.7808738974132191 2.1469944868284156 5.428486869463439 -1.036937217800511 0.4205586865256435 -1.4960791639159912
P 0.021799926139342285 5.281395189655932 1.5594536571587525 0.5523675756405455 0.2886762638603287 0.5769666051361483
P 7.027805148224796 2.972734225959793 3.0362677936138622 -1.502759147039328 -0.6701122733528976 0.6743417380532128
P 8.858939015435372 3.571625886979532 9.184234627355089 -2.074332606184363 -0.6079566257597594 -0.06314706497212995
P 3.9230315947056766 3.684225909240428 5.154155759927038 0.8032321679697393 0.14051361597775155 1.54759147286267
Ni 3.334702330784507 9.059362373146158 4.39908388840487 1.9995636407025885 -0.3127929544028742 1.6977531534531471
Ni 5.186539619967544 3.452312000605451 11.916883132669337 -0.8103374115559528 -3.273100456272847 1.323163220348134
Ni 2.3450019771177213 1.77694539911712 10.061293757921232 -1.0628310548481372 0.4818967233134927 1.874619854138636
Ni 2.2254820865449085 6.1065730991544065 1.7574218193737547 -0.5689756165108717 -0.23879429142822103 0.48942851291416356
Ni 8.289917963231622 1.3265546739007528 12.09244271997602 -0.2638432639770488 -0.6044663532183138 -0.7791571292984065
Ni 5.546822235893549 2.0551727971577014 4.844918175298398 -0.2894149417985661 1.077338247325377 -0.12606041666689904
Ni 1.0978057388644602 9.259467360731634 5.2227757585243175 -1.1017364736640831 -0.35597771732046435 0.6909142976999134
Ni 7.974244620158082 7.239399551803129 8.034022356716196 -0.2720877633740282 0.29077736936373144 1.3826834872009541
Ni 4.857822465583448 2.4703274405638607 7.869385673855861 0.7450601876146975 -1.4955783130201725 0.24725142105663872
Ni 7.246731428512508 0.6319899810767523 1.6309932970816834 -0.6308463858737393 0.11043556564544853 2.0301355999521746
Ni 8.668319584818734 4.031211890521072 3.884093991997362 -0.6076239250106891 0.5084155955396276 0.2703304143632893
Ni 1.032633501447759 6.691128740707914 9.765212350529728 -0.9798522998620609 -0.9287585665100392 0.6313837464344481
Ni 5.665583656461942 7.22215138207302 7.207246041912113 0.708756982308289 -0.7880588026634106 0.42042756026441785
Ni 5.614550798139957 5.470413405818796 11.464621514775404 0.36871933325684886 2.5624020339674707 -1.8910702863851756
Ni 1.5962984444845048 0.6474496598087888 12.239098981818026 -0.4651135903178829 -1.0872683619548953 -0.635864407913621
Ni 8.621472357261874 0.4724856119129834 7.195624595955523 0.17051119078110635 -1.3850550727569244 -0.2587704774398318
Ni 1.3240826235159815 4.299260808378901 9.860475246701972 -1.3781136084420846 -0.05672007839986361 -0.3564721404583796
Ni 3.3724010991522713 7.5370943466237845 6.945825777339813 -1.814689496331591 -1.0937634827609357 0.7208745915074294
Ni 0.08423886239197244 1.459202650229056 0.58541617727457 0.2529093906733645 -1.2573815459666347 -0.4689550755511601
Ni 0.6785141565946949 8.435347563708458 2.192977433133329 -2.5312482340724856 -0.463344414232602 -1.250974099778394
Ni 0.6340462775331758 7.129159214000424 6.95966738672909 1.3415183258165542 1.4143558786035706 -0.9180375805481092
Ni 1.2128029008924068 6.176586435241286 13.422682059885892 -1.5326168538307088 -0.23091566001109265 -1.036837201887537
Ni 7.9567061717843055 7.872899918209668 0.5244033519067909 0.6986409769202097 -0.5618821999992001 -0.16375073212882124
Ni 3.0645278241488625 5.938089756074133 8.864498319652942 -0.3327040915045044 -1.2267771908172163 -0.28371712008284045
P 4.765598131342487 7.388181402422951 5.284119126992787 0.12216596670849929 -0.21407570563561842 -1.169025842939361
P 5.075924729076236 5.211878136411451 1.7686865035134518 -0.15803516980128268 2.5642293169841968 -0.9537841420200992
P 2.884938981991547 2.442807152378849 12.515829103886922 1.6565674232434566 -0.15996041184845355 -1.0943054713073348
P 6.22312465650005 6.200857475382677 9.370936232664953 -0.015110116168561075 0.27913027204310636 -0.0632329398177169
P 0.030787327500340834 4.983279022610598 11.710117654785801 0.8772863667726762 1.274838050880185 0.9016478263361762
P 8.073922560862217 5.559182487817406 5.998747692390461 -1.959911573528605 1.141385455514273 0.277088044802097
P 6.112790680425195 7.121555786301808 12.821680728594604 1.357122093792082 0.9793979859334615 0.46054396866932945
P 3.226990226329864 3.6318540236266905 9.20068031709287 1.926111851370341 -0.43323319666951843 -1.9036877180388698
