# total energy = -340897.3104227798 ev
CRYSTAL
PRIMVEC
9.01640295253948 0.00000000000000 0.00000000000000
0.00000000000000 9.01640295253948 0.00000000000000
0.00000000000000 0.00000000000000 13.19641711302242
PRIMCOORD
 96 1
Ni 6.370097593332852 1.982860254172295 11.308999029500026 -0.37407699802433636 -0.21211549658545406 0.5349648067830658
Ni 4.686879453353219 0.28835628281015296 6.051414639710944 -0.3221864798026322 -0.1922015312703464 -0.35936000352913594
Ni 2.9251374614040415 1.8064813826338582 4.755487065525301 0.23558272646945877 -1.5195587350951703 0.5906448739541892
Ni 3.549234830290021 4.3524881227762835 5.15351706869223 -1.4798786428967288 1.350151833121836 -0.4789677225921558
Ni 4.981156807880952 4.800594325444149 2.5371427145515124 0.12923984283614515 -0.6009048611193006 0.9397798573212073
Ni 7.22628618664736 6.033668555723522 2.4823247888190014 0.4770219117196946 0.0627166623029307 0.4097813934044814
Ni 4.90201082411833 4.647035969387963 11.326035522587231 0.43384666188380117 0.05739139343527535 0.046866068423919285
Ni 5.474336008137032 7.737362946457872 12.178274029835848 -0.14044805284713877 0.5122128577985308 1.3630639131978137
Ni 1.8401937126963372 6.625712612661892 0.3563417631891594 0.24033772465594097 -0.9086479118030932 -0.04585691043311457
Ni 2.8386160601524906 1.60457707477371 0.37337284643468405 -1.0422527164761535 -0.014145695372762737 0.8165252855342195
Ni 0.709898359553954 0.043511356623565534 4.785891277401119 0.3680490466627016 0.3193613516490113 -0.2735694901258772
Ni 8.61242287082902 2.425565631564037 1.249426378394193 0.4253471090532223 -0.5465296288025298 0.9127899589959247
Ni 6.945812944803675 0.692106291912261 4.777894629759395 -0.804149537577686 -0.6116261041915466 -0.14696528514036628
Ni 0.7913850014829886 7.296884620557286 2.4739719932667468 -0.8580599144428965 0.877171695571683 0.2884407508107549
Ni 7.830376157724128 3.7847072057678774 3.5668465698757497 0.023692972741565645 -0.20428828723155137 0.5667834939555594
Ni 7.5340881453723965 3.869885163002496 12.649399108847524 0.447834491522461 -0.2636334619590879 -0.42218645193705356
Ni 8.157797808938055 8.799774704572869 6.802753288165716 -0.8109709313748936 1.1906789024327622 0.22104905162965802
Ni 6.665853637919489 0.6474778029819982 0.20875767562706185 0.40343128281673746 -0.484216629695921 0.24237121014620192
Ni 1.7901977591803044 6.38144022805299 9.195091672137817 0.37369750319773065 0.07895009344265758 0.36227126363865997
Ni 0.25107345723958574 4.86629685263465 1.4540076562451276 -0.40745351660225315 -0.3924094777849371 -0.4483039749597118
Ni 6.139178501268088 2.141747304282219 7.122119685119728 0.5255764235896303 -0.9304441817425783 -1.0282738856985583
Ni 3.4312551996755416 4.477680875629325 0.4143875611234273 0.4879195324688048 -0.47887901953309137 -0.0006792854552117334
Ni 6.041395612921582 5.703929688990459 4.688238225254908 -0.30182308565493177 0.20792588398413867 0.18779003246621206
Ni 5.216196396024494 2.820673418584068 9.257800753599316 -0.03657677068276926 -0.11236672122989036 0.12596682851182822
P 0.16724615714413762 5.498590131664196 12.448245867340464 0.03033541775874776 -0.5232876275554537 0.1505270343496956
P 3.8288965958818677 6.248529434404688 12.493655176753052 0.00446214953641167 0.2608229890934863 0.47512546602793004
P 2.401798393787975 8.378302955770893 1.5666261337557958 0.44782960642645453 1.6442922054205293 -0.8093994731227158
P 6.386498430022781 7.775060526557156 5.930377546907595 0.16940510220112112 -0.3484248446738709 -1.3928213469659043
P 4.5571244006842875 1.0129658051696542 12.451320460694653 1.401650258111444 -0.09772146051288975 0.23432879945769963
P 4.093203427508375 5.9845021112649235 8.32569855692534 -1.0792963994930123 -0.08033694648785518 -0.25680049819765455
P 4.90602312336353 1.0660453684426723 3.74962979232175 -0.4415172910551815 -1.0428407277691396 -0.2242163936140461
P 0.16760861653662537 5.635801749447241 3.6470411612838025 0.11351806122551417 -1.440943913504744 0.10032110291926594
Ni 1.6823164996998117 1.3080275867408304 2.666916701666321 -0.36777676683792143 -0.6589709120240973 -0.926594726089501
Ni 1.8011166229689275 6.460982933538732 4.922197648343226 0.7037299614073429 0.3527808076497215 -0.1328851528982163
Ni 6.165975250384345 5.68998131386164 8.994954579226118 -0.4986148073991219 -0.5454214833400155 1.9187433268204115
Ni 8.566340036127407 2.430182029796717 10.207573296477207 -0.6745003751182642 -0.36396382084973444 -0.2450094190999974
Ni 2.267535139719942 5.080724943981502 7.099869907934603 0.45113141710617793 0.3293593434019876 0.3549485047250016
Ni 0.42696093482552067 9.185189858584833 9.139336942154573 -0.03151786810262314 0.08126588606002778 0.15317809881929748
Ni 1.42485311779714 1.211606175216853 11.307811569251504 -0.3769358076293702 -1.0755467026425929 0.45815335694996584
Ni 4.049401742714707 6.803425911814463 1.71798899573062 0.428629636459236 1.0060747238936996 -0.9794383522530938
Ni 5.696545255098731 7.874962269561239 7.985864023979131 -1.0458748866097731 0.3034066280919678 0.10158068635797989
Ni 5.075657725608912 2.8832111883924 4.85220331342078 2.423461418903794 -0.6904144752453594 0.012934962894113207
Ni 0.8926951066041514 7.380241264426668 7.0771855401346055 0.697105771222606 -0.01395003442218888 -0.547356238468883
Ni 5.14333484501222 4.401438173567725 7.1244423104805445 -0.22013862400024667 0.37266700505068723 0.0806382797783579
Ni 8.011831264037953 7.335574004964373 8.807156433543756 0.7887144339695384 -0.4865984996645361 0.7074814580299752
Ni 4.559712108287371 0.35624168111809934 10.391769389241686 -0.2761426501696922 -0.6791175621753014 -0.35665674566536
Ni 8.261729883992933 7.243696860450689 4.733541141114477 -0.9259864030815408 -0.03921960762225504 0.10475394187963893
Ni 7.245815715108267 5.983230798470378 6.924608168702864 0.317031417964254 0.10927368412686342 -1.0728264754979524
Ni 2.2953236931440024 5.374686724411297 2.640853887737837 0.48313702347849696 -0.7050707917059534 -0.04574918121065669
Ni 2.1863243997165323 5.150701246098351 11.379270167988379 0.028291904966157723 0.014035652157459697 0.1914991058866831
Ni 1.4545892142256116 3.3861461364761345 3.8176306005855136 -1.4033448722050477 1.0268816333367217 -0.13174949663187635
Ni 4.003562350888646 2.701837229703759 2.509773423857569 -0.6628409365024649 -0.6322607497227627 0.09326548162406519
Ni 0.9519157418230252 3.262188630806447 8.218425002993447 0.0106029723268269 0.03354749693814223 -0.2947247840472537
Ni 3.5340692407834444 2.665988012178106 7.171962359788191 -0.13169961723054738 -0.18897402547198425 -0.15291738895874313
Ni 4.12121739100239 6.645656895651515 6.197010610456037 0.13057038872211063 0.7548239518696807 -0.29898073111013024
Ni 0.8133615816633275 7.273333776448381 11.363777283060227 -0.4627715724482675 0.49439742688366467 -0.4130528650669016
P 0.21421891080193312 5.513205720600082 7.966082937880154 -0.5640198151674931 -0.28623294452615866 0.3819126920186713
P 8.261522506728575 1.7401026252334915 7.87521292555903 0.4322512923722233 -0.86106219160433 0.7340268126186714
P 1.5845696769644988 3.1855041250077347 10.429155001804153 0.783950694032308 0.542445431430827 -0.7563092781659556
P 3.9110179925678956 6.1650014788821395 3.9152448821996932 0.23925966110041372 0.29916687897900734 0.1592998954463192
P 6.733855347823532 3.9152016034662616 10.36457141020091 1.079708033109134 0.9641174056253075 -0.03434016804276667
P 6.35650987431596 7.590891483001073 10.197148531561927 0.04301429877799689 0.9138451397333165 -0.27068728348207577
P 2.5934871172777596 8.486148149640194 5.797950934089554 -0.7214708303305316 -0.19706117335549286 1.1454074321894725
P 6.783932448964749 3.8144613350019454 1.618883401093618 0.5645463770949244 0.11222839587981316 0.03613839759377002
Ni 5.295991560788586 2.7640684418169528 0.3950915574949942 -0.43221324004543626 0.43792006062222644 -0.2347399188531893
Ni 1.5425261907164807 0.9958797218670604 7.037820827157933 -0.5262207420418485 0.582782697597293 -0.6990245855118736
Ni 6.838923489630986 0.6598969961962423 9.254964193279001 -0.08419488678136468 -0.04323798475302876 -0.30395298751374106
Ni 2.598707614497919 1.5461507846413578 9.17681452202558 0.5005161381868929 -0.18730589374094192 0.33799130804537275
Ni 6.576185512091365 1.6947320863529365 2.4534380375341205 -0.6405016495753163 1.1707855059429448 0.3905662539286113
Ni 3.9658737871921597 6.854422686041096 10.40214185902074 0.16194967436434046 0.256305560839107 -0.9232124398808295
Ni 8.150765014755455 7.186208276209351 0.27702176285253266 0.046876095726248304 -0.08154819318713698 0.5057604173049677
Ni 7.549154554448194 3.822206425005601 8.099195698951137 0.3566289777512181 0.36558670116513814 0.34273242227478395
Ni 2.9187267990145194 8.477907157482637 12.369133244268196 0.9062393023616006 -0.5421199297706083 -0.4615726670441599
Ni -0.086832467148089 4.8810026055985185 10.190140983307163 -0.07901977033832844 0.014709281185716601 -0.2437506069922318
Ni 8.436485803027693 2.3176843720835443 5.690189592766278 0.509821731858535 0.5385309268677693 0.4220864360240795
Ni 3.5124208576649605 2.7499397386321696 11.512620060452953 0.05234328948840663 -0.154280844965173 -0.3660361299977309
Ni 1.0976929422643629 3.2573468225038122 12.611604151598018 -0.4353592418735857 0.6530913133148688 0.6424950258562612
Ni 3.0993614126737086 8.252461021916382 8.12074490163884 0.6645723173712749 -0.2735558632791224 -0.4065286907951386
Ni 5.6304189569767145 7.864395045481746 3.555959263496921 0.018825874457251448 0.386942798243411 0.14570878702544585
Ni 3.117322087047728 8.410248070884926 3.6914992402011793 0.6597972645801347 -0.017589945167621315 -0.16116137413509019
Ni 3.296478010648011 4.090949326808825 9.3704453786781 -0.3900396920011799 0.9977320083559591 -0.6912305433887515
Ni 7.186920572030409 6.080166144953852 11.52341449788296 -0.010790405747284643 -0.696086328819156 -0.6111972441842441
Ni 0.7011713832855737 8.978930628173151 0.1587833614777448 -0.21233146925100205 0.7346528762384444 0.7199523368034761
Ni 4.627623654163432 0.2489194386110952 1.491300399858773 -0.4965841501223383 -0.2837867969785113 0.5040802013890673
Ni 5.8782708534965025 5.401411342305169 0.4443130020106613 -0.25647756764059704 1.4331259601222224 -1.0919662816511968
Ni 7.927825439167101 8.736840213041415 11.455677870221185 -0.12571743150518347 0.23901283519693028 -0.5469584888098321
Ni 0.16380910439746288 4.735396716810347 5.807730124564485 -0.8274000234651944 0.05343909365574667 -0.4473624369820489
Ni 7.90380574211269 8.763537781726892 2.396561667042779 0.6044020756392817 -0.4899609883788658 0.13365622673628594
P 8.653411437949647 1.5573852225279181 3.5579915606876353 -0.11679596064583755 0.26891373652142075 -0.6433450325613823
P 2.0420078565285036 3.3256731229085905 1.5420537312098548 -1.091442805047559 -0.41589650516328375 0.8401467816079015
P 4.6083646177864726 0.9490936077471878 8.272107763613665 0.32379701882286166 0.24943403053025429 -0.8367482974493139
P 8.366689828966809 1.687717324975935 12.392767940923127 0.37918500867486304 -0.5375495367911065 -0.0942720685117086
P 6.286659801838285 7.6353603816018065 1.2923435540733572 -0.8513315945801274 0.15936443013566748 0.1447317678241572
P 1.7032706198028342 3.1819426459024447 6.012129271078896 0.5125874675291301 -0.655743149115419 0.23942446881305218
P 6.794625902683417 3.994491849673654 5.760988190818324 1.0247355335279964 -0.355313087153272 0.3643086057836629
P 2.260853985246474 8.434925965343606 10.149350777048095 -0.027446269136410795 0.34903959543973434 0.37274542369710645
