# total energy = -381166.37593437923 ev
CRYSTAL
PRIMVEC
9.23553978919385 0.00000000000000 0.00000000000000

0.00000000000000 9.23553978919385 0.00000000000000

0.00000000000000 0.00000000000000 13.51714602415835

PRIMCOORD
 96 1
Ni 4.228113259881693 3.2009549896477694 1.0808915645931814 0.43137274642201195 -0.46801996533140044 1.0707929900076913
Ni 0.3848338626006878 1.265001127804948 9.992415421741704 -0.695354335749138 0.7430156463808429 -0.43605883904377163
Ni 5.646710650811858 6.917724115054453 5.984162499803165 -1.7491801017748714 0.9204636734910987 1.1473655843571078
Ni 7.084619555553268 0.8627148655633651 8.800540374857874 0.9315127322164085 0.34645795075548724 -0.7697183524830099
Ni 8.416282809943377 5.997116267986644 2.3153793923115797 0.12656460999682717 -0.7977996841002583 1.297875906536255
Ni 2.898056989424227 4.8634814589053486 2.1996996380108818 0.4949252743626767 -0.7748844700649816 0.6399964278041237
Ni 3.9255477390924898 1.0323578791654064 2.3325325604615688 -0.3581510708226993 -0.8605986217043502 -0.3683645210205914
Ni 4.680654712177744 2.166131221344342 11.656362317027101 -0.4199655330263348 0.9509258466356978 0.21033629319784422
Ni 7.306411044877548 2.025316945361528 11.340885511537698 1.8528917184329248 -0.7367359840197183 1.8193779029461956
Ni 2.957367626294538 7.102139374635016 6.074077868604468 0.7224666185848977 0.6484977804069154 -0.12900510111751975
Ni 1.4102022852130809 9.055890121754867 12.511970434681448 -0.5784581020800103 -0.8494464617422725 0.6930909936362579
Ni 8.905360057857452 8.468075717381668 8.543836697819932 -1.5536183957830405 0.2931553826776048 -0.05207229521520709
Ni 0.8099429909017399 3.0797754713706986 6.206032491216107 -0.3988698886983002 -1.280883999963949 -0.5637922725377194
Ni 7.478746218343758 5.250718408973127 0.2550431269742117 2.34087167182602 -0.9748497044411468 1.436586922087629
Ni 6.114666219105503 4.8750628258681905 9.798458002395583 -0.930597676601307 1.047342729404551 2.265585657498511
Ni 0.5689877564036995 2.3449128016208105 12.076016011943025 0.1048048497222324 0.5312400496333108 0.5528360306365318
Ni 1.9780679235258831 2.379259774296097 2.0381968292262638 0.09518455302364898 -0.5252660914380631 0.8943093836932339
Ni 6.265417935959144 8.082907528238671 3.06121480694867 -2.0836752237415275 1.929396949879516 -3.4803185155566836
Ni 1.4795611894323328 5.15400383573957 6.035825186129673 1.0271130326212374 0.7194563710036642 0.4509486116714105
Ni 0.5549229527771351 6.958711440876695 4.941016586547411 0.43650261144940955 0.9146123569166442 -0.7147725923747495
Ni 7.091536974895508 0.873199050392885 1.7822624726572245 0.12293832609814956 -1.931900175917344 0.6310911548946938
Ni 1.8412341652153057 6.77954196792683 12.081151895649592 0.6529619868258562 -0.8378315032111634 0.3897363018281481
Ni 6.157131231302589 8.37012358180918 12.129124060254927 0.8939113769238669 1.1579068502080638 -0.050169935986171664
Ni 2.998659724931592 4.883679584541501 13.432244878760935 -1.88075810582589 -1.5404016399824503 -1.041994320608444
P 5.850132651388854 6.027094830316296 3.9878553086417825 -1.6189133603361083 -1.4547887898076364 -0.788259605820307
Ni 8.147805666713863 2.3409876971876304 0.4571333627058798 1.055198220893228 1.998055174477862 -0.5868373272826409
P 8.125603428931829 9.191828032700696 10.907498568875564 -1.5807396774798645 -0.6213315044047686 -0.45377014028060564
Ni 8.590806806352326 7.327246422762851 12.445601074709305 0.465653779092069 -1.734569550950548 -0.6860276590315734
P 0.4418106785527292 1.164924818068621 5.038367488476134 -0.05876384830276976 0.9883652224290786 0.9250448651038778
P 6.274330231907424 8.354386221917089 7.475076014810239 0.6658036186752146 0.6880914835391375 -0.4529877535886263
P 4.383732106232478 4.85201091842062 11.668771188359857 -0.5122609374276468 -0.2532822006317509 -1.6839818107006677
Ni 2.028401615669015 0.3274238998300202 8.460138694440786 -1.7732703099548557 1.188851105195404 -1.5844850034549098
Ni 8.390201645427377 8.596597489833746 6.156072838436607 0.533265821814088 0.7887859106374222 0.8420170020474208
Ni 7.387268196201056 7.28380244334243 4.561090489819175 4.2125797516345 -2.633721093227432 1.8224809673515516
Ni 1.9637528367695796 2.603766512334152 8.780345943437661 0.49411614819782 0.5084119959952018 0.22215822553343675
Ni 0.995960616645024 7.005212383985075 0.9303328705222538 -0.37226385607499757 -0.9272084484140999 -0.3075787571917864
Ni 5.840028970800857 1.4063880072580142 13.348384329880556 0.4084025107790837 -0.4606247013085938 1.2895948974743856
Ni 8.38119699408067 0.13398090005314378 3.792803477824294 -2.740702895996325 0.11765856575644898 0.2186044467439074
Ni 6.741316068517579 7.75007714338469 9.445849708968295 -0.10209490699023707 -0.2312247066110792 1.183954182114419
Ni 6.347808186896555 9.228724014372588 5.188502271268279 0.11033632106342288 -0.855159710076966 0.27963086582860874
Ni 6.854322134033793 7.455980612631313 0.7061909363079881 -0.3797349676410621 0.6560840773946055 0.49440668285504535
Ni 8.949505938305924 1.4297262164407105 7.390905151791141 0.22949692528669507 -0.29887017367419494 0.142032109504807
Ni 7.552381177510216 2.6830628574242317 5.399775404265619 0.16728728452716995 -1.6183582591635872 -1.4286023612202559
Ni 8.201658099537093 0.19172980713604132 13.041883545564346 0.10074096406550394 1.417059650687979 1.090988748229276
Ni 0.5938618358622497 4.6121547131638705 8.482779620365353 0.6053518411470606 0.015380596221128348 -1.0510852271661189
Ni 5.913109797576748 2.7227110299692714 9.897321685750553 0.3667377840504458 1.1311956594654649 -2.3498445647485915
Ni 4.230459087001758 9.205468925048477 7.42671226331557 -0.08812584640465468 0.5570922348097245 -0.2859861186226752
Ni 8.415054483144287 6.064572650998283 9.809649629577061 0.38029263991674506 2.1327362429342362 -1.9408391302781867
Ni 5.432492304158655 0.4740981258430761 10.231330525488474 -1.0670080690439623 -1.9349343347579773 1.1384328006438522
Ni 6.393856588552638 5.8243193175282935 7.961180342448924 0.7552980632926217 0.4141070173630288 -1.5319967037482067
Ni 6.189187790096867 4.735088984011069 5.878133884638168 0.23960804557876797 -1.0445867639259687 -0.9180843746256445
Ni 2.429510346580644 0.2795681030267049 5.2022225892587075 -0.9758076974790421 -0.3007563349533143 0.6851537410670523
Ni 8.506948104579914 6.344686574429696 7.138526478061571 0.2289891324123411 -0.002948026884730407 -0.27613879351495024
Ni 1.128509084468553 9.212515641948515 2.896872993216383 1.9593029934103288 0.21746416249187708 -0.9118749033808231
Ni 4.395950725444472 6.476145248551777 13.101358575043857 1.2642831581824743 2.7142555004380737 0.4513373624693969
Ni 5.769386326543458 1.5647036312428897 3.594817515998756 1.7156793989142645 0.8882629203888379 -0.06961596052592527
P 0.32124162945926554 5.283199802600172 13.021836882781614 0.021978818263936346 0.8469794882590188 -2.348511447759465
Ni 7.993138080966884 4.654915262635925 11.26967765224192 1.2722080694565057 -3.6400652687324344 2.0199308915050307
P 4.873548197333975 8.552710204500872 1.0450244220597744 0.6993606286950537 0.602867127051994 -0.1866898574234978
Ni 3.0377352940063793 2.639046274533558 6.673171637787651 1.195542658282967 -0.5409665328924554 -0.5218434389097593
P 6.375496335345199 2.9473932432643393 1.6317896691068345 0.6199269107477581 -1.8553980297945467 -0.16216384725767555
P 2.0300732483805577 6.895845121166915 8.966503949386555 1.0072749148493878 -1.8526227810422546 2.131266857477562
P 8.40578200114214 2.933355222703319 9.00756977729746 -0.15991670309471168 -0.1316551371458571 0.6230379455729141
Ni 1.252265318361759 7.669617120274421 7.307814846933649 -0.5512771707898441 0.14017474458109408 -2.479960125321471
Ni 3.371757063500079 8.475611917893374 9.616584363379754 0.7849889054888352 -0.8537564019715361 2.248789926097411
Ni 8.01697500930109 3.984498189908933 7.101706227816389 -0.5853394025808758 0.16343602910187982 2.111455993399222
Ni 5.105240185369711 3.6348314159215693 7.73948490273901 0.4708458648159698 -0.9150437880271081 0.8339745913589185
Ni 2.687385090070651 0.9382200215479849 11.106619578547779 -0.4152359887611493 0.30333309454155505 -2.7889434761702674
Ni 4.824562894007889 7.0237573479893705 10.760405049353647 -1.073597806446338 -0.6697949992227947 -0.585995548107636
Ni 3.771914533807902 5.038402583527536 6.57918709013162 0.33449255086349494 -0.39774143152081176 0.6494899691168556
Ni 2.408167014003987 3.402225109441399 4.297168314840118 0.043233099657022316 -0.603239165679432 0.4135544872936684
Ni 4.3432157929422175 6.741824023208931 2.1317888664389772 1.0184268177011493 0.22727806325850536 -0.10204142804448232
Ni 5.80844342453856 4.039846780186693 13.04404558544154 -0.3396730666231698 -1.0967626745985757 -0.86237782509196
Ni 2.7777917895915905 2.1760686622151697 13.200249965018356 0.5576601914980525 -0.07042637224236258 0.16540677967500544
Ni 3.5402687234713803 5.6100363220961915 4.3600632647234105 0.5759253083558274 1.0603820790870127 0.2875354653876661
Ni 1.1835806085510296 4.858937573302703 10.625571708973014 0.10670540917905494 0.6696024235960145 1.358491977556415
Ni 5.521208899888367 1.6328526797427383 6.253275048173863 -0.9568165010885199 2.2433756970603755 0.8927988605859786
Ni 4.369712556751143 6.920494777007286 8.308070913159549 -0.2014924696539691 -0.7713692578228715 -0.6352110906003383
Ni 2.7037781732915795 3.177579838305702 11.120393462669295 -0.022147482631316696 2.094350186956871 -0.5900334656224354
Ni 2.6649057860933327 8.499531966086165 0.9989418489062722 0.5023323654600251 0.5821651186179522 0.4484654402382406
Ni 4.239177436613339 8.214984983530218 4.542747784137436 0.06947095030762875 0.33512941311654537 -1.4486772775932597
Ni 2.31573773125748 7.0238219967682705 3.05484782578106 -1.9961425308361818 0.8402054027599788 0.45552286130565417
Ni 8.778814690931728 3.1111301291369253 2.993101777054209 0.08395011776041027 0.05915928396897554 -0.05584256089091673
Ni 3.932742224630013 9.118230015693609 12.59287099304222 0.8143933267928812 -0.9498590959340804 0.2663403193672897
Ni 6.562783847816864 6.151589907396923 11.983409406831536 -1.0769415261075903 0.1330147364975451 -0.8614907945013164
Ni 8.664524885377368 4.837677360584632 5.029324971416072 -0.7187961117118459 0.22912231555609572 -1.192967698466939
Ni 5.814243343559824 4.814154440605079 2.1676098312731704 0.010084380819195536 1.6632970286578066 0.012182143888488699
Ni 4.81784865654219 3.783338896593417 4.196492618567994 0.6122156581464295 -1.33481160322034 0.007695568872044811
P 1.1263756747648717 1.1979234019268616 0.4743992044419506 -1.9482277094327733 0.48612438824159504 1.621123737723866
Ni 3.320176573478172 4.6484134425866115 9.140388846438384 -0.25236663079601696 0.8489265846830605 0.17712226833972078
P 3.9666366558530033 1.605737134764346 4.651439005439105 -0.2785394325366429 0.6955790501654343 0.306526147557556
Ni 1.0033675195989307 4.176024815168433 1.0702014272251676 -1.5014224305057755 -0.23705828257372077 0.4160358589546254
P 8.644483763918544 8.075121968151212 1.9418599895722775 -0.6781148319423999 1.1549739928319849 0.22765370143036923
P 4.2038514967147185 1.8053910350854896 9.138631323206303 -2.4058943565543083 0.3036925347635027 -1.712340821459335
P 1.0998142621770464 4.897976200218119 3.4484803871899614 -1.2568696393272227 0.6729219748875508 -0.02978263057907129
Ni 0.7180779996396258 8.150262320312041 10.527193815013774 1.3436633971840148 -1.1088653713993808 -0.48103283265130053
