# total energy = -340854.5116025759 ev
CRYSTAL
PRIMVEC
9.36849783899237 0.00000000000000 0.00000000000000
0.00000000000000 9.36849783899237 0.00000000000000
0.00000000000000 0.00000000000000 13.71174356963970
PRIMCOORD
 96 1
Ni 7.258337303684329 2.00986129266949 8.409192607559367 0.5810975965853863 1.5392297311615362 -0.5789113875673448
Ni 9.150539633324014 3.452787945021388 3.7842350894704015 -0.9516853505095415 -0.6586474672464077 0.4748177049795242
Ni 3.225133450107441 6.3580902510190676 4.603910251081819 -1.3839158169461585 0.8229232186407633 0.2340207812989776
Ni 4.2162830362768196 0.4232424957870924 0.06475786688039804 0.7477230791588413 1.401078444768374 3.6151114270005738
Ni 3.2125702946473758 8.071279325974979 1.2700047948941764 -0.8201099175616844 0.3767180351916093 1.4175008519904555
Ni 0.7705280225036578 5.302091923541281 4.799699674656226 -0.02999011860418706 0.5684719374015759 -1.3635295399803227
Ni 4.348959701172758 0.17739250457594968 11.701067235517302 -1.421696378129042 1.499492046252282 -4.988638187402925
Ni 9.496284042163488 2.0708127389209356 6.667664763810649 -1.545077705301881 0.841129714346461 0.2856423621300113
Ni 2.4467705529496055 1.8722380609704825 0.4764874158033032 -1.6420707722891783 0.11891249276820812 -1.6786884235122121
Ni 8.60261367490685 4.527082948571889 6.421675181983283 -0.0436565603476861 0.5847735027750768 1.169743694941992
Ni 7.479040373280327 2.732509733808674 5.558768150732775 -1.668433321443107 -1.4165099488320958 -0.5635233351470489
Ni 5.721491461558262 8.096611743845239 12.313022191691228 -0.3469837413519702 1.9793388290152816 1.537417617653462
Ni 3.472443053265399 0.7483584094680873 6.565539706872071 1.0413656858855098 -0.3811061369569759 1.3851509749048403
Ni 9.015005576619485 6.078983966555022 8.631336552106713 1.6434560826724793 -0.023079250416966703 1.3033510707182134
Ni 0.46850732943426204 4.503343175316253 1.7255817237572355 0.8912736821907037 0.4259945128292341 0.4975058906056593
Ni 9.208886637205664 2.725577045486192 0.5482294977437155 -0.18997547015330507 -0.5669539580951527 -2.8122394705837306
Ni 1.5455117025291705 1.1043210387850353 5.280886328922444 0.5573218343220272 1.0961214414701508 0.5902468671848222
Ni 6.752513374079646 2.386315637078013 0.9086028157933996 -0.9154762475788362 -3.7008201793233044 5.548147259184257
Ni 7.504597635096181 4.913327373111485 11.097435252729445 -1.7025611163647516 -0.47119193530147885 1.4771900403209721
Ni 1.994197164459773 0.34642737232421494 10.902783164779834 0.26708979593880455 0.6757453032689589 -0.6738678837405878
Ni 1.430213600928103 7.890879533626709 8.788911873427871 0.41299270125292753 0.8911744376086781 -0.32038465070720307
Ni 7.9604125238016605 9.00338863943046 2.0306677892848963 -1.5332524305321789 2.5420589515347447 -0.6624809820598848
Ni 6.548664231905467 6.294871628316216 9.40832602749688 -0.6462035850561 -0.43698289351993774 0.9930384595350316
Ni 1.5090120353610743 1.4739738538393394 8.354647340057804 2.6347014548628302 -4.274986081785864 -1.4009154368279486
P 3.311154996292621 0.1465055043997443 4.518183812575232 1.3446771831605098 -0.3818712972577746 -0.27391504639075404
P 1.7802394132315955 3.9378793891427555 13.635547721726848 -0.4830213238362391 0.959160061620032 0.23387448552910045
P 1.5115040557580748 3.413065514633111 5.450651002644117 -1.24162479735301 -1.742962917220566 2.2347750998755576
P 4.662326581846692 7.255798440798664 2.909823543003666 -0.34096170352760635 -0.2984819370968408 -0.2140744200840378
P 0.6831930129363002 9.025057974687085 6.962562588053581 0.7681057565802514 0.17822501448559627 0.06006585494364495
P 7.951578030439362 4.284429488787274 8.981617187548546 -0.6217058570250518 -1.1345144394260527 0.33846516235799773
P 6.265548230411661 0.20543148144129744 0.5059672676199993 0.31646423260687434 -1.3866728108660054 1.5389451100415819
P 7.053860472162033 0.4187334378281589 10.801782327569228 -0.6411665368528249 -1.110843578171674 -1.9958393977734659
Ni 2.7359292354812497 3.955464059387755 3.9601295712588307 1.086158159609852 -0.15862678063869454 -2.3701580794949635
Ni 3.6193598347156253 5.929706323676058 0.6841036309159558 -0.340295273588201 -1.0590060246750923 2.3266606704329607
Ni 8.963516313078454 6.15694860468975 12.519809294754502 -0.17646123771695416 -0.9436874199057297 -0.2434091644924131
Ni 6.596171883909937 4.689663858231832 4.148392343754478 0.9602692355238106 -0.16815348918220718 -0.5723411905489949
Ni 8.150405657828609 7.032228610896341 5.273989240891348 1.1220435606525516 -0.15514370718610057 -0.5605596245330347
Ni 5.443368869356191 5.112829532337513 2.072736091505538 -0.09937750805907401 1.1875485843338967 1.5980938524875963
Ni 7.9002011888711285 8.136025013808325 13.47926056884399 0.9660498467613299 0.19202618203474672 1.026163781334091
Ni 5.424585031401357 6.9249124693638615 5.008982545515595 0.9830373824582618 0.3402888458302978 0.7321555637378875
Ni 2.1151819441848225 5.1527299641827184 11.78320085514325 1.2903983672122874 0.4273366286794253 2.0296293497397175
Ni 3.634415010572692 3.1226420849075005 6.96283708503716 -2.0112277073040783 0.46628292803563565 -0.4820931555950149
Ni 4.712878995614414 1.9644709211526967 8.555223129124045 0.105257878099251 -0.931681396583789 2.1054218713899995
Ni 1.5664221894694144 9.401287475150014 3.3414695812573347 -1.1308647584886071 -3.4813438714974043 -0.530764395548473
Ni 5.121776447672609 4.82352095384214 8.091163025563677 -0.18926481723952565 0.15633541350135655 -0.4301568717370398
Ni 4.083924900303805 6.31988551726355 12.471708616843529 0.11607862286383878 0.6156318829168301 -2.866193299092367
Ni 6.507611474839091 9.239484150801916 8.789803754412059 -1.0880366075794874 -0.8407165380684425 0.7827453608702971
Ni 3.131860686676855 1.4154113745098298 2.612306286794564 1.3489945795889413 1.5251215738949282 0.10550778932652796
Ni 5.5034209398252605 3.895430725914151 10.23715983249216 -0.32078574280036365 0.9220271613234766 -0.9278558521901117
Ni 6.005029045450056 7.347525402103291 0.9999606582873437 -1.6932346967575032 0.5542092568349746 0.4255160305309188
Ni 5.631713147782116 2.7034767593338462 12.168445660974726 0.43896007185096664 -1.4884578999253075 -2.1859099987437385
Ni 4.724111824396383 7.91645553243803 9.738491561456007 2.5454800614011517 0.8478837452408431 -1.3667141083558914
Ni 8.757503047927932 0.5203788276828027 4.7152492255408855 2.4746441124251963 -0.1706214911067255 0.27608762856204067
Ni 9.206254089342666 1.9822148558591581 11.705002004565195 -0.16987381430742357 0.0854369867185819 0.5612705345571302
Ni 1.2460383039934004 6.556758613946851 6.727749624021784 0.4984967937640189 0.5450422456237257 0.0254660054815884
Ni 6.735162916277974 9.311630951844398 5.015563915173086 -1.0382325395731666 1.3753134199891281 -3.712575777197335
P 2.680973627778978 8.603569261675625 12.903079221263845 -1.8820871090499585 -1.037045204133285 -0.644232320262342
P 5.686097277122669 1.8633379881240524 6.7087718581638764 0.5484597559457071 0.2020912795802326 -0.7688894288238113
P 3.7356135230854672 2.1513443454345276 12.297322463190126 -2.770607139754925 -0.07555418038723116 0.49450284211327744
P 7.752769140045583 1.4555085448074303 3.201760921962943 -0.028917197254982454 1.9302857802423725 -0.5911416110849497
P 7.424169082057653 3.2212267865527453 13.022535999008628 5.52508600648942 1.9803348743799638 -3.9543335221292546
P 3.0978905138966915 5.299496849669215 7.407028478605202 -0.49389914709100746 0.7352768829756885 -0.6691455385642541
P 6.455494521949944 5.125252160331583 6.248153740670644 0.6000196303008699 0.10937987068742451 0.2997770017591805
P 1.0617505850859006 7.380699252576142 4.507228291326163 0.2890336471997474 0.9061459713168458 -0.34837213705906456
Ni 7.929562060766615 9.006480243682379 7.0684172439397 2.9008952213499266 1.491243947310877 0.10060289582574287
Ni 5.116455140960217 0.14762035562998133 3.247873604654957 0.3336361164004706 -1.6624444508495242 -1.2643590057257321
Ni 8.846766094328759 0.1299288845108251 9.716923405974901 0.937968000923449 0.08883701353906634 -0.46362080782244025
Ni 0.4619297071758637 8.334206214853989 12.036730203946203 0.08566658623088472 0.7308818392317863 0.24771396251535402
Ni 7.333332128037669 6.773592493979086 7.416970328399551 -1.4814763264011517 -0.024603400370976983 -1.4943976624485102
Ni 4.6576610699756165 1.9204764557981333 4.70104377242821 0.32583178986470335 1.2972632126529207 0.896310987504295
Ni 0.6520614949692612 0.24439600036296802 0.13988197650245376 0.21729112724912256 0.26905437586434305 1.6123588470470425
Ni 0.716581402007239 3.4311373467602304 8.655839857927596 -2.0591096185870215 3.2245451730719625 -1.076250927798469
Ni 4.531439300017772 4.589289773519568 5.451555999525133 0.2862393722840619 -0.03516292105437815 0.07124886814365794
Ni 0.6459195078554513 1.7527616093804597 2.3071518312334516 -0.3524344800538963 -0.008392594939069416 0.6676987788153984
Ni 0.294251397899349 4.526183572789512 10.86935355431887 -0.8026295013887338 -1.4588336493009713 -1.3013672075189653
Ni 7.026869830193017 7.235318904754141 3.187377467393339 -0.9986426930956865 0.0741992090212335 0.047810177504743465
Ni 3.60764921254927 3.7029736769834023 1.261477588257523 -0.30542931494895137 0.17929922138638152 0.12492424617992678
Ni 3.6302085550905367 7.683667100766352 7.258352293280702 0.46776491189780084 -0.6058763461919631 -0.03909105246419074
Ni 7.485476531222956 7.5063589126700005 11.289056631662403 2.038918231240811 -0.36648735860253656 -2.8836405480345366
Ni 2.1723485173521024 5.9773545031465245 2.5220698534792696 -0.12374410982889657 0.4875104699558443 0.5993112913799356
Ni 1.1729359161821442 6.395330029508077 0.32728565775597723 0.9394409859245497 0.4596402259081374 0.4669969233835247
Ni 0.20921729137523679 7.645321839544839 2.3559513990753134 1.5100320265516574 -2.0533385204311996 0.14647960375319935
Ni 2.9194393690769034 7.506246490697204 10.758795912570744 -4.057423960263542 0.32019053241852596 2.0639016406590263
Ni 2.057481366646757 5.1954503138455825 9.441865249381323 1.1181707079607064 1.4187905173361566 -1.2740325242597543
Ni 7.368398415052603 1.0295135843863579 12.672721914753906 0.4222908387254018 0.09277722913373698 1.0802723902530362
Ni 5.825894000295752 4.192393367057455 0.09072172149786766 -2.138940314862419 3.8687715797970332 -0.5193181013847443
Ni 7.857368417235468 5.87898527694914 1.092305940442355 -0.6214356340828008 0.29908100413342037 -3.1565623772740863
Ni 3.247083840296058 3.0434033310810737 10.36610502474101 -0.4527198446392203 0.008808085209933217 0.2266165184151065
P 4.049832937053112 5.866019276086552 10.23725632801881 1.7181828820624088 -2.684814055248505 -0.42778245796759234
P 8.413875919576135 5.678396371986074 2.9458857013276267 1.3179868183535173 -1.642231980457391 3.541562192858514
P 0.5956397173717615 6.9268611168923435 10.590649178407576 -0.3304248085520245 -1.8916356719703422 -1.2638630399259199
P 3.340881239599697 9.431172982918554 8.822300262498809 0.21893509061044877 -0.5538076505211816 -0.25082576867145834
P 4.771675687387251 3.194451620031591 2.9520286252912102 0.3508038864290087 -0.050110543503145956 0.7206709601370557
P 1.22699214810204 2.200341588578558 10.214645458740012 -0.34115710736786403 1.2181573103586893 1.9489291063751726
P 6.021086650564562 8.472382187919248 6.55980805995897 -4.145126345977531 -2.7719469416122715 3.690780535699115
P 6.144975664586868 6.2130659061109235 12.813185674965583 2.5186372301766946 -2.8282489586381097 0.18876628033655232
