# total energy = -381172.1167467005 ev
CRYSTAL
PRIMVEC
9.21063959409971 0.00000000000000 0.00000000000000

0.00000000000000 9.21063959409971 0.00000000000000

0.00000000000000 0.00000000000000 13.48070207167818

PRIMCOORD
 96 1
Ni 3.0232450158516557 8.978079974793644 12.184801848741252 1.4572609054972128 0.04844781108874237 -1.748122092824002
Ni 4.3467954776802635 0.4773054658900365 4.994829355659926 1.2094019327635623 0.7179473905583055 1.2999147913431548
Ni 2.2779661280532046 6.573743874045702 12.227401056008974 -0.5189923426142093 0.010413996244472389 -0.8851007206107724
Ni 5.541093036679042 3.0981367248881657 7.744717330868467 0.41686066884876594 0.6544917932068213 -1.7354239285310433
Ni 5.869811546555318 6.511839166576217 1.469005800443227 -0.3904302425713792 1.5008493316111249 0.843616999544689
Ni 6.807261214988099 2.5052939193125954 9.605565837315238 0.08929672678430428 0.49557293524900453 1.094953903524611
Ni 5.820083304384845 4.4488862048922515 0.570090684106872 -0.5418229673554797 -0.17243771837985788 -0.5626244774818634
Ni 7.9890046724720865 3.332869870232583 7.589486740648824 -0.21379288428787696 0.5027545405991083 -0.46385297843790435
Ni 5.631873098696486 0.8070693833392614 12.169043365775988 -0.678882820456676 -0.64730735964324 -0.4626173062585904
Ni 1.6631098942895566 4.111380745019563 4.603093493073528 -2.312851275353694 1.35667857849676 0.8101335230752628
Ni 5.576286889861738 7.552042728258452 5.936981976575064 -1.4792201833771235 -0.4700747909779001 -0.34583600090077216
Ni 2.8762155789619976 5.9374452717373485 5.355127463814714 -0.8785629194922546 -0.5136323638538767 0.24006827304463815
Ni 9.209138075013776 6.176387679291787 7.831734846687239 -2.3344855657940182 -1.100538082480608 0.6760918879751001
Ni 7.140419253059629 4.65026762493582 5.587225445224147 0.9208256848162076 -0.42438988734627553 0.08951064256732326
Ni 4.453675737385055 1.85138457445378 10.123602592800806 1.1916824039966123 -1.670792051483271 1.3628847073074721
Ni 2.069428041188659 7.0260507435151265 8.62657065876315 -0.755640534233705 -0.7493516159011997 1.2575635800704534
Ni 4.3078252623397795 1.1258164549910974 7.5106114300678195 -0.15231060861267962 -0.010124232918195468 -0.008252984037411593
Ni 7.148257507196889 1.0216349126332123 7.752387951368481 -0.2387212720984405 -0.03255659377978264 -0.36342826006123863
Ni 5.048111983578423 8.38481347980525 3.0512490439115014 0.731590692373353 -0.546432183992717 1.192780007936165
Ni 0.9968859245405911 6.91887574334924 1.0702772204173363 -0.7112728067516072 -0.09677426610827204 -1.3868643580515212
Ni 0.8873051053610109 4.2400533775666105 2.007896364615248 0.02613860606858079 -0.13449697747002645 -0.6539212654153319
Ni 3.0547638239100663 7.908264207410711 4.485366784400418 -0.8474718545144049 0.21978458309493762 -0.8052373713252261
Ni 7.717843448264135 7.6577992899553164 6.618607056480215 0.7995781161569198 -0.24719511389740653 0.0587129404601763
Ni 5.335962886395913 4.632306878087807 9.806995152683735 0.4285517320334491 -1.9260424315849864 -1.0491602422292643
P 8.81227925478796 2.4760685604670845 0.4157111569686427 2.6666021602261685 -0.9987869319830347 -0.8797029466339689
Ni 3.317294678991562 7.15357204613602 1.933402555201217 -0.17498722427458896 -0.12920924670852585 0.5205216347745423
P 6.752835546718916 0.4115543954032538 9.960877305293867 0.04156933880135421 -1.1658839548762694 0.4960658157250231
Ni 9.11075923548371 1.6175080185744217 9.40036292298078 -1.2298720276924562 0.9607654584339388 0.5894235999525784
P 2.6481877791075052 2.6803421212851535 3.7204848927472876 2.1395267834935088 -1.719059371130091 -1.0761650529528821
P 8.671909110191182 4.488335373482015 3.814418677698455 -0.5350136577431303 0.16898292706203802 0.0018295970095710426
P 4.730648875060235 5.178157001397448 11.714958842900579 -1.1147280008277447 0.7257018376927437 1.5220740453178558
Ni 8.571153925693533 0.9164982269685892 3.2148640791853733 -0.4510684250787264 0.21802466298103743 2.034639658470115
Ni 2.761699699186948 2.6487404174720597 1.5367868958558055 1.8008482195731244 0.7926968156560542 -2.258713612969026
Ni 7.884159964076736 1.5249226712327668 11.755630263339949 0.8548334370857988 -0.10781921106852399 -0.09699203854603296
Ni 1.5586059795523481 4.721926399539687 7.046875078155472 0.04628474199915254 0.5115412856528029 -0.2859778910925591
Ni 0.831292443921615 3.9967911801292386 9.324574097665808 0.3755882924625403 0.18491039692557187 0.47283769843501794
Ni 1.28656053396111 1.6689310183961947 12.430137361109642 -0.16436316890183952 0.8002743708929959 0.12463808239807568
Ni 5.691410671837797 8.428702176590265 8.200795957175975 1.9264802904533531 0.37510466795790237 1.090733180575044
Ni 4.753435996958689 2.790003994091535 4.435420250075946 -0.0866870570755991 -0.60176360957517 0.10508741395965772
Ni -0.03410699773240639 6.147134688528049 12.297675471509635 0.5913668397218782 0.2739261021343476 1.82111828267607
Ni 2.0495606919829337 1.1370718563491857 9.001563421031436 -0.14474719444312492 0.06412177018057344 0.17742822961591379
Ni 1.3812459070880714 1.2305045825164906 4.7024458971891505 0.0711784199170387 -0.3913504403928034 1.1945432704841752
Ni 5.391245144130156 8.81736352774186 0.7729402800722728 0.48785756888261783 -0.34361302510752434 0.0158747622487275
Ni 3.8501670113735877 3.140321453382473 12.90585767595735 -1.008131092202096 0.49451724029098054 -0.006970517780562189
Ni 5.105660058607339 2.6272427850908993 2.0384167393616974 -1.0592222544509564 0.3216977130916718 -0.8262270862030159
Ni 3.7386261681277215 8.043181653477221 7.289514636368779 -2.1081966059216595 -0.35011663055399705 -1.4275312396432642
Ni 5.054144952391474 7.618792232057196 11.40428305456306 0.8249091387225406 0.49935605644052067 -0.6246729100731758
Ni 3.033229348971269 5.28092010528631 10.040008671650448 -0.8848911757031277 -0.7631167880060922 1.0387981822686496
Ni 0.645236606791077 8.672259114488734 12.320040746123144 -0.6065980548493359 -0.7358633516067778 0.3804435636723125
Ni 6.1570177046141605 5.539619334373564 7.4795513118519885 -0.08278669357992839 0.916267376021564 0.6718104869909269
Ni 6.86222110034302 5.6224690358596545 11.821132646562683 -0.5339831595960869 0.34538348674438585 0.7099497170648095
Ni 8.372462012357461 2.6507114943056362 5.096432840047165 -0.0736505356066151 -0.4153113220837751 -0.2635007930359656
Ni 6.7966045051916115 6.559835808537753 4.23314263481786 0.49202686976895904 -0.12848650960988842 -0.90152338494317
Ni 4.797223376710204 4.876048028774458 5.498562909206887 0.8980457108072147 0.25136595744564455 -0.07865210258626455
Ni 1.6784179769877092 4.059147208929777 12.054955780733467 -0.39911800015336424 0.8409847041281645 -0.054518699873170616
Ni 7.025903373284579 8.91254627539692 4.590138728744436 -0.8307887374317693 1.3109929035341874 0.9420928217251001
P 1.3004593888296494 8.550991836026713 2.487499885037889 -0.8281140188130836 -0.7565859288661099 1.9610356598307193
Ni 0.007471670688773445 6.261245300169093 10.232863802792886 0.49921978797297245 0.19970940961161734 -2.6402246986739044
P 1.4794405338299519 8.021297174240873 10.486044937810064 -0.1860357687792667 0.05959997105081994 -0.10165010614333461
Ni 7.886757364390141 8.185983406878039 2.4678849073519773 -0.5033289250453397 -2.3499926602906815 -1.0525497275267874
P 6.254033369511659 1.7343541901200086 5.772719433350723 0.09440679431736 -0.11992884984786444 0.4150007328218917
P 7.390064423607601 4.68046931155871 9.130371449977801 1.4126437810084704 0.9617121386179244 0.5255869651125916
P 2.5416851556184925 5.195500635405042 0.5709739844262179 -0.07369758679446663 -0.22758839541007256 0.2582606276829488
Ni 8.951488858819175 8.563555148180912 8.80939632465287 0.10336837438602199 -0.7451807723529618 0.25307496971695126
Ni 7.794172017048487 5.503043885279482 1.940870541634227 1.5455327905614284 0.9822123154538053 1.4897593923455505
Ni 1.0462273198558762 1.6923628850532948 2.270082741782838 -1.8564056451234545 0.1820258762889252 -0.9547588472285429
Ni 0.054766461927326066 8.002940369898264 4.393724606534269 0.8437872065739662 2.04610215058376 -0.5871975388355372
Ni 0.8866935189042376 2.630687564229954 7.409600189794594 0.7358633516067778 -1.932258073477395 -0.9273976816067706
Ni 8.848679701733266 0.5650653592451921 6.287211013727674 1.0376717819736905 -0.3520642411986711 -0.04922531268471522
Ni 3.6609712672684402 4.562333650495829 2.522144784111795 -0.3849903025027305 0.5942140793626863 0.10705122255424789
Ni 7.734137069379076 0.0642276307284948 0.37015441338661315 0.41816267548964114 0.08470730764140896 -0.5514553482389213
Ni 4.685479899397335 6.723131234624124 9.32151432325406 -1.4974757871532016 0.8499174878414202 -0.8647247280575817
Ni 6.171321827616707 4.252487740769081 3.323734758066501 -0.4008272695349871 1.5730374237396008 0.35571443635674865
Ni 0.18092827417141552 6.00447109471837 5.171776791478668 -1.033764219389168 -2.1709274092919775 1.3768475972454675
Ni 6.781231948017594 2.285610958762872 0.35698780435110816 -1.7049445289952636 -0.9759799613908481 -0.49071380738449033
Ni 8.249297342177137 4.490195922642681 13.498496005338033 0.108151140486646 -1.2577738963090466 -0.5414786966421836
Ni 6.856040761299422 6.816471854397337 9.803773271018384 1.218300777915089 -0.10402760523657568 -1.4660463649993267
Ni 3.4788400835901783 3.111925052083794 8.690037490676444 -2.376551384615817 2.4838589461552445 -1.3992316213676226
Ni 5.834811116800215 3.1704770868083165 11.854080024793467 1.5978945919925964 0.9981487841784036 -1.287698451782621
Ni 1.480637916953153 6.138624057713914 3.2090272969917395 0.2806089134711619 1.0509253045494868 1.039236812467965
Ni 3.0149001765468864 0.6103688102434676 2.9578006596572 1.4735053923805332 -0.3002228310473475 -0.13624661317128148
Ni 3.35416486854674 8.690017227269742 9.610635373246083 1.6596879711503096 -0.24765765535612186 1.1003833020702984
Ni 7.851066136679346 3.1461886306861575 2.2406547488703246 0.7892479378755052 -1.0122070620436825 0.9132332171809304
Ni 2.1536409173073174 9.31057484682771 0.6951030085526888 0.0023957539256861966 0.09382238256879971 0.47548053537450374
Ni 6.465960971678805 1.0466602199081105 2.5792489063211854 0.055712205960639534 -1.2133730015961683 -0.2642582400272804
Ni 4.229801935904129 6.888259577952934 -0.15675126678610807 0.18944659423302856 -1.4463915668828766 0.043558087096608855
Ni 2.9934025441657264 2.8909249700985495 6.1932228860039915 0.4906436162681872 -0.38457841177629254 0.1302762545204595
Ni 8.314223139372853 3.857130254766971 11.069354731597075 0.29463530965724094 0.11401094170153268 -0.20602121076225807
P 2.1619120714968125 0.6711433722574393 6.964494198215311 -0.15018096386418653 -0.28382664907751115 -2.2523876707509984
Ni 3.575478112271898 5.584585675969461 7.586372623464561 1.4479450274129255 -0.9449966256354564 -0.08613324145465812
P 8.045355364377802 7.073807908852023 0.33517608916609287 -0.931667255516402 0.5547970110176446 0.5118619022170152
Ni 1.3037567977381563 7.437757114468632 6.534231152044014 0.6997768902968657 2.3704308735403754 -0.768716907801689
P 4.757737365562803 6.158555881395503 3.4530143717506174 0.11999981229511592 0.9015611801596409 0.9678205655085074
P 2.4229600136334213 2.5298310626988036 10.597691703409136 -0.6024979166380333 1.2266679189328618 1.2288016774464128
P 4.120922967447532 1.1978160232531068 0.4104656978250819 -0.7148664376401366 0.5157620086023698 -0.20956753335261968
Ni 7.658213768728732 8.232635295485828 11.528992348972311 -0.8182746641251585 0.011307197482703106 0.10015038166935655
