# total energy = -340867.49817470834 ev
CRYSTAL
PRIMVEC
9.24873746651523 0.00000000000000 0.00000000000000
0.00000000000000 9.24873746651523 0.00000000000000
0.00000000000000 0.00000000000000 13.53646215895458
PRIMCOORD
 96 1
Ni 2.677565005146297 1.1098300052073027 13.183417752876213 0.9770284572600206 -1.0816687563799308 0.3698025390186986
Ni 2.987388463407597 6.078584756766083 3.8052617214992814 -0.9496240971051387 -0.38831551022122157 0.42441816948104966
Ni 3.7811891074761013 9.139972369090025 9.997069523014009 -1.0131239174309972 -1.0546888853569771 -0.32708803086930766
Ni 6.074385829930935 1.5803132829693944 6.16181137110848 2.8021394060352516 1.501293361127079 0.3545970349228538
Ni 1.2887190863646523 1.0090742586387904 6.6859835701878305 -1.1475049381484494 1.2382548524395127 1.4599075990914405
Ni 7.535621617300035 4.72496727920708 8.085640338259353 0.34288308892003533 -0.6423276470404615 0.4300748535461948
Ni 0.6850438146694043 4.694353958008092 4.3070723229970875 2.2141769640092317 -1.182244912732796 -2.032033074085204
Ni 4.591526494234572 6.331491484314824 12.921216044117507 -0.20564634392134257 1.6378443929126567 0.926970878481997
Ni 7.802715908208064 5.119416685797908 3.956816158909317 -1.7203696053010824 0.008985491328061944 0.683399734490423
Ni 1.7369591503854855 2.4018971345550466 1.5091257502598443 0.43550373787124996 1.251655956336767 0.30834108927910764
Ni 4.3979874128418155 4.910681928655927 11.297788846313914 -0.7438682241891253 -1.9162799528815835 -2.112825620053239
Ni 6.187645869629669 5.79646126738423 6.57811184496962 -1.6868645315651012 -1.3180914622521815 -2.0322852993053258
Ni 8.94105977119678 0.05739119094745643 3.5488136523532323 -1.495251011587741 1.5285804789778061 0.962157453685459
Ni 8.70591061969096 4.513772357884151 11.957258051986509 -0.3489714612059603 0.46683880053910565 0.5850532387990247
Ni 5.149937519621674 7.322170004021653 10.254830912888231 0.03968112063970585 0.5994218488158709 -0.500626181402196
Ni 4.079303664034103 3.2083500515541297 2.3990938422120216 -0.47901451666969114 -0.43705051353307955 0.9489800357632366
Ni 2.0211913519224347 5.286569119039393 1.7657365971862864 -0.639481178730602 -1.327405797674572 1.0497590521555276
Ni 4.88731036893694 1.7467628121591796 9.904209423668329 1.343667510949073 3.293245306651838 -1.1220422751009709
Ni 1.4101180150830566 8.017221877563996 3.0512001279430705 1.8147020947370813 -0.7726743497875402 -0.6312917009412741
Ni 6.854396606353611 8.708528012409785 6.372316336612241 -0.14092010738755087 1.3879249381055516 3.948229209003729
Ni 8.597515415928983 1.8429219361790825 0.6761437545516441 -1.06707131818173 -0.20700028684607577 0.840146010276953
Ni 2.6187152882915656 5.058661729013573 6.406591232996328 1.477701689850068 0.11965374180960683 -0.1541612886681732
Ni 1.754346776927509 7.9479950772091845 10.067729877684785 -2.782265292819144 -1.1632935684412742 -2.511223968431759
Ni 3.472817701005811 4.330712096104222 8.74711282047929 -0.8236608681377362 0.7827816134248713 0.5857536073001589
P 0.3473548351270077 7.417274771964008 11.953074848005148 -0.18528526376648735 -1.8406491536201464 -0.6126424612712029
P 5.9371345650992176 0.12899306709800806 8.674814514393304 0.8938748672589766 -0.7823180435248913 0.7561652963889235
P 3.24136804450893 6.513497390017206 9.601737786863549 -0.36244095644730484 -1.0144981720707043 -0.7302267221462908
P 8.530545307529627 0.7470159053116822 5.767304622345013 0.6104660224451744 0.18215237456446048 -0.4740440600382933
P 7.179277009301301 1.2889780510152782 2.4023161023648094 0.6729561705595958 -0.28909432523435374 -1.7052836575022374
P 5.07390364845041 9.173101346895093 5.034345873193554 0.2550968852429865 -0.7327600300911058 1.0004509499490188
P 6.694106736353713 3.7561620237406146 5.473833856896985 -0.515778206552286 0.6834460143473262 0.03487547172094639
P 7.920535575505318 6.816476782511964 6.384581087440633 2.2425904821549185 -0.06257396607747934 0.24599363739013763
Ni 7.59621009680897 2.100906220627594 4.27593829787559 -0.22104159543049026 0.7885401131752033 0.25477961111288383
Ni 2.872223183779259 1.9306277141035553 8.893198479392357 -2.859525400153888 0.5269599342007182 0.9478196969065482
Ni 4.230613009899796 7.045355289977631 5.673198718055072 0.08859198740779582 0.29322248847011434 -0.7432861264334102
Ni 2.8013408594079463 9.050925524224812 5.595959736384646 1.1043440864902594 -0.13216190157894658 -1.1885505432358499
Ni 0.2802959388474358 8.147416355666158 7.607924547754781 -1.151864757779042 0.24757332317243166 0.06479257099535292
Ni 4.869599036581635 2.219160578588398 12.240779025607988 -0.6128607479295961 1.0912569142889978 -0.29013253669088096
Ni 9.150710153353478 7.078826471071026 4.486105684459785 0.3225754877109348 -0.4858806476619052 1.3209309885835057
Ni 4.68137797926423 4.666228547202617 4.604792883336636 0.031035529149565904 -0.5536276732998917 0.22405878499025927
Ni 6.09209716228624 4.060787691514352 2.758013298736979 1.5752449729138807 -1.9516336497905291 -0.4291513132906609
Ni 8.747724162029517 6.675942215859811 9.893569676022613 -0.11793161691217754 -0.2782787226760885 1.2330298565951474
Ni 4.759344836577665 3.6772055515122877 6.784704594501425 0.8708256987489971 0.03290137871371108 0.555605880072185
Ni 0.8970008319641746 3.5351356944314247 7.849252780799288 0.976405221853725 -0.36650715609687845 1.3360207930370924
Ni 6.686421035472637 0.5690378248002842 13.385070751697329 -0.9182502107795476 1.278600603246411 0.2787932004186618
Ni 2.482250166149249 8.029254485080576 12.06388489713421 0.6962796757768847 -0.5799164317930916 2.3514239934205694
Ni 8.163324184204605 -0.010759981233505357 9.871830518476324 -0.07929667814879891 0.48382376513287645 -0.34957181379412056
Ni 1.1610680110811378 6.017154642142614 8.29680936311722 1.161124071593781 0.10091399930825846 0.6769904885299696
Ni 0.9377387461288824 2.0530902476370296 4.366091291748478 0.288131189990136 0.5544488836496064 0.4932666557133311
Ni 4.187634126633421 1.907848073586 5.145507374348466 -3.071570191402407 1.4615837012422828 -1.312671576788191
Ni 2.6803488751405253 0.8212083528422449 3.223167453938691 -0.6800783834266739 0.9100491630259939 -0.3601876416367539
Ni 8.887074890278807 3.1839333844951185 2.524428108746187 -0.13139339884403825 1.4391747374194634 0.30164593664711925
Ni 7.033276438773438 2.1745169225680008 8.360498019443646 -0.0859748614999229 -0.4594985581239505 0.7784228222355433
Ni 5.698591126922692 6.226296343735582 2.9523570202941807 -1.5798976411945436 0.8707123130995843 -0.26579036040109066
Ni 8.466830754738137 2.895289535160007 6.502496941608119 -0.6372420049874381 -0.3403736922346203 -1.2254597575573734
Ni 4.020694414354952 8.200716830007476 3.471858606924743 0.2641199146772032 -1.2897663900552434 -0.517935876325237
P 1.308862836688337 0.2972461001046519 1.416861269610604 -0.6116942384253207 -0.31674345441019 -0.21018176989785092
P 2.842849193408266 2.5892765567579166 6.805524427537994 -0.5901725623034609 1.1029469490324166 0.012848059607261743
P 4.449539875791411 8.539257618275682 12.530770416000106 1.6605174090301402 0.8339892466469377 0.03276639579774356
P 8.781019617109987 4.394167684245084 9.771214427844399 0.07234621497289474 2.2928270097129673 -1.1705384229291453
P 0.4560552472272213 4.0724318520549945 0.46784461294696456 -1.1918569819012634 0.15954929245296393 1.1486341666568864
P 5.758791159455687 5.093085530071771 0.8434191960021753 0.22081739523482616 0.2053290697912399 0.005505246088945357
P 1.760275217679337 7.230311542949644 5.910709997124103 0.27001879666014145 -1.2529523065506871 0.2335268723816946
P 4.4889764925867235 1.9860184031249266 0.7668868178784575 -0.02083287758495122 -0.47734201406327464 -0.37746108400522094
Ni 9.238240205265026 6.002874591408101 2.2347077063634737 -0.3459429587922816 -0.5124807667479369 1.5662543393794963
Ni 0.370268582338637 5.302291972827392 6.319334943715442 -2.4103163968814036 1.1501606306037415 0.7674727509819428
Ni 0.35962421032416103 9.342889670330448 12.771178399661139 -0.3646233088106043 -0.8896076073421906 1.1737813553464753
Ni 1.6917328239011797 0.7881413415785766 10.960338484199594 0.33096422599526226 1.620452165578138 -0.6207617479442277
Ni 2.6732458447233585 8.123378886845561 7.916718621529843 0.07288588952644867 0.3943141510068177 -0.809661982755483
Ni 6.771250456027658 3.371100085734974 13.319351072610996 0.04546250320817332 0.1611703729961547 0.3665938022734138
Ni 7.039399103013236 7.232004061916235 8.355449133630193 -0.06517823646954582 1.1931150226780807 0.8770045738661995
Ni 5.973509849774632 7.64349889176076 0.8820955665731508 0.9789958653990366 -0.6934748593382379 -0.05911403255333691
Ni 4.162403570672443 9.079633605494195 1.1667236140760566 -0.4277845148501213 0.12012656768096731 0.030779961495334084
Ni 9.161993613130747 2.460339906958795 10.19466140118906 0.011465834547754449 -1.042480001995611 0.48012960411074085
Ni 0.8231829583032672 2.320286274657805 12.628301127794575 1.2992720155528332 3.175536604383744 -1.8428939837902647
Ni 4.664397297173191 6.8109182912610295 7.895100622445096 -0.6805054436617635 -0.3791510701131341 1.3439282208096275
Ni 1.3444704761493957 7.305429789106195 0.686500490829175 -0.4151300593109044 0.8785217818416742 -1.2246861126161426
Ni 1.5215468047523641 5.090329406290109 10.565411842752612 0.7335385601283432 -0.03704008347243298 -1.4028609905900935
Ni 5.88997525247274 0.2642438300036401 11.202979113098523 0.539446239593187 -0.3627330337664269 -0.314298078193491
Ni 6.82125837981102 3.2653130259543017 10.798320025156768 -0.36912762443886105 0.15192674291069963 -0.11456784264626721
Ni 5.063341590199883 1.0405292149523124 3.154347598034864 1.828058204329013 0.8164643503892971 -1.2969544231632504
Ni 6.792864755617397 7.608769882364325 4.619412362738219 -0.8969889874079261 -1.920381119534151 -3.083349186315206
Ni 7.466135852294598 8.045486019432307 11.97840159083636 0.7688467485113339 -1.7271030673701742 0.5360336143672123
Ni 4.30999492405415 0.9315235945138612 7.476458368243296 0.1118383595302461 -1.379721833469469 -0.40133120575459913
Ni 3.586410695255349 4.526128671214015 0.5642562275012278 3.4307715578664917 -1.59119995358124 -0.9166062474182214
Ni 8.18885994850382 6.381212697234992 0.31299947472647566 -0.7011997387863215 -0.1749358022113632 -1.9300314981397213
Ni 8.2093736483284 8.761440039775167 1.296311374996752 0.7557089255777953 -0.09678506474154945 -0.29689685199790805
Ni 1.9449725060007246 4.9233896940116395 12.73150316543775 -0.5694929224669224 0.5011121198996789 -0.06787300969288955
P 0.7695310319360981 0.9896796560544163 8.973794752783398 0.4370119469856603 -1.7599710217427882 -1.6436471156373629
P 7.522571648655996 7.223800431733908 2.5547094002681225 0.20752530611161035 -0.16374481859155027 0.5515617919097985
P 6.320365253075432 6.0823027492500685 11.32214077221027 1.8947140537853497 -1.400846017042594 1.6573282126688813
P 5.529209747938321 3.7147461771155177 8.939912927744011 0.6527295591000758 0.0937601618722966 0.293131728528521
P 2.443803164268828 3.5822950070579025 3.601362204333985 -1.0561405302018392 0.35702544185868834 0.4661343182729133
P 8.14628800968843 1.4816477510809338 11.840709161224826 -1.879516777219621 -0.5338036965954291 0.4450399594964593
P 3.2619002418085534 7.048462865785141 1.7173435029743271 0.6005400215807141 -0.3102601606786915 0.2651681534360595
P 2.641208217945928 3.1267484403944104 10.99472066593894 0.6259525481165478 -0.29683128886729526 0.4259456618691696
