# total energy = -381167.75484785484 ev
CRYSTAL
PRIMVEC
9.25921956465908 0.00000000000000 0.00000000000000

0.00000000000000 9.25921956465908 0.00000000000000

0.00000000000000 0.00000000000000 13.55180376913346

PRIMCOORD
 96 1
Ni 0.9893105629035355 8.67138865757297 11.052498794282217 -0.4901630770873429 -1.347034627649093 -1.1443571365480871
Ni 1.1333006847959122 0.5242162655141176 7.897191984956391 0.02380327306718481 1.2702188069406188 -3.059418643641538
Ni 6.085131254408353 0.1880853027481458 2.635839597475048 -0.4913313863638312 -1.4594936514824735 0.625576909944684
Ni 2.868135821322269 6.043168471795258 1.8938779715021645 -0.2830779438369448 -0.6146697761138769 0.3822749604540965
Ni 2.592840708203875 3.0368480591848503 4.031458599309863 1.5239792327603687 0.5580394292143421 -0.38277992511497305
Ni 6.151112452312351 5.768040024627224 4.983336915684281 1.0227462710121096 -0.6941225202245659 -1.2831789666457127
Ni 0.3477281351452529 8.044752461874278 8.849246226500634 -1.115446367051008 -1.8035391361417261 1.2374094737200818
Ni 5.091524413673291 7.120154583808104 0.8644666550198435 -0.21667174849756876 0.44558606180791643 -0.3446967450900063
Ni 2.629127589285235 8.812073238116522 9.459497307434956 0.7514632629275638 -0.5440042912775147 -1.1799615160152581
Ni 2.3921841631887832 3.4985127416846185 1.526746216047114 0.606396223251175 0.547275762939935 1.2657882819730908
Ni 4.036232652865757 2.0189913226722735 8.690582093600925 -0.32427318712833186 -0.2852875498937539 -0.5589403437620568
Ni 5.056330120488742 8.867100779394022 9.567451473093461 -0.3593512617783876 0.607836041021495 0.2757785819620541
Ni 2.3783508893088263 4.976460093388 6.16920126345819 1.277844956027309 -0.07972219572199173 -0.9243262417702984
Ni 5.124459457308504 8.22088133452792 5.398563834803762 -0.1461934399713482 -0.9732265670154273 -1.641823689275379
Ni 7.787438752955935 3.8809277647877662 4.65719942848634 -0.6085284391028294 0.12724106723856152 0.3897476146820578
Ni 2.40418411161477 6.606851234354842 7.9568195064638525 0.1591227464385066 1.6575935505151258 -2.400075435879686
Ni 6.45469448089478 0.694820161913295 11.985133674843572 0.365596471357151 -0.20899854822302716 -0.752798951019852
Ni 0.46842483863079715 5.899409830389493 1.9758526191871868 -0.29837960719102163 0.3935901283565996 -0.2842547377538653
Ni 4.713266780109702 6.217926979968153 6.632632605031784 -1.4003837326941948 -0.9147283136692183 0.641329030572618
Ni 8.750147578337973 0.5514633706322899 12.504424961524526 -0.5542712204211615 -0.07621881055442357 -0.16254976984218455
Ni 8.706092212125903 5.523855888909536 13.389927637245757 2.5382922854034606 -1.0567637656081348 -0.16627298433004267
Ni 1.8590938617398927 1.7056871136521234 9.572532932735577 0.18487954368763643 -1.604112033657218 1.663319654365626
Ni 0.6116529267612458 3.0036537574046323 5.359751964574435 1.3994018283968996 -1.379591992759824 0.15341875407519384
Ni 1.676872422678612 4.55384153937001 13.14161759333469 0.4549147954080101 0.8195563590510595 -0.8673235991330096
P 4.1563895438565215 1.608076422057407 2.161376821831453 0.9699882625837876 0.9534023332006483 2.300800257726431
Ni 2.4135359232739106 3.77192823325172 9.737133151233973 0.8639186872165187 1.83309910918703 2.707948070162807
P 4.0071864814056335 5.119376145822495 4.605892241589674 0.9151489461464046 -1.1188042277796475 -0.1755523527494396
Ni 6.802081876763738 2.4032767081072492 3.1158717936265377 -0.18378271107903188 0.7778101283522089 -0.7554327890982732
P 7.207867169795274 6.503147976352488 9.222585362684683 -0.5360377281322705 1.3178207250892982 0.1346756691397358
P 8.712527369653728 4.035010435896443 1.5023259506314524 -1.1141934684805135 0.4065963108082804 1.1179133405342618
P 9.20346970410023 0.47820905583893003 1.0003438488174288 0.28256989385227466 -0.30859562849207495 1.8668954889111848
Ni 0.4495276976257073 2.578683361642661 0.4812692278719459 0.5168166751191292 -1.3604722412112376 0.14789062516811305
Ni 6.143158782792349 3.720650675857341 0.9102127547061323 1.3868245059525213 -0.7116011366253034 -1.439305863680689
Ni 7.829568201519392 8.563389121739089 5.9756270954114905 -0.6199935023196355 -2.0690505318498174 -2.670961979856761
Ni 3.506336782132118 7.773855478001519 11.217993453380885 -0.4714305336748462 0.04093324787925209 0.5752719910425447
Ni 6.311352504364918 3.802585508898666 6.823021601582696 -0.05177970367545276 0.1063030315343137 0.7195748988593994
Ni 2.6524515631163 6.664897281177767 4.255415044185413 -1.0686219504983017 1.28226596791314 0.5232256639692666
Ni 7.416412569794118 6.0402981137612635 6.937439628349367 0.10581323638208874 0.6449776830687989 0.7982187739155479
Ni 3.7028266783881865 -0.2625062791940321 7.25135309401028 1.0144796601279433 0.7470741327209327 1.0529050539836768
Ni 8.478370968616089 0.36485583931067755 3.557808783135251 -0.6567052559183721 -0.993774823480424 -0.9299392170817017
Ni 5.55205947139839 1.238402084937406 0.5808678738856896 3.1071666004497778 0.6694679549006793 0.4202288139900504
Ni 8.907193199675289 7.0715529408389655 4.094189811181823 0.20427491749511273 -0.6428950895081573 0.3645117229334045
Ni 0.3226384281623082 7.354042467481272 6.656050096979441 1.6048100881655072 -0.3251090527660659 -0.6879215336201765
Ni 7.639439389035432 7.60014326162811 1.5246452991506196 0.6955163152482989 0.3168882075181704 0.71233390102627
Ni 8.349464115231376 7.2860612781729435 11.86548511500141 -0.132486631908217 0.6732387347970212 0.256997444699809
Ni 5.400578640959237 3.4619573432387885 11.996218812386466 -0.3927846017361687 -0.2129973849697751 0.9880430632029693
Ni 3.5499477058098936 1.8811308040653931 0.11616801924545923 -0.9250839458719293 2.416780921559825 -2.9041903471614305
Ni 7.171996953589818 5.307051265148363 2.462566268104256 0.029508293871762084 -0.13001245933611158 0.5270056998369892
Ni 4.146176624787182 5.045830165616003 0.2239092228562807 0.30268800475838836 -1.2021676197986522 -0.013637388277776514
Ni 6.0573443367954 8.130659500065871 7.403783920366492 -0.06618045248181506 -0.6625928250474008 2.259447662921573
Ni 4.380036730801957 8.905063579198456 13.013431107224314 -0.17119664688390518 -0.9524032025121727 0.3310441873035782
Ni 2.1884165204336203 1.0141530487267783 1.5644469799407021 -2.1971565181918353 -0.8051859492620004 1.0450163952642195
Ni 7.495412230265197 4.527684244382809 8.910120964869963 0.1999212685121073 -1.9412255670833276 -0.37140613606039263
Ni 7.107700933628357 5.183079575738227 11.271414520081294 -0.44677776812317244 -2.1223387017499964 -0.7026999774809317
Ni 4.494378831969017 6.461833339101906 8.957647612459274 1.400398902202846 1.0801055256578687 1.790758696547606
Ni 4.842321781005847 4.127852629466944 2.4975707472897835 -2.0742359327054984 0.09934665482113858 2.4550397079307076
P 6.856516827995511 7.4473105851471395 3.6642175850651313 -0.031468760032242575 0.9183947067772119 0.3446018713833549
Ni 7.641272714489402 3.022737008720958 12.78250802562368 0.6701660094089684 -0.0008083548339082853 0.5935232239432489
P 1.3468460633055825 6.741628432880046 12.105447046643288 -0.5769498929656 -0.9283770148009044 -0.6466450434688928
Ni 0.08042465434666547 3.071644205932426 9.387361506352907 -0.04949604984759863 0.8460652039748654 -0.33077345014069487
P 2.8247934150089633 7.712179817148511 0.6341380153088279 1.542998454175349 0.7904136760488323 -1.834348408213099
P 6.720748892987607 8.10956699812575 13.240911611028052 -0.8433799438332185 0.7478873726508475 -1.3871183830438563
P 7.697179881616028 2.7723491959620583 10.73916773352562 -0.12961830922148643 0.3592882697509361 -0.41636804548306355
Ni 5.094450327024071 3.156986431736685 4.979677672151912 -0.2773664952744642 0.0005430169876635809 -1.1143711317089582
Ni 6.322667270550531 0.923425660881968 4.995642418352595 0.09397124944183816 1.1205736609752441 0.5950520018829494
Ni 2.2034997889412846 6.079501648973939 10.062986380394355 -0.957288298518616 0.943110207246021 1.0946371436151405
Ni 3.792539255779688 0.43277036223886256 4.1720987355999855 0.4898810270705498 1.6308659047122944 0.7855782023334018
Ni 4.915117764435713 6.706535991109606 3.0431934022838694 0.20634182732647044 -0.8044218174024663 1.5652582940148139
Ni 3.173782655845281 2.154259259829095 6.154334660685995 0.7257699719265177 -1.2105866971002828 -0.13636154148259097
Ni 7.663522618862585 0.5845539691545054 7.688507696665581 -0.161244934987832 1.2332915948969663 1.6128167605200676
Ni 6.646971432294502 5.827891619245725 13.374491592476497 -2.557811586383311 -0.15074840633188233 0.37552375777319197
Ni -0.02906746766489217 5.214477588942334 10.748680655603442 1.8870732494106404 -0.10193087060854704 0.8763299163966779
Ni 1.4548455991394635 8.322917933026666 2.9283003775586707 -1.0900081294835613 -0.0868220399915666 0.24372463885030285
Ni 5.2605422057782 4.106991608013435 9.774238547315996 -0.858012863255045 0.7450175073022202 -0.885043899230908
Ni 4.315444415817633 1.3372072158430421 11.416256490164406 -1.5776510112522122 0.4331892308054604 -1.7333187092625826
Ni 8.717082905630258 0.8307667998568641 9.870483504039699 0.610415114602581 1.8426618131748007 0.277795869502399
Ni 1.9072140252968781 0.29115615606107553 12.758440536469614 0.832685954454482 0.675575610460314 1.7541305038016113
Ni 7.330357384091092 8.451593305924765 10.05812158648771 -0.8609259231367818 -0.6645612616276813 -0.6287293395307365
Ni 5.731604996034433 6.886498180621548 11.268514532545014 -0.2975499122008747 1.8119106480348732 -0.022663245925470647
Ni 9.356811637651749 5.013024751053294 6.154063365555685 -0.745938990675225 0.576982288865432 0.1571093155529036
Ni 3.8458075453589333 5.434726642344297 11.505833882951725 0.3681421205971402 -1.2306546714947515 -0.06076030990750827
Ni 0.784459591471027 7.629254247624486 0.6978636673512748 -1.1506758796772636 1.3970433554670518 -2.1636995240849703
Ni 6.17685308242365 1.9523249425279026 9.453223260325812 1.3099222961778278 -0.9652790300335764 0.07017903211824687
Ni 0.7696013219963502 2.4777300918212615 11.789527108124418 0.8007885915252532 0.33335098105988403 -1.6048867070397135
Ni 1.9760192851375475 3.26445819206109 7.655549504981708 -1.705184927140844 -0.055956460760961696 -0.620954323571008
Ni 8.445852589856779 2.754478902395581 7.19062742907433 0.00786886122511548 0.33473860543602996 -0.13096736705021314
Ni 1.5468544629581598 0.7388533059986521 4.789559970731309 -0.03922937781426793 -0.32802005576527377 0.227287319229886
Ni 0.6778739384493745 2.1684629024876316 3.0166990717081603 -1.0234533243814632 0.708700932259373 -0.902731032098026
P 3.059634998286975 3.271143348514456 11.879809127512985 0.11071478744876417 0.05561193293734938 0.056322842961444936
Ni 0.41939727156629103 5.665058985743099 8.539180892449165 -1.1719666707352396 -0.8814153013393853 -0.9951418790312797
P 5.334523369299522 1.7491684082573966 6.889275946460898 0.0663336902302277 -0.004964285983810805 -0.07188598750702459
Ni 3.636632518436505 8.5673242900115 2.298480862208084 1.571588864218532 -0.39843845758783636 -0.12444113589592116
P 2.344832514847351 8.271760745485325 5.920173630038625 -1.011626249839548 -0.9744277864123799 -0.9434297953689688
P 3.6922619089791966 4.663211439684637 8.201985119444776 -0.10498277006099338 -0.3076507480803024 -0.8128403804834645
P 8.84528605833567 1.0735972376888423 5.51775221143854 -0.7380986686951998 1.4454536284496395 1.378430368351555
Ni 0.6610480848384924 4.596665429393304 3.614577983594022 0.1535012864866711 -1.0479150569682534 1.6325934289263626
