# total energy = -340869.88984731905 ev
CRYSTAL
PRIMVEC
9.18749355517174 0.00000000000000 0.00000000000000
0.00000000000000 9.18749355517174 0.00000000000000
0.00000000000000 0.00000000000000 13.44682550406988
PRIMCOORD
 96 1
Ni 8.434900178647782 5.556384893928199 11.011323319618059 -2.4028326869098486 -0.8022353512741086 0.8916359506261289
Ni 1.4099311623821824 0.957189846487243 6.452553244577319 2.095994921649145 0.5522819579052747 0.9681990318938488
Ni 6.11811744791035 3.2676148315653686 -0.007199320084728976 1.5828055588699579 -0.5960465045857348 1.2395517168740653
Ni 8.72290973201185 4.503525675258358 5.964151590529154 -0.6574835288452935 -0.013846418964789057 -0.5608177632904277
Ni 4.448143463070066 1.0684412080313768 10.526484575637351 -0.7228085753053487 1.1401091599050106 -0.874510860910068
Ni 8.8130482329706 5.8883474172837715 -0.07393176202375457 0.9304662932297654 0.01941851373592785 0.8486702456978803
Ni 0.9292139280875498 7.331996681645223 3.830221116200989 -1.9266363564152431 0.02721769806537248 -0.7760280967511216
Ni 2.792207968645128 1.1906348746047504 0.8172156233033848 1.1856066301161776 -2.85122305093578 -0.16493729623775466
Ni 4.144055795683185 2.3752335658306505 12.469483311572443 -0.17188210298670398 0.16616345533537188 -0.16858234918950965
Ni 4.571742816183719 8.274615163080934 6.794331686231162 -0.24729255870721928 -0.9715658914835525 -1.5052572308708334
Ni 0.9598725946556209 4.169698090676139 10.748478311573125 0.27041397521603106 1.374183420149743 1.3544748859772222
Ni 2.054397097378863 4.814485587953275 6.6631976695117325 -1.264224794140713 0.729809432103214 -1.340768077914091
Ni 4.901674903425555 7.482772641204293 9.001990878971709 0.5611113832714466 -1.3041522264632701 0.8250001557744502
Ni 5.039110622092554 3.187674448643946 2.5379266235034286 1.7406124147105182 -2.437430993710009 -0.8883223128718637
Ni 3.650696570019758 3.232821792820003 6.841529679007158 0.37717389178210525 -0.16570091387665656 -0.2867584780123255
Ni 8.625577423464609 1.6470511879906182 7.462410398856431 -1.6936494156974184 -0.2602671165900163 0.17193121105708453
Ni 1.548800130070644 6.817432720459139 12.228960238287408 0.7345795997983479 -1.2524249732923074 -0.7719433851587867
Ni 3.754496874151034 1.2125378596506842 5.508344407977408 -0.37656428322256436 -0.14008604152202972 1.0092878315143585
Ni 8.237920313134014 7.345079672712928 9.543293203152416 -1.4567968213766007 0.7790979939256969 -0.08414629293161638
Ni 7.879451870375117 5.271306151063146 3.405421724978952 1.3104059206824659 2.2146083951196958 -0.47507995750197535
Ni 9.014263533092665 3.2788327614064277 3.6329426571410823 0.1119013515576976 -1.6343492352752047 0.10341593979450575
Ni 6.4327431706024685 8.870727318590722 5.365431105550179 0.7111550502268205 -2.130067694963138 0.406021669251733
Ni 7.431203238912839 1.5148982782168283 12.039736454978243 -0.3614253706985969 -0.903232911435109 0.8318454608310577
Ni 2.4924292358163607 8.087557790792673 5.436134382278153 0.11122438009533103 0.8635685029659516 0.07531866733765738
P 0.885951857624339 6.255323479234167 1.6956447610637932 0.2015148382514723 -0.8223092392058484 1.7732510266811459
P 6.947702194018828 8.71214198936343 7.729262072915851 1.3029618056995946 -0.2456362540507189 -0.7895269025685047
P 7.2409302438200145 8.5018586329325 11.671710262494816 1.5344518501569187 0.23123473391340818 -1.2625335224812193
P 2.6642169935298146 4.428013664313505 12.453750647313777 -0.1844581398795017 0.386062966741619 -0.5587343983988378
P 7.794357303472667 3.9894302762523672 8.162532333354479 0.8274619870513814 -2.0864427591843357 -1.274294005451257
P 8.392114020359648 8.946910016577672 3.3141715372791967 -0.9960253100774975 0.22842811770254853 0.8495734742384401
P 4.301942875387201 5.825063960489982 7.686501639610152 0.11781463171833904 -0.6726635790198415 -0.2949790661499049
P 4.42645179037986 8.348804174929054 4.464480664415988 0.012056931164534074 1.2721383925608347 0.2294177353093275
Ni 5.263303844026648 0.4383298132342632 8.57162570404966 0.37969408710079766 2.3739106045588603 -0.4497126823817803
Ni 6.145927991422952 6.728727468521852 10.966881574960262 -0.3312298209518231 0.32443053864180255 0.7789488699423424
Ni 0.6088873655376287 3.942610808217938 1.2879083831921372 0.8853945977021074 1.3358225609833576 0.9682879920632291
Ni 0.3074760150735167 8.51606249823494 8.007221426891602 0.8039212236169638 0.9749587192151854 -0.11768247701584893
Ni 2.876374598681118 3.4346067175531605 3.6015572598191796 -0.49121105873588305 -2.82058295745242 -0.08605199459476147
Ni 1.0221913646080414 1.0927880664087781 4.080882588814124 0.6965172457089875 0.535247113910175 -0.22445242088425213
Ni 2.5591947527328047 4.861810368142708 8.962712505788664 -0.11642983555567045 -0.4944848443911484 0.03814025851514722
Ni 6.622088228828833 3.8092175867909597 4.531473112427497 -0.19104530617871612 -2.178540188642229 -0.38405647783455144
Ni 2.4114690410912054 2.610277217856711 10.726129733081414 1.5109830776110171 -1.69642337889813 -1.9169121871489438
Ni 1.3723635005311656 4.915796081284447 3.8504317649023503 -0.6651608428848932 2.810665955449024 0.40626412427984226
Ni 6.467545396841562 5.274769836198345 1.4388102114152714 -0.5478840859478952 0.838164718180866 -0.38247139273561875
Ni 5.65302814044589 1.406173477447708 4.163204370109668 -0.790995259583915 0.91126478060065 -1.206550065137064
Ni 7.12944000743897 0.4410327738888411 1.116029669290783 -1.3591342391261043 -1.5978727376157253 0.758223721579849
Ni 8.182455413502174 2.934292559138152 10.167870970477562 -0.3109875257630193 0.536746838384153 -0.2556602139456242
Ni 4.709206097331901 4.9073803370302205 12.673444753569603 0.14064242824613196 1.0296707660460847 -0.27142287609651966
Ni 5.897185786249454 3.083414769826304 8.523095524683203 0.7376762364458005 -2.213987473706245 1.4603092054052333
Ni 3.358130019766938 0.9202009967410475 3.2351048850112423 -0.8355542771412127 0.04490508804280654 -0.17564439824261363
Ni 7.310415258879745 0.6796384172329847 9.811611201210717 0.5970636329963395 -0.7942788154311934 -0.5701387835810374
Ni 0.05697899859810129 5.429533168035073 8.07493968690757 2.2988356778008923 0.4380542722072456 2.2353505127630537
Ni 2.4484211408624916 0.47447157605879975 11.931489403882944 0.7215543911832735 0.1279810307283796 0.4230747680792778
Ni 4.516378978982881 4.093074392990279 10.03104989514092 0.8533211142063305 0.0685468958314626 2.2520184603370375
Ni 6.2277885605333845 1.6012239692787393 6.676631622839821 -0.5504536464472843 0.23438793483040923 0.2211063872301547
Ni 2.599096037990561 7.176617787728765 8.161147778049772 -0.9813574236526776 -0.9629185002211997 -1.9720731485918033
Ni 7.76036357668158 1.5874794786626667 4.98835523174534 1.5112275895216556 1.3321605387507378 -0.7986838864774245
P 0.9270181170867199 6.311872503125829 10.073649547306392 2.2588699360412323 1.2471765804091748 -1.2649989533025763
P 0.5230614741344839 1.3021894234418854 9.800611014970995 0.04761014567879542 -0.09783407483135409 -0.4264516549713107
P 3.1705581478299463 0.1117686174409819 8.066374186505588 -1.4855142439159512 0.19521357862379282 -0.7666137454157571
P 7.256227420876004 3.357091832975751 2.2836204721286655 0.003880823111644929 0.06247343594387305 0.0049568297846430765
P 4.700193165985398 6.884841361936496 1.616388846425056 2.6519481577584196 -0.8681494374684146 -0.06589017493490588
P 6.911935280938366 5.536852282263913 12.67969776180042 -1.070314764819692 -1.4769866660609143 -0.4029162908535319
P 1.0506174702003734 6.659453765817849 5.989215992166659 -0.8154235678296087 -0.5435080683673865 0.021092044783608835
P 1.0050383138191326 2.935321558435612 5.657778993452289 0.29049994733262874 -0.13395293204109832 -0.26272303432967653
Ni 3.0381663632192466 5.810465032957269 0.9796982873698076 -2.278014370180167 -0.8878826542312838 -1.3327189823573695
Ni 5.346588474664816 0.1552089252825025 12.339627275230484 1.4341410316502978 0.9113377999304305 1.902462073161885
Ni 8.718168985248553 8.499276947195122 13.320358236895242 -0.8190421384188025 -0.28508289008211546 -0.2297463222933398
Ni 4.254985594946862 5.142984426173649 2.94720833782002 -0.008223416351056804 1.789342275816054 0.04534217558022513
Ni 0.355791207086754 8.763601141730156 11.152851147991207 -2.373721371366189 0.6400362799031235 0.2160181740739699
Ni 0.8139807067619949 9.18089710682509 1.856361588835825 -0.3527697519061279 0.07719582975571221 1.4241790353415795
Ni 8.093676661615069 7.309625134419196 1.9153388673196186 0.20637705143978008 0.014739620203019778 0.6122233714559134
Ni 5.04680974183605 8.975152372295456 2.135395879577673 -0.022643191320812616 -0.47238724116116065 0.4527362996994525
Ni 5.950491624855373 7.149928118450897 3.554385910774994 0.7183721368005499 -1.1280856530815733 -0.22002678101273074
Ni 8.905171232574451 8.932798026212506 5.426749357435695 0.08696884998207602 -2.406552558963597 1.0703109081649502
Ni 3.690735667683424 8.080786607915638 0.20073846919761598 -0.08179604753188494 0.2970616597105465 -1.1768710500153925
Ni 5.936398009477662 4.377436511344601 6.736550619430666 -0.23431260150778355 1.3789371327846445 -0.30604535126639554
Ni 3.698590974820284 6.154178360790086 10.63559157614553 -1.2445473703164436 0.7252107569889381 0.9002149505443916
Ni 6.6846918110868 5.468083891714913 9.077427552467999 -1.1228560292515177 0.27988746192410513 -0.2520082190153337
Ni 2.130175545641809 8.429598994767117 9.977746812783122 1.7245080529494883 -0.2244187394328393 -0.7240352486235982
Ni 6.40128519208012 7.458977032450531 -0.05911141589221256 -0.7243602360631848 -0.1888773519931199 1.8837709245102847
Ni 4.468815323956538 5.793560044498998 5.241680158790025 -0.20647989556623148 0.5912606531613173 1.2541902927228465
Ni 3.2193345520282954 3.339341595094566 0.9832409849510626 0.2938752915627648 2.220725820871343 1.1224947892573571
Ni 8.560566717850083 1.9771027126509086 1.0417147887785991 1.1727979083872835 0.915545667364191 0.6725566211283321
Ni 0.7721472915733828 3.1842107635087458 8.560168899371691 0.9468190235561759 -0.2568586051290995 -0.23720663522612695
Ni 1.5558469377594994 2.6462095058242645 12.90494570801441 -0.7810327490545645 -0.28825871670693576 -0.5774556289574249
Ni 8.250130492297624 6.869534997386777 6.825138271448243 -2.3774384152064605 1.8190125491869769 -1.5540680817259493
Ni 8.569542899221677 3.364019203246151 12.738581327848193 -0.4092998257823725 2.353212967000192 -1.3388384649915457
Ni 3.0837363321067603 7.258221107014833 3.0052714606779456 0.18423548234573434 0.9311327231691705 0.45843926362150084
P 5.24062910950762 1.3681648158977797 0.7339208864221171 -1.2909367562142606 1.186451494614976 0.3216074673707106
P 1.426046026379904 2.0561243461995993 2.1370505471979637 -0.06439507844661813 1.4793076008846073 0.6614260584328092
P 4.557465450931462 3.5980246684810253 4.854008348469466 -0.05913794381273685 -1.2277716935200016 0.08292784714348299
P 4.231888235716377 8.154562182546027 11.165947920299505 -1.732689560319016 -1.3785566095167743 -1.2501215219701114
P 1.5804694209487207 8.443150548014916 0.11151779886222601 1.2541524975063756 0.648425018187451 -1.1090733736451288
P 3.810448710950421 2.502305791573231 8.805465794397442 -1.165109795714406 -0.8268829746194598 0.7921237167614035
P 6.766047068042231 5.850945130319847 5.306225058472576 0.9743611948405024 1.2437626696316193 -0.45484588984328755
P 6.281268961520121 3.2306443568066276 11.229282827058165 -0.7523798612045624 -0.1678740102685754 -0.1770032262633532
