# total energy = -340874.8406769756 ev
CRYSTAL
PRIMVEC
9.20462415730779 0.00000000000000 0.00000000000000

0.00000000000000 9.20462415730779 0.00000000000000

0.00000000000000 0.00000000000000 13.47189787188725

PRIMCOORD
 96 1
Ni 6.9078403854522525 3.7366264196871684 8.231828015072454 -0.5238630404429493 0.38463729003868596 0.27764494574683146
Ni 7.816106683509484 2.92422628321358 10.69019353749806 1.0154919034425414 0.23070097289712524 0.699773547862756
Ni 8.591356956502363 7.495546439312463 10.927851412907827 0.36455466035619793 1.421158760458017 0.8740051249182431
Ni 5.40838868556759 1.1789006603118934 11.768861362481204 -0.6672974296119217 1.1775968724378234 0.8402295711296948
Ni 6.567554631483387 1.7324023304520049 1.2938461670448966 -0.019892368048552836 1.6554587635603104 0.6853787125936648
Ni 5.73727911471259 3.7922131455444537 3.2947142502778135 -0.21172983111126115 -0.5756067486741442 -0.9488550801495981
Ni 1.735071671485059 2.112221945582825 13.141392339481127 1.619829444392475 -2.1717583898337045 -0.8231600172419179
Ni 1.0421843762982723 8.76236046585435 5.642165891392753 0.6320182946946534 -0.3227811759638376 -0.41547844378925863
Ni 5.31625039680597 5.7809366475393995 11.50267007235294 -0.20351901316569465 1.65169518275282 -0.30637496669167236
Ni 2.9750634229568798 1.1717210533954034 1.9479019139001503 -0.2735278382546644 0.1700270520558362 0.5533685061012341
Ni 3.102842016821896 6.938942810799458 6.070572115637279 -0.05142437721856305 0.6159846382705585 0.339905237238634
Ni 3.956451256071286 0.7528370129394774 9.933356194858703 -0.6534584668463004 -0.10632874256592656 -1.9267281447981008
Ni 7.6921848272060185 5.264152223540158 11.201654006829997 1.755529183921351 0.19086481473679387 -0.7679427486398258
Ni 1.5100278131501084 6.774511403163335 3.981821961896826 0.683083745911901 1.3016124907605517 0.9435377817017427
Ni 0.9219903928168298 6.730890688833532 1.4886850508972043 0.152473359442789 -1.765290634183489 0.16113489177252893
Ni 0.24375501851423362 1.0229927347330396 10.982021547092744 2.8097388156490646 -0.3033243527908066 0.09095663098523045
Ni 2.879399763106778 7.01461402677441 11.770706889643712 2.0090145017028433 -1.2253108906843349 -1.7793036606331292
Ni 1.568955817610837 1.9050258536723277 6.2101814130532755 -0.6422176038251585 -0.22619434327602334 1.308272933499863
Ni 8.340558559510567 7.864771531929334 6.8879528742935765 -1.1096505863048374 -0.9371287928516056 0.5258373905605008
Ni 2.7436407600153556 8.962367746224105 7.537782778154777 -0.2694148445275554 0.40074319446161305 0.7393356264260945
Ni 4.57998170751993 2.980613811380782 0.8829268879541484 -0.23797925172609338 -0.04620555202178494 -0.5076643191958998
Ni 3.709785735368598 4.359981983275026 12.50138284923429 -0.9826902835314882 0.8155675496066405 0.40876683609703796
Ni 4.304174346435695 5.1930372965699005 4.876368767506585 -1.3780693854677106 -0.37822932962981315 0.30093734061586885
Ni 6.338350282986574 3.8830627869108065 12.582106483461118 -0.5480661200517142 -1.5026167079241928 0.25376633935702103
P 6.674319068181293 6.106301705595919 7.056216167005768 0.22054717229257498 0.7064584160820994 0.6089511284625447
P 4.171103093625829 7.267428236477374 9.598403600181394 0.4395239147742366 0.19634820644886833 0.7813111995269317
P 8.615298184181581 0.7748931335719045 6.599990806884693 0.18386832881430268 -0.2810125766674838 0.7172799321776355
P 0.809567873591275 3.7526700797582473 12.185843727566684 -0.8765713429835226 2.0166450216649077 -0.873890967937882
P 4.623188213758397 0.9479658424557201 7.612188358295093 0.26229340299142573 1.8644773663879954 0.842031143114808
P 8.632556854653913 7.265559697754236 2.9735842398395977 -0.7887092917632158 1.4797822265281806 0.1089911198894381
P 7.039751855606377 6.926829525283944 12.527477958988456 -0.43193787489686253 0.7925878008820157 0.8156536815625437
P 7.50420799073351 0.6433489279254316 11.14971967587587 -1.5323489448813028 0.2769132097871296 -0.7077840768720585
Ni 7.315513193569353 8.952380728910782 8.772590485247923 0.8308936384407496 -0.020072859490475107 0.27651777412092376
Ni 3.549551636391347 4.988906344535289 10.04288201883218 2.0500125413817596 -0.16816480203611683 0.08373903019086869
Ni 6.713420312003407 6.621530548096588 9.475594582949983 -0.5734547353281478 -0.9974239901972369 -2.126362735307725
Ni 3.0665389787723627 0.22043786435929488 11.987362573897896 -0.31672082870237067 0.3259613734640322 0.5192664222112024
Ni 4.487263527430439 1.9389725079133722 4.265620777756569 0.5171444907721933 -1.1342745555011045 -1.5162561530844985
Ni 8.867237954580613 8.294673507614796 0.2080318717925704 0.892219848154057 -0.19407380859239481 -0.26926289233072337
Ni 0.5143718919828165 2.0024752106273 3.9021752687074724 -0.43584620881233327 0.3132598667369637 0.39274140720305906
Ni 8.536322508100191 4.79466115894723 6.817520930442809 0.7011454885096183 1.0468938147925906 1.5023619116009095
Ni 1.7054603952666643 8.389122157063646 9.677888291983914 -0.009665291003905934 -1.7544750316252236 1.7978354008887294
Ni 1.880918942756575 3.5618029912706395 8.281957319210782 -0.46538921257677274 0.18627282449073723 -0.20673520611014715
Ni 0.8536294894227436 8.815112167442045 2.7429458108843363 2.726336342862008 1.1167118640269929 -0.1426131788192576
Ni 8.960305910391677 2.0032668083129646 8.616410102791212 -1.3392351862093324 0.5753483528064349 -1.124629833322489
Ni 5.8416411444807474 8.689156089178908 3.361791108588758 -0.23074236765802197 1.7497961380923157 0.33503325385831334
Ni 8.02035729565937 2.71918407337803 6.067634920038494 -0.41170637834133605 -0.09621839360480203 -0.8858237148197261
Ni 5.418670250856973 5.806783232438764 0.5640925108043595 -0.41171923385714254 -0.5235840757499498 0.30927002885128024
Ni 4.135122217425113 0.15022222917844885 5.60242308526028 -1.1561800973249443 -1.4329984334054224 -0.7192033744525936
Ni 6.035978376311325 8.249165845313353 10.913746246704202 -0.35703778315386253 -0.029784944571916452 -0.7698744184449
Ni 5.4506839340051165 3.1441431658402172 6.061990644447223 -0.7779834207052795 0.6239185484056545 0.847190061607928
Ni 1.3065595940616348 4.731397776463852 2.9926203232549735 -0.9615722706059505 -1.8756696355593891 1.2793076566157644
Ni 1.6526810798062113 4.07573398175179 0.7963914539746657 0.4367910892241058 1.6893605585140776 -0.024967982799247324
Ni 1.4356912676916822 5.1595232596686955 10.40286474823771 -2.623023247193953 0.8098890111646245 0.3422914780826234
Ni 4.813815982015455 7.898350001200302 12.858414576104655 0.17297456471993436 0.6932534873560512 1.7397001873088944
Ni 8.591734346096692 2.4714232023893654 13.142456394044649 -1.8476222425038695 0.04441529289058157 -0.2344406424452156
Ni 4.635890595226032 5.81722127634043 7.836198537326554 1.2396859284590844 -1.6218855555905554 -0.550185223277246
P 2.252417577563668 0.8131300631767643 4.23331530801964 1.4203036115465733 -0.0019473535343579366 0.6076390945193405
P 9.056043207235794 4.141639091395466 4.6625296982734845 -0.39147668155802257 -0.8562912525782479 -1.0776835464799375
P 3.1974839633800363 3.3030333896766897 2.468240243323055 -0.25039382334036236 1.4702231220848356 0.5875387242250398
P 2.935952974510514 6.265652160644986 0.3743907277470429 0.5669475303372494 -0.5900422073731838 -0.10902017335516064
P 5.941474499116964 4.103964564332397 10.32084786430349 -0.47008970337623557 -0.5257260617936171 -0.6939250595017791
P 6.751527456406315 4.066952770215467 1.2184915901442093 -0.09190562516206108 -0.6064147351939363 1.0128824908441523
P 1.5402005714478697 1.0800337912221267 9.019624190920688 1.6840710279803643 1.4607087548364972 -0.4900985423979947
P 6.574991967878931 1.67455126702875 3.6936978931011097 0.09831718511535971 -0.2174047700088514 0.6533345396739264
Ni 8.823285873777742 3.2709644787830348 2.110992207782769 -1.6108732636404517 0.34879328375688323 -0.3128772865865644
Ni 0.900431321894006 6.151229476569492 12.580166148668814 -0.1587771901736298 -0.9852313047857871 0.23947974753101983
Ni 2.7288673380910398 3.2207532534888648 4.65330114199852 -0.481105594870765 0.41954747165230977 -0.9548084695195556
Ni 6.550995512454201 5.096591243658386 5.186262693120494 0.9480055876651093 -0.09165777081731312 -0.4180554604878155
Ni 7.974573494630369 8.61746127088078 4.626950143690151 0.03227454376298958 0.4189319495554979 0.3034583072655096
Ni 6.9127556548027735 0.20567456752165622 13.170949308416438 0.1987691571855351 -1.073627374132693 0.0328314447077241
Ni 8.207606966815979 5.363727848697322 0.10767477403641948 -0.41274638957007626 -0.4044779789136969 1.0413489737149615
Ni 8.085516830738642 0.537803183478479 2.65097320535925 -1.2468451652116848 1.1092957740685798 -1.4681670108867553
Ni 2.5411850495945925 6.385358299041078 8.472853862495997 -2.585396180869799 0.4221630548982859 -0.8437365558416888
Ni 4.577919871687502 3.125420960111832 8.88598317186963 -1.263896721377333 0.10306575554393863 -1.3528394072563281
Ni 6.267189332895056 1.6730785271484443 9.596760574752428 -0.561500391179749 -0.6037947810725859 -1.0298422586269425
Ni 9.087384952813547 6.414012294337275 8.911607004862097 0.5289409691864889 0.38508080533400774 -1.243734387496845
Ni 3.189798102129691 5.881128982521442 2.5613045172844173 0.453282916231542 -2.2729685802261437 -0.887163259566756
Ni 4.100282714631633 7.85386405219082 2.057616432670793 0.25502386591320597 1.359345326695646 -1.4666875981277516
Ni 7.841032805983657 5.397527228950336 2.7002529226791268 -0.5758623163283759 -0.9270333562888164 0.1568156955718848
Ni 5.999353176412975 7.698692496552119 5.467448316155121 -0.33831860947780446 -1.5511622209330642 0.4326441569352678
Ni 1.626208580457718 4.9071140534328155 5.824022573200166 0.058826068999272875 -0.9467958836277244 -0.45818421018790123
Ni 8.656185125108566 6.285773469259662 4.9991658187264685 -0.28481086736765143 0.3120463060448368 -0.4494239474967679
Ni 2.094263723667348 2.9460412426906073 10.546744991306593 0.9371025675993603 -2.0189446163323614 0.5478619744607081
Ni 6.343256347712842 0.9567562586162943 6.187131193001642 0.8134358479756184 -0.7462063854039988 -0.1926854128853004
Ni 2.3728876997726673 8.433773789309662 0.7189253362705902 -0.8291733133155333 0.207758505168339 -1.5871455810062085
Ni 6.841741978699286 7.652835058529103 1.432992471861022 0.18874134063588785 -0.18023741692993475 -0.0012809235949526327
Ni 5.472103094639311 6.283647201057471 3.0393144616224883 1.6800099705371132 -0.8355265092270708 0.9895021642469991
Ni 5.256374316047293 8.15335491147522 7.727871155430674 0.25790401567447846 -0.7692563252449268 0.8751011861958994
P 0.9398197499927797 6.645885983867142 6.635865829906513 0.11857310715091839 2.118992925206215 1.8958869910475282
P 0.4773812685016653 1.5658906777349508 1.2936298583749768 0.39352713632914804 -1.9999053403127234 1.5365038475899409
P 3.710890290278827 7.3804334084180745 4.074239150773279 1.2603743100463713 0.08327211785677918 1.1244074328990377
P 3.3708530611647634 3.9216669810233173 6.744301826368566 1.3463903091968747 0.28652733583812595 0.027462981306959153
P 1.2546915364021212 8.287521514571061 12.135903118225523 -1.5590043426853022 1.0445998765520912 -0.8433172089160831
P 3.6398397956783333 2.2992599103816382 12.092738953258614 0.5030209068866175 0.08343641134878534 -0.305784384295525
P 4.878533695130634 0.34902462423362896 0.969765154071519 0.20707639149964985 0.18268870668390472 -0.40984130010813935
P 8.866676472501247 4.284991909494714 9.169471791892082 0.7663543211067834 -0.44575138374118717 -0.1431839637210631
