# total energy = -340895.8378926197 ev
CRYSTAL
PRIMVEC
9.02988994612645 0.00000000000000 0.00000000000000
0.00000000000000 9.02988994612645 0.00000000000000
0.00000000000000 0.00000000000000 13.21615669142536
PRIMCOORD
 96 1
Ni 6.255781330387598 2.1908228667976957 11.440843461411019 0.4399892844464293 -0.23036133016951937 0.10212241779406285
Ni 4.6069053679815495 0.401705489747034 6.0231180892415095 0.34043205627638146 -0.6995583465281564 -0.23300596688121805
Ni 2.7852695512872003 1.6326673099678548 4.727775862731785 -0.3432065336977251 -1.0751183568559226 0.6293572029227226
Ni 3.570526840050493 4.2784340916073464 4.696215494410488 -1.9933616256569346 -0.3108029205560389 0.7367223571729634
Ni 4.812181855935552 4.630717187747296 2.669187607170934 -0.02960136780620063 0.3280699351666027 -0.5424914541774141
Ni 7.164955798766109 6.045836389335799 2.5807190664841904 0.3345455155886174 -0.4012268189662509 0.1330777285249966
Ni 5.252759215886448 4.702297125283537 11.578939374206435 0.3767825698809576 -0.7125323901903213 -1.444076288486139
Ni 5.47157150885708 7.844951660525495 12.378186671450223 1.1188443369889636 -0.06356821166994858 0.47706150670837844
Ni 1.9091535099706523 6.486513078076009 0.33579361412469444 -0.19885786024459945 -0.4210209708740426 -0.8136937296226954
Ni 2.6204650300340226 1.643476088223296 0.3711519541537925 1.5771499032460772 -1.3689661376148619 0.22330159510926056
Ni 0.3604352807757161 -0.08361858680119869 4.683779529988272 1.3431633176191449 0.25314696060546726 0.6663895730856717
Ni 8.641080936773792 2.2089097363429326 1.163756864359401 0.3939215435540893 -0.10331103878552529 0.9036054642831793
Ni 6.857135880679452 0.7881603983782667 4.7169120021477235 -0.5201758213993493 -0.8641110057329827 0.4688059515678055
Ni 0.8256958448713471 7.445947913847824 2.6449757632809474 0.277062076660168 0.15021515953623163 0.07580743404861784
Ni 7.5250497497021795 3.7796771507877733 4.049390933337286 0.32015762229806155 -0.08872028545554397 -1.0061186897577576
Ni 7.5231173532555085 3.814324838478773 12.867197652060023 0.2849643622263802 0.020001639932907486 -0.6854237068989874
Ni 7.955495573142962 8.70209590308291 6.882459304020771 0.061543725040752076 0.6866866327718109 0.17961238175142616
Ni 6.809132985770576 0.732915531739346 0.3497276372875775 -0.7596835939548271 -0.4903253136968201 -0.014075504256459629
Ni 1.9691571286067469 6.542453246240133 9.206255427052216 -0.25910240685795377 0.3344814951199014 -0.672096650772778
Ni 9.058966183311219 4.739509301716848 1.4292744570548594 0.17153551828056265 -0.78505035485439 0.1302993944489111
Ni 6.412188053998704 1.8892967819976239 6.950812861882268 0.6719187304340171 -0.11304909200889564 1.0693675704150745
Ni 3.349321626246367 4.456024937012324 0.5809515139775944 0.6455147865191914 0.016716027203100243 -1.2117218391459905
Ni 5.713066885351244 5.480484010225601 4.761331836729315 1.1803852338162382 0.6063244894729751 0.7960503055093194
Ni 5.304085110292402 3.0489333075784466 9.378369644209972 0.04862984519256141 -0.09617519907169243 -0.3630726764940328
P 0.15422239323517337 5.44588147198429 12.41036739321024 1.505032259344221 -0.009599984983609273 0.5247544419089671
P 3.9998348973591242 6.194080092443214 12.496192885112217 -0.9676997236599271 -0.10311229251115789 0.6199904169958419
P 2.268741787070211 8.382320410718723 1.3128611159778794 1.001924963391384 0.6073459887589541 0.43674378092593813
P 6.3172658509734765 7.776062630190691 5.810839824629806 -0.16895001694157355 -0.43494375160272186 -1.9429353506855829
P 4.66148202276508 1.1438613078596407 12.660535978989577 0.406719466649706 -0.3048839839684427 -0.22202684216189503
P 3.990001347216956 6.107727254968876 8.128333084484728 -0.2215015657860443 1.0616221221417006 -0.13963275603469502
P 4.6904047602355705 0.924344683473867 3.879404158248856 1.3643049846937667 0.49389400488468493 -1.3182056192325426
P 0.1985826305431763 5.567477969885517 3.4732189401037235 0.08839272691279616 -1.025836479901659 1.0598866275078327
Ni 1.6209645726085804 0.9984259005228545 2.594781314084189 -1.2837489802165698 0.6272460701169907 -0.39699504027309046
Ni 1.7762967393170985 6.498116486645969 4.759349775887988 -0.2675903897243069 0.5252290675525406 0.22136298332565102
Ni 6.028444821315766 5.682843843729723 9.16751900519742 -0.20891395892902084 -0.04974236153044982 -0.13728945261349906
Ni 8.586377863531133 2.2939171202165514 10.114786967267163 0.7617422762560687 0.5304244957105511 0.48590147359751146
Ni 2.2884359770243603 5.3694976330011865 6.827123235493478 0.3483808788098129 -1.1123983242533035 0.6051379253640418
Ni 0.4949815438366155 8.904762752844913 9.07868023902323 0.7510732265779968 0.9269683073788358 0.6679497184839399
Ni 1.5492401568333358 1.1574603221058344 11.405040850796986 -0.2815429952496571 0.3723772417244103 -1.3076041895676125
Ni 3.9949948763525107 6.854878408195024 1.5539031919971702 0.560682266153828 0.38049858527996405 -0.10363139823942154
Ni 5.630154435943174 7.792126804389881 7.7461348659701335 -0.47555355470428423 0.025730314886568587 2.2331532480014187
Ni 5.27694126113964 2.8265812977522318 5.1068416124269875 0.3022349763813698 -0.4541897443165275 -0.9631671258968961
Ni 0.8965732569704344 7.451681893958271 7.174959110839106 0.10125981268345141 -0.01174942722644428 -0.9631642976834187
Ni 4.934094399984598 4.453586866729141 7.130011027696157 0.4867486520891553 -0.11967379641426486 -0.37345607661088587
Ni 8.20940704830148 6.973783998894812 9.25737543996759 -0.23406423294240333 0.18632656054680816 -0.22353042329061504
Ni 4.643503511899096 0.2935021246014213 10.49846518474255 -0.14240723345603862 0.6378161323233531 -0.626162864355141
Ni 8.021395709908383 7.076101681779025 4.597848388374025 -0.3865075104782053 -0.2411774469484169 0.47798144741948645
Ni 7.39533538074695 6.042703017527413 6.897525675381843 -0.6152819557765791 0.35541387439719435 0.5679034664926155
Ni 2.334380057027438 5.302640327902368 2.5152857750285493 -1.3695343514135059 -0.49722846857455655 0.8533627660775434
Ni 2.284047450514632 5.324014077384931 11.237975245103407 -0.29148185162992385 -0.5881601598591226 1.5384743410527504
Ni 1.1776150364468072 3.178151032587103 3.7124848367722665 -0.8361780267681406 0.9556322509724317 -0.04671154512392601
Ni 3.705830710877166 2.5690578666186292 2.6981446582231885 0.013479779653989688 -0.1631778903444867 -0.4791065621628652
Ni 1.2795986134033241 3.450022958831729 8.141231379271757 -1.216127938633486 -0.06154783880581013 -0.6226869899913986
Ni 3.6601936471319707 2.4184212426777214 6.988611078172536 0.026351750520651387 0.5408665169794814 0.5496290936634598
Ni 4.006417687123716 6.877498282488991 5.950403094540097 0.4734624765032104 0.9149147186484115 0.3278902150556288
Ni 0.8218951641965642 7.443175737636946 11.261209151913139 0.6115158038659274 -0.43991446534443585 0.41163875832819424
P 0.33590919671589714 5.507266663780855 8.005317087885294 -0.1148007845926797 0.21974884476099574 -0.7522525915980787
P 8.494417464405478 1.571381446960605 7.957025236498411 0.016047283270849783 -0.04677042338631945 0.13664487705096465
P 1.7943474893025844 3.2915303306450117 10.390568835854818 -0.29604273152772886 -0.6403805506164197 0.7919694505717264
P 3.776263852391318 6.235545347037185 3.8539633463383467 0.7000679391747233 0.7955209153684106 -0.8202225318801487
P 7.102198063699012 4.106080582366241 10.320298232359544 -1.7073209996472403 -0.3282028612000412 1.325150425981492
P 6.269317135404228 7.717539913504382 10.083002657675411 0.1402037980468166 -0.2346085354816476 0.6117739426233206
P 2.319778724998158 8.603606893532287 5.834457501761891 0.16177226824621174 -0.7970820892079434 -0.6495159372587846
P 6.666560053544044 4.056948951215151 1.8624608520917383 1.639966324351666 -1.6258414549145095 -0.4678109346443879
Ni 5.2033205684774755 2.977877103658593 0.5694203445271364 0.044810728556787346 -0.47537383459331034 -0.23935222081422006
Ni 1.4115704548429817 1.1506517850928 7.004880230873311 -0.09850076188107551 -0.014247768168265784 -0.030491226610321682
Ni 6.948093962022022 0.7301957288901072 9.296509176979646 -1.033016542589866 -0.7821588922392078 -0.3973904759392963
Ni 2.610315433744035 1.743328611154513 9.152942053870971 1.2115873704506552 -1.3230302943146957 0.6432169916239503
Ni 6.342152227641811 1.8540621514606725 2.5510224674460376 0.1937987005541372 0.7672842891202204 0.28531686046979254
Ni 4.07530671745852 6.830037180976379 10.325426306855173 0.7741882153289054 0.5427205394690847 0.15864015037513324
Ni 8.58229635327929 7.026500496351174 0.6384999055396253 -1.2588786993374514 0.6146695190035607 -0.5397246900655543
Ni 7.661211460072935 3.776760496337892 8.224942973939314 0.4303036817275493 -0.024999864478447268 -0.488487746267449
Ni 3.1607504346771322 8.457756111258368 12.41388272936299 -0.5852946653858694 -0.17836256850472507 0.04268879711777809
Ni 0.08423081333897554 4.793210057176419 10.079499963368573 0.6153565177682564 0.20407205745568727 0.8316659978303999
Ni 8.69113361669853 2.3692354321870055 5.821254899683963 -0.11773055664496498 -0.12341680839646489 -0.17199677418769735
Ni 3.736721964354078 2.8896370191872736 11.607895522269695 -0.6882827736143372 -0.28264291318205514 -0.4622678933389716
Ni 1.2750385189847795 3.2589233980799346 12.66880916415051 -1.57803564828514 1.5676892720538098 -1.0688636341954623
Ni 3.214794325954337 8.590170417304973 7.896865400766394 -0.0999061268690344 -0.3113945313934508 1.0085548100030757
Ni 5.585591929100566 7.765759525771763 3.358238642559858 -0.16066566544559427 0.38175045540919417 0.7904026203052389
Ni 3.083400397470693 8.458424323113759 3.6145132399150746 0.4107573841645055 -1.230741317671287 0.39258611257211745
Ni 3.2653436498256476 4.344587065291023 9.212863500508634 1.2119141576624546 -0.06310001378427843 -0.38013785950643564
Ni 7.378964190289878 6.216916684095686 11.627627637761583 -0.6551787919715167 -1.0076837202520321 -0.7570741813564381
Ni 0.6457138846108633 9.169401737249434 0.06286970570232454 -0.6042480665599207 -0.8290650698724432 0.7233227959376058
Ni 4.542413894046413 0.2516377488722019 1.5364709894724176 -0.18208192633784123 0.15417131597050224 -0.0425728403652041
Ni 5.868597709638392 5.4937669783239755 0.4419670600123096 0.22367003419227285 1.5213163412162252 0.5141198450132565
Ni 7.859047318718263 8.55068270860736 11.391481568066519 -0.6491379850940757 1.1466605878702834 0.04104277687392286
Ni 9.103844736301646 4.793715731012932 5.83074350803051 0.5219334275204044 -0.20317011446670816 -0.6728594970807316
Ni 7.966177932939276 8.838844556299618 2.473760923160988 -0.2675579938244747 0.11939277483873631 -0.2157222401001059
P 8.566674643687048 1.5808628313952025 3.619561851379249 -0.0780139547816334 1.0587807960381637 -0.7314166286893339
P 1.8589292621370992 3.198531494176518 1.5594141338261556 -0.8334647416020355 0.39998086237429176 1.2029075832884704
P 4.886570089242422 1.1551667300616557 8.374813863213504 -0.5979018126269187 -0.5096641232347481 -0.2536704372091051
P 8.288265077127518 1.491900355728866 12.18279881596701 0.7667129899977828 0.972982569325421 0.30769857059910233
P 6.498667309932169 7.661328848642126 1.2610458015373016 -0.858744856325063 0.319098842016244 -0.4578893046553018
P 1.904801103020675 3.1509530040947147 5.929256898283964 -0.8852310755410495 1.4779019787863321 0.19388843205446607
P 6.897246651782767 3.957448593991505 6.178500823333679 -0.2371477569637335 0.44612496503052196 -1.1188620776007765
P 2.5124946360488027 8.530537024156324 10.226291660174002 -0.7946804217449862 0.22535693497639253 -0.6042683782748949
