# total energy = -340859.2340989253 ev
CRYSTAL
PRIMVEC
9.38161680849983 0.00000000000000 0.00000000000000
0.00000000000000 9.38161680849983 0.00000000000000
0.00000000000000 0.00000000000000 13.73094450760184
PRIMCOORD
 96 1
Ni 2.6685914503706494 1.0537150277599157 4.429080881852387 0.0309851355276047 -0.240537756481889 1.1366615676760425
Ni 0.10442302134124412 3.7600018134897653 1.990094177138168 0.7516599523194023 1.7781908871849248 0.6207586626204341
Ni 8.236214998804343 6.043083875960894 0.9455872060370517 2.3636657869024003 -0.6713862549693147 -0.5669824973402429
Ni 6.128522258020686 0.11900299164530927 6.381675799417566 -0.8211224179865987 -0.6671814728593477 1.1428286157187029
Ni 5.081308690540492 -0.04034939468551173 1.6103516689413104 -2.160325208296099 0.9095094884724401 -0.12489802092768168
Ni 2.9807365967298636 6.4601999300687645 6.684511567659078 -0.6413704253335148 0.09135232376175235 -1.4064952449085715
Ni 3.5290920849691068 4.358342554788695 7.440812463390544 -1.9687741661255578 -0.9472131736708009 2.1360385678345923
Ni 8.300798047239569 6.689402204374546 3.0284561893890416 0.5520788407555332 0.7813037433277641 1.4569269191965617
Ni 3.4905993122018595 7.097202313233116 1.6221734439751903 -0.04244762764124948 0.9686201785916674 0.9113915359865012
Ni 5.194891922296053 5.343993954367675 9.533298541883578 0.16436342601215564 -0.8608511040347884 -0.8732098827104574
Ni 4.828699282904395 3.249548056174159 1.6663599198358918 -0.32191317153658755 1.4794029888118907 0.8087806085917942
Ni 1.1427934770470263 2.638842344242221 0.41808236061409115 1.301586779728939 -1.3049500397742169 -1.7585468877017518
Ni 2.1977374965769902 2.1601172141503118 8.772699927603567 0.8979726914774341 3.6399557397377635 0.5853586858545854
Ni 3.5433239972986015 2.278522596820414 11.685939545793037 -0.3379547983804825 -0.6265354172032113 -0.40240541265538443
Ni 6.288563255007396 7.99267761438685 2.7993965156550513 -0.254070243750685 -1.3148529007102259 3.1821196569179
Ni 7.0766847178049 4.213424723705178 10.563558590068697 -0.7968470903790018 -1.1111575098676671 2.0115262123811033
Ni 8.374021564531397 6.049557191390922 9.547660858683331 1.889889378703197 3.11682880612989 2.308324334017618
Ni 1.0859033541953107 0.41120563567175816 8.967802840179612 -2.2376279959433205 -2.220872373751536 0.5363424038568827
Ni 7.127467408272634 6.001335682245503 5.007318695175284 -0.28069221721358756 0.3417230071736631 -0.011960771906301982
Ni 1.704564676974586 0.776242459902576 6.816754834762933 -0.01821986544213636 -1.7889054453889512 -1.0058908900176675
Ni 6.5069203805637414 1.7501124253989062 2.7984621066451516 0.9810278082274008 -0.4418214525591617 -0.04151843095876075
Ni 7.885276867947793 1.908689890201437 12.854346712386526 -0.48833270874682344 1.013045241674262 0.25840666634250975
Ni 6.370145792658867 5.103946531312457 0.41075531807662585 -3.9006116071257657 2.110750482691765 1.5226219474015261
Ni 0.702510458992912 7.42722882076571 0.8416229457458486 0.9776666050646518 -0.5693057461567808 0.658488315960724
P 5.894225765919969 2.7158185081601505 6.775575167011397 -1.0184748973302653 -1.6229692755730374 -0.40424812229107804
P 7.346424957289155 7.874966471342577 11.442641392597958 -0.5387795525434657 0.07487952291770976 -0.13504796487749
P 7.169478287251852 4.9240446520570975 8.62137163792101 -2.53519616297664 -1.9885338652509885 -4.13316763095376
P 3.308352028805187 6.160185213928425 9.047195708524752 -0.03236941746964103 0.011740685475695909 -1.6054346091233835
P 4.001334518014424 1.785246579435792 3.1256572422983506 1.8691742576430326 0.6895796380488899 -1.4969769931399122
P 5.723058171686865 1.7750299989962277 10.84566098570099 0.5570798935145502 0.283632273678518 0.8210059470133925
P 3.4080223231944715 0.3576169036893564 8.312494108611475 -0.13122550580760628 -1.5394397902898131 1.4100508234703135
P 3.2771862985754048 3.661757524818399 -0.42487840365396295 -0.8662005412721598 -1.1578477148353543 0.6499450543764033
Ni 7.590966174679131 3.922153674203659 6.501587869708049 1.2217936215596958 -0.19494849788786425 0.49813401110796146
Ni 7.013086739109026 2.7012019495514807 8.823052001870956 0.3188473881270702 -0.6923903680248076 -0.6984221760411843
Ni 1.4637385797444513 8.04218440500171 12.426861157489078 -0.7308959802991736 2.1180218195421974 0.7412719242168588
Ni 1.1750193299486822 6.327093554240904 8.477209965132653 0.4433846832812235 0.41166678335265233 0.28076857897747776
Ni 4.245040771530093 7.657556889059322 4.477633562062558 -0.16350827710071195 0.0358972281172414 0.35569078220766487
Ni 4.647437069247075 5.189413058221944 3.6283608461693992 -2.8858290710454235 0.3348939000669716 0.5414018206576612
Ni 3.797819109864314 1.8858831803312985 7.0745532145212735 2.8196882135522925 1.2787700389447396 -1.2871441219410478
Ni 6.427439325022888 7.475215789496996 0.7502563201784719 -1.3140882546300594 -0.1917850125582181 -2.5143586574059986
Ni 0.22517662263763025 4.047811046478705 8.583103085789674 -0.1961260631357332 0.7765091501525981 -0.9126634607203895
Ni 4.323095821353027 3.3049089755257377 5.109490128540867 -1.8831348335881828 -0.5548227220492574 0.3649177001225716
Ni 2.0390099259094154 6.3397774998371315 3.7505657835484305 0.5631219859435721 1.7585931675586552 2.122929027035828
Ni 9.256493945125685 3.9444068686964475 11.39997942942911 0.6362431314092785 -0.12169391216808718 0.845086385001364
Ni 6.364985903547976 3.901776803023922 4.411120715099859 0.06632340581758256 -0.3246585954922086 0.18291624931367853
Ni 4.439596735860382 2.8994167443422207 9.517164975876307 0.5764634402474846 0.3258844974795097 -0.6885406552614142
Ni 7.749046413803703 0.7325184977385415 10.476120047357194 -0.2527803212946679 0.35830430857111195 -0.048589993093561476
Ni 4.059097131206709 4.981713449083729 11.69962920068506 0.06864022687621726 -1.6165034653430352 -0.17839522151487341
Ni 5.714248833732088 9.316245461029803 12.466708635688349 0.07981629809769479 0.020378563656352 -0.3791958073081405
Ni 4.621421846511618 1.73908902593473 0.05321065283482188 -0.5081119482562798 -1.1831931355786782 -0.0013166619288945067
Ni 1.6539977636878533 5.7298129356138485 12.736398214443152 2.44653604133507 -2.646903910466293 2.6967437168065556
Ni 5.415003410150101 0.46351096250803275 4.1111819900537 -1.6498141636800232 -1.3813765954640724 1.6105341351334779
Ni 2.794642850541436 6.752549865475287 11.097912015584294 0.16970952081541738 1.3643296672841148 -2.821971096049198
Ni 2.1863013059839425 8.647974149853452 2.680952668357031 -0.11174811380928497 0.9383025014447324 0.5151092055097194
Ni 8.302392922055663 0.959007608533651 7.568922190235748 -0.43462622036230303 1.2763889403070727 -0.33186642609455747
Ni 9.3490811190082 8.206137536096131 10.240716524501776 -0.5261983734443454 -0.8928921916307331 0.6302833142814177
P 6.681615462625383 0.9245123425848594 0.6652344818941782 0.495045859100941 0.5425040525829044 -0.34589950714885587
P 2.3931002799318914 4.700302478592295 5.046382808391355 0.38845769222604065 -0.8470039137390509 0.7631718096137438
P 9.610903274111381 1.9443681779991075 5.875663299383953 -2.4552153142766233 -0.21819127046588876 0.12286607809931743
P 7.66187243267934 9.229343546785833 3.7817080597367996 0.54332320605009 -0.07868269871388385 0.6948108045408421
P 1.2395460886845164 0.3078530567806098 0.6198302722033063 -0.35928004222081994 0.4733264651459784 -0.3954914591443705
P 2.056628601818967 9.339540014961337 10.809521122368308 -0.05851727950960245 0.048603877050632426 0.8404476006777719
P 1.6536412622583736 5.60168819818214 1.9586779577460935 -0.8453134134105054 -0.9503378353427117 -2.7873635332776576
P 8.134846631816748 3.420865756272308 3.5835570599387037 1.0806953367230678 -1.2904585310262615 -0.3868294125939983
Ni 5.834840133061896 3.3489181388333558 12.884733768441393 -0.05278294812898652 -0.1363330022375007 -2.3137120806920928
Ni 9.24825688578139 9.105215378010923 2.232061078942638 -0.876466184864226 0.18365261325907084 0.2053002734358335
Ni 8.043835569517194 8.819601443298254 13.470893418791993 1.2898316960755398 -0.23380917950880375 -0.31974444602004287
Ni 1.12227588161881 2.7111089366443917 4.140222784131451 -1.4412748144816019 0.9672870616025405 -0.29649627412537966
Ni 4.349523835217354 7.8700598858789474 7.8294121557866605 -0.46311969981630563 0.4927146398646031 0.9588340457391811
Ni 6.119797354614996 5.755021339324693 12.004250290558938 1.579258722058964 1.229153918579509 -0.017859396778924078
Ni 7.160274921401336 3.3204543141743676 1.502096257233159 1.6960166303780144 0.08813973036172562 -0.4940816954154587
Ni 0.05985002287805391 4.891912615321094 4.52197108194996 -0.0025222522012214627 0.746173218173218 0.5811145658662508
Ni 0.39716886096682136 9.360723705165684 4.704523267885004 0.15579599605811878 0.9732869879397174 -0.7077298265953553
Ni 9.051608820957048 6.3555949053661545 12.395651333661439 -4.639988114092125 1.2788415156126234 0.17279098795421854
Ni 7.489597807691535 1.5852492774976539 5.1299223512583385 0.8493996676647371 1.1113071480716539 0.21900682438864863
Ni 3.2473246130481925 9.246962222695386 13.673397488676367 -0.09971226569067343 -0.6778574645159551 -0.0462222641923333
Ni 5.169270727456338 7.3552155320108 10.612042784477943 0.26582969827945835 1.6694159970713507 0.38906010169672994
Ni 0.6851197563658961 7.182940907022995 5.87488087256241 3.0335795710912463 -0.35200484871564536 -0.5258181072867911
Ni 5.398951464206948 5.116724293074336 6.834110825408658 2.4320771855972634 0.250109202220408 -0.5669981810695267
Ni 2.4472697339796827 4.181067528171608 10.113101208849562 -0.8649478998119812 0.8361656854729664 -0.2952338624731883
Ni 5.5305473997678005 0.6615991054751413 8.950323950356882 -0.21582277023371216 -0.7048846438370763 -0.39652144307078163
Ni 0.5588328776193215 1.4920053904555692 11.887303749264733 1.1343501459340464 -0.7450589020631169 -0.8050537945595102
Ni 1.8383090027288829 3.107791829873133 6.4960817989459 -0.34450262680132926 1.4007619419692197 -0.4826315445969882
Ni 6.511780057944545 7.496286900302563 8.412579070452944 1.79642875034919 -0.12918584966975816 -0.24086377236274
Ni 4.074736286020991 5.462061598841428 0.3387063791787689 0.3218553217154586 -1.1217252580811843 -0.18674385058988485
Ni 2.5677765987604024 3.250467454597554 2.4469779657045034 -0.34373360984578866 1.0946507704618953 -0.8267811589342728
Ni 8.134424459071312 8.105275776403058 5.816551609729584 -3.407630600973654 1.1205716040927152 -0.7615561283871917
Ni 8.509492107733701 6.083274721326453 7.004071943751471 -0.7025819638458287 -0.6146152687268576 1.4344984149897166
P 0.0452053194196885 2.4057936071446844 9.759488379110255 -0.4439163874149774 -2.041877570979451 1.1847342548135533
P 2.4044895624421136 8.590530511624387 5.406738205956111 0.3083266911014045 -2.396870555789143 -0.44472859890362765
P 7.945009620618782 4.185111004911234 13.40847283297506 3.4476935304328107 -1.4110263000097054 -2.7418442086896198
P 5.680812752293514 7.135666941150667 6.231802598464281 0.3931802945126906 1.7672696122867306 -0.7522626189004077
P 6.105330901871372 5.780023347471102 2.429196049666716 2.001400436801011 1.0928659106473306 -0.5306762067100409
P 3.829285051824185 7.270443244727142 12.893136882398894 0.700574960718129 0.4540251937142052 0.13267997886594568
P 0.7990904488856015 5.902716128911527 10.726517269807202 1.0311681765272176 -0.772381758247786 -1.4378351926724335
P 8.999662810035224 8.436174774276221 7.7382659982085675 0.9747373472329988 -2.5114471401861582 1.6935481142328639
