# total energy = -381165.0672200154 ev
CRYSTAL
PRIMVEC
9.25101116428666 0.00000000000000 0.00000000000000

0.00000000000000 9.25101116428666 0.00000000000000

0.00000000000000 0.00000000000000 13.53978994547746

PRIMCOORD
 96 1
Ni 0.4672879860473175 8.960112830907043 6.1816725528298315 0.6499000600710807 1.1841688692283865 -1.6627362710583298
Ni 5.274362085065391 6.667638329818915 4.839634881968907 0.23740023929417178 -0.07914549728291531 -0.552952501609738
Ni 9.070014840014606 5.2385791750293595 6.439361310750117 -1.0732607348218934 0.5770936176323157 -1.4270010781714069
Ni 1.889555973758937 4.68866208501337 5.3493544795628285 -0.5578442824844005 -0.2484068748173206 1.6583049747598535
Ni 2.2339063512851 8.272540699180569 3.3705956335126728 0.17948665480683926 0.1530739691412654 1.3553056094086338
Ni 9.171627943384763 5.540125125270953 8.567328785983351 0.2985349018219633 1.7616934037505336 2.4222545430798865
Ni 7.520396511597967 6.349486815069907 3.159591176834846 0.45468365323381044 0.949730540776016 0.4013036949507734
Ni 4.133740198117985 4.7174604818443315 5.20255573871077 1.1432675030283341 0.5334290868648297 -0.03161711268464877
Ni 1.7186713010118913 8.719309018022374 8.437576882857092 0.29299288895781156 1.363128190776846 0.8022206959860894
Ni 7.8593905538317665 0.9866295600446717 10.404244657703241 -0.10769271279298873 -0.22576522615840472 0.14110908346990536
Ni 5.841060508795282 3.0636110139819945 0.1571441463053401 -0.1181848705735642 -0.22745238405284054 0.04121246968256773
Ni 2.243462645511372 0.7482846658486216 12.767926964742855 -0.8626948421117464 0.49530656896149533 -0.0769322916816804
Ni 1.741493544822359 1.9093531370156864 9.326098547549355 1.4371996159709635 0.5831202834423699 -1.8403498772121725
Ni 8.851709485560038 8.808516515819026 3.4786964708043064 -0.9917068852078019 1.6719133095719076 0.9631108187376639
Ni 6.7142171695374815 4.153491106320397 3.268099058604656 1.1407352235247836 -1.0738492603355119 0.6764310164820737
Ni 1.6166048981092191 3.437629383360679 12.49799726924251 -2.02139204943159 0.2952598306151173 0.01785785411702731
Ni 8.629962755062706 2.742610187885755 6.160983592125441 0.09541312409468729 -0.4678001360111105 -0.8969933582833004
Ni 3.280056915252167 6.6590903957772145 8.977367816377365 0.7607174345359802 -0.015326603054741346 -0.03173975430544211
Ni 2.9246145756957036 7.770627104556761 5.804995442927787 1.426789476381233 1.1812023304008947 -1.760180052429801
Ni 3.3432690725107514 8.960085077874439 1.084755032317729 0.06811572183131495 -1.0014194845098754 1.0636448089986843
Ni 9.050569215170826 2.02623040831745 3.782042667760742 -1.9688451285728092 0.369697380899402 -0.5635228209264166
Ni 0.3899967153492722 5.8658994729748954 0.12528644018044827 -1.5223630373131847 -0.09038944562785078 1.519070482604842
Ni 4.2993147906270055 1.3178805061822565 8.09550780461089 -1.4257952307887638 0.14352026401455928 -0.32058853918789304
Ni 4.341610412313855 6.6309765737504565 12.02900617209446 -1.1903667705089822 -0.31477270383706435 -2.9449808988152313
P 6.253544581361613 2.4252172560278944 4.43559420702147 0.5967049641053401 -0.4902155275918332 1.0004458077426963
Ni 1.5574261815889263 6.905685341465026 7.267455372454955 -1.187013280655717 -2.0221397262308916 -0.08955563687264576
P 7.874904499056799 7.639364511355819 5.1187036511053945 0.11193631856069108 -0.49145968441157944 -0.3915065063546935
Ni 2.010401928722918 6.355055923612227 12.229639320488577 0.9431814268035885 0.5157890051855633 -1.261489397487421
P 5.368824157034864 0.27091307795557656 10.0413922584418 1.250248277355963 -0.700127074547433 -1.3221913433531682
P 3.922012312390309 7.187036334982561 3.2567258658439795 2.1323505774600435 0.01933958086887637 0.9681026155253004
P 3.000879909288528 5.365493793122513 7.126112877812631 1.085030730873628 -1.021091766127822 0.5277855154258071
Ni 4.98363056652807 5.36401363138369 2.687079144950572 -0.9177182495354775 1.385424283170885 -1.1674420433920087
Ni 5.348647702332541 7.105636690358197 0.23262961968202203 0.7002438026309553 2.188673677531805 2.9958599450532857
Ni 6.829595777078687 5.4017947597671325 0.8441824947047513 0.5657013166349741 -0.8610519071916849 0.7114185883008521
Ni 3.1687024974383853 2.7448674345374586 5.874671281479591 -0.3911954028721779 0.016732482263332474 -0.09774305777944457
Ni 8.551967482437634 7.670531166968897 7.3861180888541735 -0.7358342981410553 -0.2459049343310733 0.19279519899028733
Ni 0.9939471096409749 7.1330381845481465 4.865820793330848 -2.3732146069330997 -1.889225519866953 -0.40547710960217265
Ni 8.357372468836827 3.598559968414144 12.823304440897637 -1.0616180083766427 0.2742616310968954 -0.10097416312223256
Ni 1.772789714587585 1.2764359774952294 4.462430464447407 1.2593749222475794 -1.273920424161922 1.2397237236755554
Ni 7.930965624914697 3.7647543786512965 8.017816890243362 -1.330403189739999 -0.6168328452034667 0.4753026150357427
Ni 5.990658605535888 8.493741620036708 3.6244387462152803 1.7582620094714814 -0.343810228719995 -1.0014325971359979
Ni 7.068475379702886 6.478094368151839 12.242799808548881 1.2109777618911144 -1.2119943760810867 -0.13814640129715564
Ni 7.461310305186352 3.2594549140499334 10.423119495176488 2.0009432946589345 1.809193506214026 0.527679328865246
Ni 9.205061096660414 4.659206866410803 4.226878450432297 -1.7070358643066534 -0.5259695452629909 -0.038048470132289305
Ni 5.895299185512256 1.859212658113078 11.392622658801898 1.0320778328256806 0.7184055611416466 1.6321553129476793
Ni 8.9783928283815 0.9649914456252618 8.275424239268013 -0.6516962327395551 -0.17896266398256921 -0.03315694636794289
Ni 0.903463897445675 2.5541578455010607 1.019606638484548 -0.6924482178459365 -0.47832186147804073 -0.44573081491589694
Ni 1.4362471902337102 1.606586053339565 6.8260979698696325 0.7736171733167838 -0.05458194901093826 0.6290401859029361
Ni 3.681541535896875 1.8536713026033613 1.7606875421705384 -0.5047175778627502 0.144065594995068 0.2140458808389475
Ni 2.4655794164434077 5.5561016210393674 3.3855563682878205 -0.24051281678122452 0.5309587709474662 -0.27281692823056886
Ni 9.010836123494313 1.4320379802889338 12.49891774482384 1.0668201214028723 -0.6251439361723233 -0.25146751602051537
Ni 9.187854216446604 5.195987520994746 11.4290577651041 0.3639975023011473 0.2946270821271248 -0.992857196762161
Ni 8.004150371888597 3.3968416764452547 1.5024835029449257 0.6060159570936209 -0.19089618219536156 0.9928407417019289
Ni 2.084761554077008 4.425776109187644 1.3065609692846123 1.330718921208205 0.9502334485543634 -0.4332565937082862
Ni 4.237573544096375 8.397022301415532 7.531318255028304 -0.1245763759222048 -0.6160041786545842 1.1413944543753376
Ni 9.077360142643512 8.060322509876908 12.136783224005725 -1.1458800009505168 -0.13237376047943655 -0.7717592941724386
P 6.859310023985547 7.0398435010675415 8.29451555039556 -1.6079347498374177 -0.9752844779857203 0.2831059688614027
Ni 3.0418526364213054 6.790982057717158 1.4109947058683132 -0.630697776111017 -1.6316302936821447 -1.9393746299175183
P 1.240468047241845 8.073949248884942 0.020571472866371027 2.255030507690484 -0.6539680594928673 1.8419069372866472
Ni 6.947370396434612 0.9556109206054749 13.505858824329502 0.39107096147917164 -0.26959045087347117 0.28464580254469685
P 1.0219776725699241 7.072786350767208 9.969577586177397 0.8552108750298756 0.7452787313834068 0.3302386606831474
P 0.10485835798252567 5.154431980177307 2.2273899392299343 -0.3154501895200632 0.028009597839048533 -1.1722808595415488
P 8.910619922765168 0.7277002415670359 1.182094168667037 -2.1029836942621523 0.31276158694430656 -0.07682559090048705
Ni 1.4697728536180374 0.6945177906858981 2.1996877871867864 0.21640538221005956 0.47335603283233313 -0.2515767879048699
Ni 1.2624299470416225 0.2836239668877139 10.667769878379922 -1.5751704109222033 -0.9481164022113607 0.7740910276294088
Ni 6.105870694881476 8.364116455759337 6.256194995975192 0.1524255369239891 -1.8485879488512487 -0.5157650939261633
Ni 3.8683934534014672 1.4863506650928484 10.634732668369406 -3.033309605259311 1.907771144079624 0.1375563331216405
Ni 7.767370748731353 7.702576668614402 0.7382676712811411 -0.07583880150718553 0.8412767814472867 0.2707875565053659
Ni 6.915047364463078 1.3036246984352233 2.439314871489091 -0.06718318271471656 0.27185867808235764 0.4788913608282655
Ni 5.726866030645134 7.343332163591339 10.13187824594036 -1.4428580998083216 0.6396429011194468 -2.02187618815686
Ni 1.8464185100831316 5.0776948450302335 9.885021496644994 0.12140132062833285 -0.914353961048935 0.26142334168164655
Ni 4.540793927305011 5.012336453250358 0.14777287229642078 -1.5100685362165478 -1.3329400972292398 -0.01766862092435667
Ni 6.727640386306427 4.969226742607155 5.747464331443021 1.1084030870509813 -1.0366171154569308 -0.8839874329419356
Ni 5.834566299166198 2.6907582719726326 9.004379843009787 0.0544878466352352 0.20578569771268432 0.14589802021811646
Ni 3.308050474137646 3.768260511770132 11.174252547271255 1.8655610863704775 -0.032782593747659676 -0.3364735858492657
Ni 1.6271140464548584 3.2962091802270668 3.342608550334802 1.4399470968091135 -0.4007323958283357 -0.4564592570769945
Ni 4.505159033442863 3.18161690860961 3.3241537087549466 -0.23041223801211286 -0.1332170823163383 1.2204538197023496
Ni 3.5436829719473035 3.6572853854019227 8.64252932822531 0.3487557456507284 0.44313760026742394 -0.3294778712577229
Ni 6.185697667658341 8.479994617887396 11.924086757440207 0.2360614658780902 2.8029408188906246 1.1369155926683774
Ni 4.518045691581485 0.8157707901280554 13.162733280642215 1.6037621065169672 1.004430503422057 -1.084646865171648
Ni 7.324256579182265 5.729308297514191 10.04308426832949 0.4330776449282606 -0.9041050296274171 -0.7880269209842106
Ni 1.2928842748178933 3.8164120233361984 7.615928925524825 0.23801087629497722 -0.20020820362490682 0.37664707274435777
Ni 4.093822086224119 0.35714360045502236 3.667089606719448 -0.4516178698242932 1.310448086774311 0.6504219940128217
Ni 5.0379525023428515 5.107594112154446 10.197479014204967 -0.25877819074931563 -1.1195287646504977 0.0543369228796677
Ni 3.349911298313717 8.548313333144916 10.49657252146555 0.44656102412667603 -1.6935167467742962 0.10514783488394794
Ni 5.235572596497377 5.9915374515683135 7.10143025571668 -0.7508899069225972 0.15880187276397814 1.5561565888238618
Ni 5.238551421996758 3.1641324980697703 6.67389756377196 1.8633134279868813 -0.07202097042299209 -0.07303758461296454
Ni 0.5564103745439876 7.381696105659442 2.256595380539074 0.17764625916399082 -2.6696049516082345 -3.09208219531283
P 5.845917289500792 8.887732921878628 1.3727454763349691 -0.6662455913086397 0.28955326714864327 0.05955497674549743
Ni 6.661541913657139 0.8719716062500551 7.381432451849714 0.7136842444065773 2.035832393226636 1.6360600473187246
P 0.6742858299183695 3.2208504456992717 10.431487034506269 -1.5941338393985836 1.1956023078763087 1.1543070486719476
Ni 8.370360888094993 8.086567627708403 9.928727897489159 -0.4839543771734697 -1.0574433081736627 -1.2695847729010457
P 3.3812722251550165 2.9447910303980267 0.058891935183396124 0.7450897553010523 0.6059035998854727 -1.2701781835106705
P 6.278725832943329 4.476591911883591 12.022114168998069 -0.07588379581250802 -0.467503173595982 -0.08417534639733891
P 3.727565314963384 0.7074525540810324 5.877040465362794 -0.31071678860013585 -0.952067930659941 0.31960843466281086
Ni 7.530221085139401 0.6205235802610798 5.175137592701259 -0.15120811957712021 1.6457425647138109 -0.4004277201037233
