# total energy = -381158.43997332687 ev
CRYSTAL
PRIMVEC
9.33460634627345 0.00000000000000 0.00000000000000

0.00000000000000 9.33460634627345 0.00000000000000

0.00000000000000 0.00000000000000 13.66213994424929

PRIMCOORD
 96 1
Ni 0.46792699897545886 7.709385794120648 0.5442747418551209 -0.9359640831195428 1.4588182226820037 0.4944596475801678
Ni 7.859504928610283 2.162697537207164 4.742538082637553 1.2032631668556761 -0.08310011105528914 -1.5160532930450727
Ni 4.4379144157361825 1.7384396922529348 0.8037945257854398 0.2814455504398443 -1.8172230613867217 -1.6939713178132116
Ni 7.148656008721296 8.071428489754306 7.848379945120372 0.7587250866962998 -0.19036113562749798 1.2928982508160056
Ni 5.314835311853568 6.250937610325406 2.112931951974942 1.0787811504194906 -0.9066234251738967 0.2748951509158363
Ni 6.435482771925958 7.755984147520241 3.7677447755507383 0.1290074151103649 -0.3551714193690851 -0.5748302755194358
Ni 4.420729405998872 0.49656090303260075 11.591901417972403 -0.5498088137744337 -0.27049367941403096 1.372123966517553
Ni 5.339273310491416 3.08467657672596 11.304504766535565 -2.086047580628446 1.0801870296280818 -0.8577907199419097
Ni 4.402377570505363 2.7530366929958414 2.6637213153920776 0.37142130556904424 0.9173989185228458 1.6866832687922306
Ni 6.604401802999483 1.6245761676599382 12.253490688277058 -0.7379284616659227 1.9363857224925234 1.416532060319283
Ni 9.014074347066913 8.299108865910052 4.955490317368244 -0.42596314537066643 -1.7848366746362165 2.1777930260635587
Ni 8.739375560239342 0.5254916475621199 10.53577755529665 -2.2129214943355757 -0.16762178504845326 0.9493014236583973
Ni 1.6333880357707586 1.8437993907347474 2.4561243441520424 1.067783513757406 -0.4221921083640084 0.5156115990674346
Ni 3.1993802158634197 1.7426495995813034 4.441301944271582 -0.07619181397123008 -0.03198580887797717 0.19020275567276276
Ni 5.6491168890957235 2.926501677215521 4.95241643159611 0.15996658249604062 -0.9050241990075769 -1.8082149443508406
Ni 6.190029305851779 0.8205725466989873 10.300269178507712 -0.16276985627279064 -2.45724442889151 -1.1913250206571935
Ni 2.0730573153128744 8.868687857844423 11.241727673930809 2.458652107872314 -0.9864762329364816 0.8454892768667375
Ni 3.7193924496744253 5.035226522243909 6.621738033354797 -0.05336401744343713 -0.8545434166492057 -0.46380901257384644
Ni 8.285302983562696 -0.03604931510294255 3.1650671374857025 -0.35842000821336983 1.5971155477347267 -1.8068144644588882
Ni 1.2461325691971357 8.584318419149469 3.0935724562912266 0.17053690181271922 -0.46256434153346787 0.007608665585193348
Ni 3.1186452081404465 6.895408146595702 1.7625939188668747 -0.18220122552452492 0.06074205507506313 -0.017975096421181946
Ni 4.145442538990178 7.3570417541725215 10.848066800685952 0.04831977015131033 -0.34206264990126894 0.07278767338568755
Ni 3.2614553460932463 4.120500471625652 4.150967692310935 0.04902245264528977 0.9692123036497113 2.334269336018154
Ni 5.931806098701749 0.7923699014413368 2.857887655447951 0.9693763400314014 1.337431300231374 1.373435486240125
P 6.494664174280409 3.277044138196075 3.108191382825502 0.8415662876632474 -0.3558113669459292 -0.7613059600495985
Ni 0.7462737498472121 3.576264935115939 4.4471080692344325 0.3798072156398943 -0.5892981301183077 -0.8731237507545544
P 0.6674999428552594 0.6343770267488658 12.24948800920299 -0.789927223330717 -1.7275848921025991 0.3247218446299763
Ni 5.1773458993490395 6.714494146748442 7.479187874713326 0.5777816448382759 -1.4957397782987016 0.6449830823854377
P 5.530931441901762 -0.10838224392067254 13.569496517597853 0.6421512693635973 2.2382329765171707 -0.3406197468071553
P 7.530226700210713 1.8821646215985952 9.329683911828056 0.04940708967821813 0.668693281518184 -1.4817910294280932
P 5.861460507511978 6.612914963716717 9.52566676622118 0.08413472296739058 -0.646033635137139 0.33962910075911185
Ni 0.22913657469948231 8.763514851483603 7.515228788670824 0.25888771974398644 -1.0407915585495946 -0.8798659545743944
Ni 5.351613659688984 5.311353503797068 4.403731088382555 0.5154827867990541 0.3238918925295131 0.2396702662752711
Ni 5.751704209580804 5.565889541557507 11.890269031899335 1.1471768653850694 -1.3535297484551334 -1.8403195381948692
Ni 2.73518892622901 3.019577034136063 8.724505532802333 -0.2583040793263745 0.979692377245429 -0.727269953510812
Ni 8.768350177417293 2.7119550917715602 2.2027738013599034 -0.21345864087690983 0.62758082774859 0.8943536066676081
Ni 0.49320044485474546 4.17954185488936 11.594894092671904 -2.005483862841766 1.4153616941602656 1.4197888766936837
Ni 1.4385187998793505 6.11033977400636 3.164397846231946 -1.087803922743391 -0.5883000278710965 0.059094235058995
Ni 8.968222762151287 2.1739737413150784 12.905079795120777 -2.3017615931984357 3.8239955611329237 -0.577257911124322
Ni 5.368864011668642 7.215967852944947 13.216698815795716 -0.9533953912221128 1.2501947984102082 1.754255973635882
Ni 9.063090363433352 5.9725049810779955 10.023666132046024 0.10148067044500587 -1.6990042522514286 -1.9386719474235385
Ni 5.98821512305947 0.5920100502715553 5.393621253833386 -0.3150673522593477 -2.0351183978787466 -0.6681312383671267
Ni 1.659086206225302 5.885431775847345 0.3191165762539773 -0.7745980491728143 -2.836851098484824 -0.03168267581526156
Ni 0.4065444965145123 1.3022055477370709 8.663886601116243 0.6087261569359323 0.9843581581522143 -1.7622001681836232
Ni 7.882645417007237 4.835129906964727 3.7924189397216406 0.3950014068818294 0.40508141682565074 0.08307208603083112
Ni 6.924616128924893 1.9762294467603945 6.878927899615136 1.877818563581592 0.6464833210800479 1.687943366451577
Ni 4.118857580960923 5.13807521169838 9.158168926812136 1.089745362740478 -0.3381381180358822 0.28597634843066233
Ni 2.480270169620538 6.836572124665085 8.89498157616493 -0.48277604059465234 0.453906922968786 1.9339174634576886
Ni 1.957429550176504 8.650286080101978 5.813404088647438 0.3423698967290426 -0.1419007261332653 -1.2508290895600973
Ni 4.941665765808788 2.353058158376616 9.049186467722475 -0.10488326836865162 1.231768987604853 -0.24824618086974024
Ni 0.9108671244773539 0.9573852002649206 4.755367565192121 -0.7680805597692708 2.1325619221399013 -0.5988119831460139
Ni 5.895942542259194 3.939903848384079 6.850073698855224 -1.4044098231344524 1.0583655628776159 1.6956258226974992
Ni 2.419240515268266 1.3655875228138414 6.745763210093386 0.49339392531981485 0.4908081668705095 1.348588345289458
Ni 1.4221459008683557 3.7100858474429765 6.873968423420984 1.2674965229134494 0.5783251760465716 -0.2844205739077682
Ni 2.7215604013965966 7.711504749693907 13.117334734779561 0.008296178570521196 1.7344121994370776 0.4422605969791093
Ni 2.425457362897298 6.814430439115438 6.765504968427681 -1.0039448220348903 -1.0408260113319558 -0.8042611234548859
P 6.809707128454343 7.76507605381255 5.823036468630018 -0.7421630685725605 1.4199901940712125 -0.08358476400119152
Ni 7.7202139371381815 9.233493596868763 12.629049893470533 2.119261605486569 -1.9989910560285702 -0.5381136368246926
P 7.9811721838607435 4.635892075442107 13.133783244099558 0.5529756415381897 0.11997512970476756 -2.4650338430289414
Ni 4.371928085571574 4.412468279644979 0.9971487551149981 -0.22023426903784651 -0.0324555494255441 -0.4802057087643149
P 8.803597649860576 6.998266170656223 3.0808531220880444 -0.6908086253599843 0.6018487130898086 0.11297453001721834
P 3.914597731383619 3.147181098834068 12.898248730413682 -1.1790006947638856 0.5840535938899167 -0.14731238406713984
P 3.401745140412655 9.044934554666883 8.24967839303501 0.059217905121052856 -0.3752010843264506 -0.8076117850946736
Ni 6.9255775933480015 3.844102786497055 1.1025196551240704 -1.2157160479070481 0.4410971727986274 -0.1774320862706557
Ni 7.208033437802788 5.0317260449753105 8.273532045334154 -0.3806515659180606 1.049252030612122 2.811041593620888
Ni 7.116152910456596 5.779073274518226 6.280021442394138 1.1373915038635314 0.7230883113292967 -2.6615815670831258
Ni 3.6927981570391206 5.754476587577535 12.790823283613094 -0.9328669322514579 -2.372447132639456 -0.6728391853657574
Ni 0.4655802790145899 5.717959608711507 5.324149381769857 0.031186967125765644 0.724300586469843 0.1619843842570178
Ni 8.600822002645158 5.646120480553802 1.3063939854715256 0.369247437846177 0.3001850358308765 0.6108830553779351
Ni 0.7054721868044191 8.265485614919399 9.812381057955793 -1.1520591331780352 -1.3331946364422071 -3.912332237996804
Ni 1.6052161947130719 3.2002483342260324 0.3179600185644322 0.2618825407062522 -0.11744902084880417 -1.0371390493986719
Ni 8.679802104430808 3.4768327114756215 8.880417723806348 1.927621603146648 1.0449408048312778 0.014694111677065016
Ni -0.15670469905762657 6.5628721406848225 7.56687156317962 0.3475766377409627 -1.3970107024569036 0.0525345795636063
Ni 7.418528804221224 7.529255901181555 10.727525298925073 -0.9542284286463695 0.7566941723092 -0.9471771782265431
Ni 2.6341884887723594 4.112286018302005 10.885460299060036 1.498942087286083 0.02653969816174139 0.4220039036126022
Ni 2.531629172105426 1.0150170580151385 12.990631459565343 1.1041168009708016 1.0020329497241582 1.5477981895568376
Ni 5.607316523205623 0.5499501823332766 7.881374043663281 -1.4413997700952401 -1.800317543880635 0.3152290746481926
Ni 7.390132932618346 8.501520463489536 1.0517085940142934 -0.475787010871329 -1.3772659157298088 1.7810651234089263
Ni 7.0276048374701094 1.5177042629980906 0.8740971777873823 0.3861377858436124 -0.3080603248138953 0.562051892807845
Ni 0.22178370551421397 7.262155483678357 11.73083209365099 0.5266904825894155 0.8729494299602192 2.8292758572407273
Ni 4.161927453273768 8.981104518499732 4.07038857250899 -0.749738052706341 -0.03526705073241023 -0.2772657080305419
Ni 9.50710956939458 0.9100279433934949 0.9078072406142956 0.3194204870217209 -2.1346560856647687 0.8159167054159432
Ni 7.240135148007355 4.216824271451454 10.681702651288202 1.0989501691681978 -0.02274346434410277 0.2820919257745916
Ni 1.038810968835564 2.2117415573917523 10.627409782121925 0.1670970228932348 0.7981264713120577 1.1041466257674726
Ni 4.838219661567144 8.471733735585268 1.901742090866417 0.0775796954576922 0.07451545471007166 -1.6488667121650893
Ni 7.597342517707323 6.844553212837492 12.917307195585146 0.7408564339459951 -1.5408916922449916 1.1638846650580537
Ni 8.632671678486387 3.8807224460296283 6.417339098147354 -1.9774650090313362 -0.143913642798236 -0.36279731134545906
Ni 2.3001869497116934 4.216488225633668 2.235057536382438 -0.7080057059645612 -0.09890956728371997 -1.2049940335038538
P 2.008489845267805 6.232931155255731 11.270336374551617 1.1919251161350375 0.0038625682791998 0.11345686897027557
Ni 2.789086941559389 1.0717714627966946 9.791423000453236 1.4781243792097833 -0.7022847443203841 -0.8374517512742415
P 2.806383966569294 9.1722772503955 1.8774235751860044 0.2564824527366035 0.9346998716951386 -0.7787179848784589
Ni 3.34752974847659 6.739501556355316 4.320378657123274 0.38787353758779647 -0.14067045327059 0.5826587704249191
P 8.840730712725877 1.080583330907515 6.436055916737403 0.38410918544935785 0.3685370420427137 -0.23045029033889988
P 1.3061354168839516 4.708552648932177 8.854555264285331 0.4048551597474576 0.5252586352388954 -0.0597164420240262
P 4.016634310111775 2.9540387650618354 6.13461441703834 -2.9685075211822616 -0.46907514606879214 1.4516859825125967
Ni 4.277153830350006 8.27777929108672 6.310951659539481 -0.2224415611018105 1.554303080554891 -0.5631330416871657
