# total energy = -340870.95250981924 ev
CRYSTAL
PRIMVEC
9.25008998985704 0.00000000000000 0.00000000000000

0.00000000000000 9.25008998985704 0.00000000000000

0.00000000000000 0.00000000000000 13.53844171358215

PRIMCOORD
 96 1
Ni 2.6152039730535726 3.501649357359346 1.1794475382550798 -1.544981546043649 1.9210133538015108 1.6743969952257098
Ni 2.5032038821312796 3.797633740356666 4.3884860204763205 -1.423284548551768 0.28984894401219113 0.1140579928893842
Ni 8.730410787428816 4.240426303319936 9.862957593853428 -0.5420523097574665 -0.05753871764641704 -0.08646131421803818
Ni 0.2465842768220217 1.072732948815525 7.169064954343153 1.9570370801942878 0.5431465712629098 -0.5353617851111683
Ni 5.896627185328845 1.3438253393556352 13.149726433197085 -1.605869125557641 0.1977170617719369 -0.2913499540377498
Ni 3.981951035675267 4.971645925669399 6.533584689530429 0.6363626877062782 -0.4870528135931354 -1.707592251030756
Ni 6.078946461185998 5.559156148236177 10.070799718312564 0.02085447485150602 -0.2932060334098821 0.32364635217761034
Ni 6.607348608018265 8.119766089523697 12.90658966495507 0.21786911123977964 -0.627484411380042 0.6158391138316298
Ni 4.770428715739381 3.5810336305915174 4.413098660212531 0.6146507499504834 0.2840804169595301 -0.7877451280777337
Ni 7.7432411720317935 3.2211126248278537 7.581324819906661 -0.44471754316003415 -0.2882497178458713 -0.06479179966440454
Ni 8.662376374748485 1.7858778951109608 2.962035176317721 0.964152886848933 -0.1983240992283165 0.9780808097839349
Ni 9.218427040887551 8.284121690408014 10.661672348630434 0.11720270916595299 1.1627477232401329 0.5503320332677555
Ni 2.404940175006443 6.7857828460337135 6.087506494563888 1.3179135419134205 1.8886387941255474 1.6999990120645303
Ni 4.961637328181959 0.952102523830587 10.63697738309234 -0.25319452601395104 0.8453455522000215 -0.4519677969645442
Ni 6.205885447618658 0.6797789462982601 1.7443468405831353 0.10361417184824091 -2.58368331194375 0.7308610132961799
Ni 8.069612101005305 6.251571642619087 11.38312202581702 -0.9795535376747193 -0.8037124500402674 -0.137079393485222
Ni 5.626108300374892 1.9253507536281678 8.319385808893564 -0.5090110630317815 -1.1400371690164948 -0.5329963702027853
Ni 4.69882376828072 7.902990228046661 3.127217735256915 -0.40812071787260684 0.439078856817018 -0.35053417770738987
Ni 0.5398065829156912 2.135272298341624 10.823334323277837 0.31125286360926396 0.20413916324819684 0.8254123036112043
Ni 2.473649844264024 6.725490758766492 12.378942325474908 0.3727073713703194 1.063526538253265 -1.9711069280237925
Ni 8.888134073711937 6.019348130676225 2.9347011600742965 -0.3594271093216455 1.2766470790644657 -1.8003715370470221
Ni 1.2872702884885308 1.4983018440139027 4.6617725323879835 0.07188804438955361 0.2518976615793984 0.85464009012807
Ni 3.9560877837576314 6.00479773895003 0.8519073978930168 -0.08483046348283456 0.4286013543244619 1.1076798357317115
Ni 7.9519787052125395 1.696910528535918 9.445324350951239 0.0029819654464593804 -1.0023682215763898 -0.9328926432830706
P 4.9461896777161325 0.6775718748005678 3.5975024910043065 1.4139216192796293 1.8763671758470457 1.2414558758753136
P 1.7778303167245721 2.3585509731584655 2.781229215200813 -0.4212911938162938 -0.9544343740095885 -0.20068154371689953
P 0.7585203382685297 0.5602298568459301 9.31902362073543 -0.39824922439516575 0.5110607464719585 -0.6576385663659191
P 4.594316250338857 8.459318396888706 0.6598043017378372 1.7294962501926987 -0.0979132648087217 0.6383979729687521
P 1.9463947086040694 5.4201920446744305 2.623248776412932 -0.9743483393246961 -0.47581632144736774 0.762832423996454
P 6.563604931938688 3.3710473352473658 9.57591619796411 -0.07889790004848347 1.1774186949887466 0.8458638865973367
P 1.2420743482633634 4.857564564474763 12.29898362164757 -1.614937406407496 -0.878745467816706 -3.035187024787682
P 5.548315042639801 8.965030072707398 7.764946508449794 -0.5183511094857847 -0.8970177837633326 0.19571725773308873
Ni 0.9389858960697831 6.309578957631781 9.910139528422915 -0.150769746488121 -1.2551516281948512 0.5931743252442623
Ni 0.5806263055148809 8.93378326835197 2.0987427675304886 -0.6176519986706523 0.09219256027486057 0.22871556703598028
Ni 3.907210307672944 5.730430816514769 3.3990020325364525 0.8114728107119767 -1.9748627955217986 -0.530532482043325
Ni 6.050705936112844 7.1256774067323985 1.5518034401392289 1.7254045966218283 -1.6471654132032665 -0.5058552910116192
Ni 2.587287201133893 0.2182475508118339 10.487458926727298 -1.3518747293502136 -0.045670505453921345 0.6244466529949826
Ni 6.261321237583746 8.182093196612763 5.004443970134478 -1.1229318767947758 0.08179861863504623 1.8852804191762758
Ni 7.403133859260825 7.356439404439571 7.091720325977877 -1.8201834295666266 -0.6122850779317842 -0.4753339824943103
Ni 0.2060577820789797 3.8619866171774784 1.8259973858896337 0.11748810161685573 -0.25198507908688217 1.6721534506071718
Ni 2.097476430195895 1.2337122668135982 0.6606802852702406 -0.5672295803540425 -0.6146049843142125 -0.41366170229549404
Ni 2.9722112004359578 2.1087892903873358 6.502730088995212 0.08476310058000885 1.143333066158947 -1.4050734248603802
Ni 0.7290421511400885 8.371766294098856 4.960741919460347 -1.1626029701321525 0.3526234561362508 1.1869479746354203
Ni 3.560257928228495 9.117767560426996 5.02035227508725 -0.703378491605195 -0.7731664589326104 2.2033320508749283
Ni 0.2612493696654479 3.149766679891972 13.188053256514515 -0.6255087757109098 -0.9093948172714467 -0.8722572889892011
Ni 3.1897733195714335 0.8044516606565911 8.317612566621529 1.0137798058474412 -0.6655313388504344 0.33114934542287483
Ni 2.5266713607131965 7.698220983518513 9.009968860427804 0.6039235933409663 0.8796245279875495 -0.9224943307678821
Ni 3.860247600238811 8.782155791444286 12.248512355038775 0.49568092158177857 0.22192528358702424 1.6070302357452775
Ni 7.821977938957013 4.208041737882295 3.9583290805886913 0.4736383399594423 0.8652124663272777 -0.6867982186490107
Ni 2.5865841942863463 5.4704570342740135 8.354464000568122 -1.337395304787116 0.38941080016792934 -1.2954868374787882
Ni 9.02991945475397 5.619050481629127 7.337172391771745 -0.26825527700181545 -1.6385776715342553 -0.19464382216325188
Ni 2.2683070941497196 4.199698156612729 10.26255871111605 -0.8124611427671751 0.9973296307112177 2.2240903664682024
Ni 7.3829779129344555 0.5662673906537414 7.101102692365594 -1.1674854950354345 0.3687386165305585 -1.24474817347334
Ni 7.180012435975671 8.592723196300774 9.259698167883588 -0.484474768453314 -0.4922502986336748 0.5664700764801985
Ni 2.6739142949138137 2.1301662486068116 11.897176357896267 0.5279842617001745 0.4414545561380462 0.463524391453892
Ni 4.762011133749021 6.9017974760591025 7.908399680736729 -0.4819707710845377 0.8142524303396428 0.16430866151482026
P 1.6718705346371199 8.802718741735026 12.62642478604557 -0.976063779353906 0.9325064635882456 -0.04180279496839897
P 7.817732147601436 1.856012078243834 0.9449633042919492 1.192465819129856 0.6190383374952177 -1.3063484627836406
P 8.218760553766378 7.688924642968719 1.4557754797913924 -0.04175342978770229 -1.1421161630327104 -1.6186282249955222
P 4.379029653367809 6.89905944938971 5.0795417516146335 0.1709552202970604 0.2777215646210378 1.737842565274865
P 8.445952016695221 0.7553642075266493 5.004322793954177 -0.935034629326738 0.3726551779761453 0.007790185468380132
P 2.0021542517226343 8.961404037388473 6.833568811486684 0.5429460252163294 -0.05550471793552376 -0.8261959758547642
P 6.911824573726741 4.564577210669616 12.288816847619431 0.5537940236744269 -0.06796119853132167 -0.6421229872288231
P 8.0670590761379 6.736516866164855 4.919693719635705 -0.6260535924707863 -0.235949108669942 0.4614114588759473
Ni 2.774268522401092 0.271280167369126 2.952328131767518 -0.7783292340804724 1.64350184830875 -0.5829709023486992
Ni 7.475469563837331 8.62187948029376 3.197874548480398 1.6780016818578327 -0.03228739927879601 0.5714215069482029
Ni 5.798428228834704 4.309024971496325 0.5604916343957401 -1.4194044967710715 -0.30468215237028173 0.4474755655211455
Ni 4.808788839381168 3.6248975578423854 11.236486822535928 1.3723090859451657 -0.6641930796549851 -0.44729018898321676
Ni 2.5862789413130693 8.06850209019339 1.1089054261488276 -0.36706508548287753 -0.676649560250783 -0.9396194204839431
Ni 7.9850940277680245 5.354525655059518 0.6344775550459608 0.05811978696086765 0.9033789500946701 -0.20916052772218816
Ni 3.2739583895651396 4.549712315880045 12.721681288879127 0.9022306954228397 -0.17598198408769047 -0.5600736860355516
Ni 1.2377268059166935 2.8041370633317233 8.52365369853833 0.3321929561960408 0.13210225198560474 -0.37075359007805825
Ni 8.650758261583768 0.45030918617795856 12.968067613773023 0.43799410839327146 0.40482816316426407 -0.15695402092196198
Ni 9.223403589360974 3.5421925022645673 5.8963302574366585 0.2662500736463286 -1.108074757177285 -0.9158410871174227
Ni 6.5689052335655855 4.889412624686645 5.757601106163435 0.26952874439760033 -0.04706018671259637 -2.1541825857334707
Ni 5.360251460830984 6.161004010456866 12.360055491510163 -0.33082898596897864 -0.48373223386033465 0.19900415601447663
Ni 6.643775462829298 2.2864557709245417 4.744844816542745 0.6622624382911756 -1.6819722364698064 1.313673278579828
Ni 4.928596006347268 7.702522275414687 10.514386864015362 0.7986813153742631 1.0726670671019525 -0.740784443057479
Ni 6.688999153324764 2.899875495859452 2.4191575634890623 -1.5323677139343803 1.1175461870028303 -0.3414183314490507
Ni -0.024414687808085683 7.2541334079413415 13.011241484302483 0.6317840671966602 1.0756503180999928 0.9113979637444045
Ni 7.39478102790116 2.272414134153808 11.70254798714398 0.7645270380900575 2.1679328454400277 -0.3521215767991678
Ni 0.8699080732262496 5.887663848022626 4.776362648538081 -1.157975241552154 -1.683077039498211 0.4031518039031057
Ni 4.2539961854956045 1.8183087109990976 1.8921188799374318 -0.7882308094649004 1.1692850101380186 0.3162809129514747
Ni 2.180579239647983 7.377270607343189 3.5763688101544413 0.9453172421996688 -0.29033025452398387 -1.1151195798392086
Ni 4.154946220712328 3.8138583983908334 8.66308678166811 2.2519246150716508 1.2535809412736216 -1.1599884153274411
Ni 0.2950205236089729 7.8120340921002684 7.754264504403126 1.2801707759470082 1.5946125788072152 0.734961922838431
Ni 1.4099542334755126 5.691487937196726 0.5839572629596379 -0.7971522803242465 0.30933456354062855 2.6553823802509493
Ni 6.267259795427496 5.11883335932942 7.800633356052884 0.08988113853286457 -0.3182141254184455 2.2541568468362794
P 5.172705884067728 2.9504642386125095 6.462398771153265 -0.1750083073205115 0.9151340337480691 -0.5305692488185313
P 1.562904473267396 4.731800339484716 6.503447895986917 1.9469884377090338 -0.9914598021940022 0.26241578750190286
P 8.136703004495509 6.4101644373715425 9.175733250034245 -0.8073191935549193 0.5732356773388063 -0.03886890915105564
P 3.277787926866249 2.440932275582809 9.77723238385819 -0.6285408776690142 -3.1369176064599658 1.400318169563582
P 5.987722072626727 5.0965776425505105 2.7436460991273677 0.22503220464712215 -0.900489801472333 -0.34087917111612903
P 6.832218298332187 0.21135438366983741 11.349655199837763 1.163301281750758 -0.07220788962281759 -1.0801181240633593
P 3.653138082915541 6.1395808017868925 10.16328119411633 -0.2473028431198644 -1.2198025592715962 0.1637314488551116
P 4.014724104897078 2.658133641204412 13.51952838520482 2.2010232002360937 -0.5889890835183211 -2.1877971884641223
