# total energy = -381173.14168796403 ev
CRYSTAL
PRIMVEC
9.17545363122336 0.00000000000000 0.00000000000000

0.00000000000000 9.17545363122336 0.00000000000000

0.00000000000000 0.00000000000000 13.42920385836013

PRIMCOORD
 96 1
Ni 5.107956533658692 5.788536611057209 5.577349788835906 0.7862004092984332 -0.2216805145660698 0.8245635824576639
Ni 5.404149343517963 2.6736812313417233 1.775125413782096 0.3105679217270974 -0.10776958877751118 -0.3310490723995847
Ni 0.21898687512119416 1.4194518099823124 8.643155947533929 0.7972422689348915 -0.43745494806034985 -1.1406688890632228
Ni 2.3035434428679156 3.2522944955694566 12.149252658447313 0.7874538220895599 0.9697692045944459 -1.4941546931997685
Ni 7.504474845406258 7.3265719802421865 8.561278789491142 -0.2726696040194272 1.9286153345184847 -0.9219734252674057
Ni 7.581438548175675 4.587689977336386 8.677951101759273 -2.2127577150642024 2.08508367405328 -1.3212426062866536
Ni 4.111566527120859 8.095979621602403 12.210758474944 0.9555078095794254 0.5021451891498836 2.501502627378937
Ni 8.13904919966626 2.0449057636041656 12.104318628261048 -0.426066246607434 0.5034587657549845 -2.08152063929237
Ni 3.025926885766846 1.8750681219420393 5.427667865565956 0.7449288042431559 0.6470924154189566 -0.11771487291568114
Ni 3.973760393132557 1.9457466391610212 8.641208916331298 1.6238812458643455 0.2658595230761292 0.34547373246534696
Ni 5.808805187525693 0.8057956542885609 7.85286130414888 -0.22208829152744977 -0.15583687659838322 0.1742691151616418
Ni 0.5484994263057941 5.558003345429931 4.523197550771569 0.4166372399840503 -0.7118790728770386 -0.5151431440714483
Ni 6.192495120609709 3.321000290316404 12.830502543940986 0.08150499865402737 -0.5242389357251294 0.8833372009524465
Ni 7.386698726099124 4.595562516317807 5.036085207503131 0.6160062355371133 -0.2720193720299379 -0.03518966052725553
Ni 0.6606069505281706 6.9606273739531215 1.0671731239250994 1.0674667538479359 0.585205705216489 1.2017238473930143
Ni 3.2668467645957198 0.09766811327242049 7.201262813727888 0.05539776004401427 -0.1056420009115471 -0.2111464478039654
Ni 1.1686224415264752 4.518938305322647 0.6999567998005746 0.17889041598373706 1.5844685483946777 0.5882563191173545
Ni 0.19438289694091365 8.33331189816818 9.593836598076722 -1.5082528231640475 1.8631841014978685 1.4558488556410347
Ni 1.7645314353346035 8.19042256301938 11.347193248766251 0.1243740301034116 -0.4308017044098903 0.13957310644135318
Ni 7.669935795816475 3.4116812958564795 2.767839733704594 -0.23865416630593086 -0.7203634561989658 -0.3258978672159484
Ni 8.930312770925946 7.979121047631097 5.38160525461662 -1.676608658165048 -0.41515037102587854 -0.5694353297561097
Ni 0.9577705233527495 1.3839428054856926 11.261044917185176 0.17258298570847053 -0.3918708316726477 -1.0313404404390236
Ni 4.94419304211976 8.693705355175474 3.3758199539509013 -0.1390455160726573 -0.9514284973037291 -0.08013022979368781
Ni 7.681304182527408 1.3281835754273057 0.651809525848233 -0.4103488358721772 -0.264741350311286 1.5091563088149234
P 4.508496639400901 2.030463600018202 13.241638093110348 -0.7260754189820785 -1.1299252773934734 -0.640019310622259
Ni 5.570894857398342 5.333278141778456 9.964683649095125 -0.9181764201188187 0.34223080004801704 -1.9816106557685937
P 1.9880454791427826 5.589355869555241 2.5019543638331228 0.02994872384329036 -0.1893365510177255 0.05698361647389541
Ni 3.6525277710584865 4.00067199783245 0.5199536733627881 -1.4869340070816133 -0.582400631667526 -1.1044934675839302
P 7.460561125633436 2.346585494571699 8.334741433801403 -1.661541222308964 -0.5705450178805206 -0.8102335389882368
P 1.5740673745230196 5.254552751964246 10.422068988462332 0.2725762729746725 -0.16920892702991502 1.8329422718941917
P 4.468913733613197 1.6348914548351878 3.545229101941195 -1.820671939167271 -1.343227338087861 -1.2962697383913997
Ni 7.662099958648486 5.66107121300371 0.24289168375557219 -0.23097016739811188 -0.21411864305841186 -0.9717656661991845
Ni 1.4617873517775068 7.601505264670276 3.3603629852235097 -0.23687650558021786 -0.8362073373441793 -0.6222133927890897
Ni 0.3039956153951686 9.021195636439904 13.063768259578366 2.0489103094565166 0.5929246711273014 2.8950305350390337
Ni 6.119605319131377 7.430401410444705 10.785020561865919 0.5716081690377124 0.22282028459746786 -0.13808623748318152
Ni 3.7601833653114163 7.213658851214951 10.344207008809136 -0.3388677971130551 -1.617456059064292 -2.3087046001751723
Ni 0.41437540175017745 1.357554201627223 5.790968106197158 3.1450101536601123 0.2776104929644703 -0.21555306151209327
Ni 3.3806315616919935 1.6356254911038517 10.787840178682925 1.6493642206267982 -1.6834081975853847 2.003604643541182
Ni 0.09499989143582696 4.1714271848304065 12.020708227078877 0.9448333605847146 -0.10144570344201238 -0.17397883761473262
Ni 6.3700126167327324 3.3829529513916436 6.717059459285042 -1.6186631919985153 -0.2854703553285212 1.2776323257958706
Ni 7.495583831102065 2.1177038105489148 4.978527588586517 -1.6656881545978024 -0.8508657106873023 0.391219571241894
Ni 8.663885131761 3.132463074710063 9.85060248485538 1.0951385087315912 0.04878616826476759 2.8220330596353853
Ni 2.0659359027013884 3.0658676342355244 9.703646588778179 -1.4421045094717486 0.9585656225691427 0.8206033122583352
Ni -0.08672546759731234 1.286242578126518 3.4547563791923532 -0.20940941050820064 -0.9035103334662117 -0.3794531747345852
Ni 2.7607746346187034 5.716252389500525 12.126947131333285 -1.5901766545230485 0.3252005840386077 0.11312056867677937
Ni 1.1536205752856552 2.2344706299866357 0.18864181577462558 -2.776949279922869 -1.390733096978308 1.6552175940837814
Ni 3.7828192087463415 6.595425979386079 0.7189233794375157 -0.8626393062834627 0.2602421768893518 0.9714026264328107
Ni 3.9907992100189196 6.206588616968057 3.556053384267981 -0.42811747270950784 0.31470097005886444 -1.1351520730100515
Ni 4.180749445442439 6.974619940324529 7.767666302171732 0.3276441604830938 0.2219265691386049 0.2139913734519282
Ni 7.194812470017003 4.616445848161296 11.296699811390193 -0.11971596250610995 0.14469422971800242 -0.5520294755748364
Ni 2.3172240438251404 0.6712330430624176 3.5868462057384343 0.4771144714335009 0.6519312315684966 0.08181507369527845
Ni 8.232987491148533 8.59282124550097 2.168090812666017 0.7635993840694656 -1.2601076866485459 -0.17963089369418742
Ni 3.128783717913385 4.8640362815816545 8.488867946678115 0.6436399380939819 0.848537576774758 0.48524687073264816
Ni 0.834248735152648 8.511682711453526 7.434393650200901 0.9022224678927236 -0.16538852484256034 -1.1959666331942629
Ni 5.801501526652486 2.417493398124639 10.100050030035456 0.968413204787184 0.5334301153060942 -0.22034302670156888
Ni 9.02462725599591 5.790078087221404 6.816837926829872 -1.4978830498939495 2.1434829399277797 -1.3477313966058015
P 4.915317890401191 8.6888148385355 9.372899021571552 0.11383456402466847 0.7447565403313496 -0.5126679430580784
Ni 7.9764142888904 8.645708558658209 11.712575399764452 0.2871551992301119 -2.2877930468334857 -1.227046385318203
P 6.269449647925769 6.140121632840534 7.486914862769145 -1.086162016264594 -2.133341480618403 -0.5412979480899451
Ni 3.212317045287345 8.57948931177136 1.831407644681906 -0.8219533985283264 -0.7596882219405175 -1.0716144574677222
P 8.307180207003743 3.4580173353158927 0.5998746247495854 -0.10132409026248357 0.13396218801247897 -0.061512871802816636
P 5.982487344144947 5.04504962543419 3.236598965054749 -0.13466641316835515 0.1124371694565096 0.11402611121018427
P 0.07413766313506108 3.302163084571815 4.804190304597481 0.9712223921012048 0.8526256308012026 -1.295678127553988
Ni 3.5810142875838995 3.816300438050777 2.8950674875161124 -1.067589138358413 1.3175137353718407 0.2633904927103464
Ni 0.3124865799329391 6.456151772860449 12.42421530432615 0.33613188623913076 0.590472610042383 -1.954276229619699
Ni 7.319176564835397 0.6804075788753814 9.819567431416266 0.21764156861000586 -0.9115434881833334 -0.26054659550364806
Ni 3.826347559478115 7.936601996768737 5.354854220350498 -0.7493850402422965 -0.340883027770871 -0.20568362491718123
Ni 6.11996316181235 7.98531447864795 6.337294785147708 0.6101675173681492 -0.3365049533078333 -0.057078490180546865
Ni 1.209159594463443 2.963423697490109 2.5935015321702215 -0.3643610562881532 1.5391176310637043 0.9708943193378248
Ni 3.1309124230925107 4.493678282227248 5.321509705301102 -0.06035998914529604 -1.220136545572247 -1.1986693768374066
Ni 6.657608026795277 0.9577613478993912 2.7373148354722026 0.0765589675026617 0.9877275888450796 0.7085644066815088
Ni 4.418008318381351 3.7664869017685683 11.261287149153835 -0.7492893952046966 -0.3684123435393913 -0.08275995410705102
Ni 8.631202166898737 6.278037872269136 10.075085456538194 0.4119022964022261 -1.6096509611975764 2.47386018307132
Ni 8.963472859362842 3.518813889267986 6.995876713119701 -0.02109667276929915 -1.5944912227380024 -0.3920940034270473
Ni 8.427663085051575 5.605367035665474 2.409145570659258 0.4374217808295693 0.2301661834395778 0.4973022592352855
Ni 1.8325490710796788 6.962242253744182 9.012419315302692 1.2681328709458677 0.2727094561184271 -0.6116798402476176
Ni 5.329406100461254 0.8483734280524144 5.475905058961208 -0.4564736552546977 0.677437346259401 0.184722706394798
Ni 2.115079630888441 0.39285529344362147 9.263706538881106 1.2184316470659984 -0.5752493653347255 0.16319794494914475
Ni 6.268752313470537 7.128281257715972 1.7959546104507722 0.05754668806621702 0.11379676880819757 0.5077291109955643
Ni 0.7684469713936022 4.997740987918797 8.581475797423431 0.39354641960285774 -2.2766570848213243 -0.6597697537763089
Ni 7.221146021155324 6.665856759364388 4.16054142696612 -0.4556745563921701 2.0979412467422387 -0.3872114785237654
Ni 5.243918401521976 3.2257774353639705 4.469869815853132 1.3721761599117273 2.0648177247153927 1.3894020368717104
Ni 7.9847364250863775 0.48630636835256746 6.927253497452978 -2.1568267082245374 -0.6468029092029957 0.9216376391945419
Ni 4.964525846761752 5.636159857135927 12.368739595776534 2.136096160545405 1.3612584845579587 -0.8923080369924891
Ni 6.131515057590449 0.5335269215157208 11.986813184827984 -1.9631066834271351 1.6851028116789883 0.24915198051346124
Ni 3.0424977545319356 1.8595524303131545 1.6506374503433658 1.0549807055657832 -0.5078571519329963 -0.7237979358018115
Ni 2.1977321147400044 2.397041312588989 7.520810822565375 -3.2132459460090597 -0.10620070162849451 -1.1633979552296223
Ni 2.208283886102049 6.209277024802039 6.27690378623405 -0.5699415799685669 1.7660501380573328 1.2380828456380226
P 6.927476460969586 8.969271745885287 4.471401199018632 1.6918956662311053 -1.0743724798288334 0.5954083567811036
Ni 5.4683866924794176 5.045811188062928 1.0547440548059466 1.9234700428721196 -0.2790541673895323 2.4083721286708393
P 1.0939434266432744 0.4685949907350416 1.7473806779172696 -0.04267388471944263 -0.4808865368814234 -0.7844078361743845
Ni 2.6323641648692995 0.5513135378507845 12.952103909753195 1.0280838811749389 0.25700104424423476 0.2865885280933645
P 3.877335553790186 3.538128218587207 7.056119987234289 1.78989840542984 -0.2920012144685036 -1.0469547499375131
P 6.358323089154259 7.449862547017659 13.049210485280089 -0.3436598191850598 0.6398401047319173 -0.26050880028717716
P 1.6894119986902043 8.65794861343818 5.194375541113837 1.5541858382507363 0.27499131017406836 2.604197629847018
Ni 5.40400253626423 9.196648655557311 0.7987663394707675 -0.41340484908968156 0.26406797839334517 0.0197283316668628
