# total energy = -381172.2493722643 ev
CRYSTAL
PRIMVEC
9.16994999946670 0.00000000000000 0.00000000000000

0.00000000000000 9.16994999946670 0.00000000000000

0.00000000000000 0.00000000000000 13.42114873697985

PRIMCOORD
 96 1
Ni 1.6153325273354426 2.549236906512592 2.3312268492455055 1.8590790781905597 -1.4311991754131546 0.2160153458604925
Ni 1.2875618375617885 0.11027965167177486 1.7285630688899716 0.009341074895267783 -0.6171578326430532 0.6593666048006193
Ni 4.787860099543118 8.354833067358832 10.179887851227884 0.18171220170324834 2.712218158293071 1.6404736030053877
Ni 3.893615753749782 5.213134866766505 3.007129185584818 0.5934507188341005 -1.0361944260972153 -0.28110693615350296
Ni 0.345000108669573 8.07975290979868 8.189597905844467 1.1870279359437363 -0.024637596043022084 0.20567154073232322
Ni 7.122208399739803 2.1602109513045153 8.835101858214454 -0.3049662592696038 0.16740041306626655 -1.437738519193569
Ni 4.0415178759341845 6.131963848282848 0.884802965360509 -0.7240655876409013 0.06104544524809487 -2.523056442290313
Ni 3.550430378168454 6.3902171477483645 11.04999413785909 0.1612019975650385 -1.4400604824585264 1.2634524347510627
Ni 8.904323976135318 1.0661625668059942 7.465258977057376 -0.023349987579850108 0.17653399993641855 1.5727890551742203
Ni 7.410144827081251 3.654601009206634 12.867794574350123 0.06266781134286627 -0.13923192105185053 0.8913238187023488
Ni 6.1720365294128525 1.5813303530493885 0.5432159120494229 -0.36942073019924765 -0.533113869617256 -0.5956269005498129
Ni 6.51657905758165 4.903942495521316 8.15694463119096 1.1386035218937618 -0.1574589855828385 -0.3749393460246317
Ni 3.327371346477985 3.874478068276483 10.020175750547526 -1.3569081780090633 0.6549849307931558 -0.4453261232783105
Ni 6.224332753779995 1.426138120682297 10.904548645257005 0.5843058191100389 -0.8112884626153125 -0.14036886286977115
Ni 8.883554039577088 5.72333254015579 12.826994716191832 -1.3512625496875117 -0.8638109579940607 -0.41412835751926746
Ni 6.406136180801383 2.588686031048354 4.343298176662811 0.36900703970059673 -1.115808378376117 2.3972248538047682
Ni 1.2081225614452606 4.314177166716689 0.9185960647884933 -1.0990900371801717 0.9953488528357634 -0.2911478653292728
Ni 9.001048607842248 1.8903576651961027 5.419433064001729 -0.14739903024367518 1.6112818119327799 -0.8979094423396666
Ni 6.962944709610303 2.7475095635819176 2.2778779146280823 1.8075585417137645 0.2071129011645401 -2.1707859986181064
Ni 5.5425653174748355 3.5679449825067397 10.155031784987385 1.4802702219081927 0.7162090677109602 1.1173145306079983
Ni 1.607409690608595 2.146263457483294 11.058033432949863 -0.5049559191258013 0.7745036896867952 0.887601118435123
Ni 6.690395458226783 6.083629042279129 0.4851123584008999 0.01964168549032746 0.6303889866213466 -0.3926411341797689
Ni 4.688778790707947 2.663870450404167 2.8467192517159026 -1.4935741381059504 1.0435400678290092 -0.612572527265216
Ni 6.018329828932044 0.6103408624246502 2.8816686818282102 -0.4330023116056349 -0.7952807743331465 -0.5731893974819031
P 6.796189170399977 2.465863721882387 6.413041153087629 0.8806128600427479 0.23453911569629282 1.9737160835118652
Ni 5.5207316667264275 6.794465219815894 2.4467691351736898 1.7416544828217875 -0.40281730338182237 2.024497684940107
P 7.736127376621416 -0.01425835512335091 0.9926351573998815 -0.1979839422800784 1.591181441638479 0.6075154244572828
Ni 8.52740235481548 3.1757829044276185 10.746246882873624 -1.0223922301068005 0.5077231974582933 -1.0313993187014172
P 2.448349117544101 7.276428617415869 1.5835210540841618 -1.84297600198111 0.639699208278679 0.673010420836299
P 8.219227848010892 5.3255951325281465 1.6768784801821814 0.9251273975153552 -1.755517871067441 1.569643567566703
P 0.5706083864365049 3.5555563801711245 12.45449025974621 -0.11050215721732581 -0.22955040423244982 -0.16146579274938644
Ni 8.139082485750883 6.620786368419492 6.331816487722585 -0.12475223937843674 0.22949024041847574 -0.4027694808630225
Ni 7.360205279842349 8.236843321798245 12.488754694599841 0.3805258389734737 -0.21736851745427727 -0.8959980842495666
Ni 1.1201827417572194 2.970275156875096 8.912730069222704 -0.12360912691292905 -1.490564918965981 1.2096086494577296
Ni 4.590862065512025 3.0460647929253213 12.524079175663687 0.7683492400496251 -0.5644990687967568 -0.3485228037043159
Ni 2.7464916991413153 4.374818045506784 12.287544902572638 -0.9336583178045017 -0.0783080889832845 0.7382336516111674
Ni 3.1727751608553896 4.4516163760476966 6.649709307447442 1.0643112389380895 2.8076022289220357 2.7848160842654557
Ni 8.771121283665194 7.3439836384421255 1.3600860544471638 1.1184998091653513 0.4078309545463299 0.00853040606851434
Ni 7.52188066679958 5.937065732782366 10.661089225989894 0.739568568372507 -1.3335363360523422 1.1247393623171598
Ni 2.259622378336638 6.811209548361291 6.859991847920878 0.701768723915914 -0.7654603485376043 0.017678134006053423
Ni 2.1427788765154676 7.002173755348096 4.074311450821398 0.0020028893626417117 0.08835030371063494 -0.696146235522814
Ni 1.8378230221311616 2.631858155249741 6.695891926206034 -0.3319319892251703 -1.4918152464333145 0.07473759802320676
Ni 7.556258809032164 7.175733397395599 8.586260595342035 -0.746241095296676 -0.4030487026663381 0.025115049900072874
Ni 1.0474650389286306 4.818671131258636 5.761981128063943 -0.34133168527251534 0.2183661054808562 -0.5734552495487801
Ni 2.145979189035919 0.8613288105722486 9.162175631794543 -0.10586851510005638 -1.0788523699770582 -0.40898923652048913
Ni 6.342964395834655 4.6910437683370345 3.1712694550792917 0.7001173043554201 1.2683660700025963 0.8585944467901278
Ni 1.9779581967372766 0.8365488549160448 4.0881085574640075 -0.03063366572545692 -0.7337763871707621 0.34091388100880643
Ni 2.13071122242689 7.015268443827193 9.630036563419727 -0.4021488165598881 0.8876857077291292 -1.9953040940952864
Ni 4.80542055363098 0.2945919769899973 12.464314944085496 0.31792127676837506 1.00734716284822 -1.4942498240167361
Ni 4.115051704305238 5.974057310740818 5.154888261899304 -1.4334650886291957 0.3237959903815972 -1.2205715762271367
Ni 1.7369627430124164 4.7328495700010365 3.2332087987773983 0.7392379245059656 1.2231547635732807 0.547973817448224
Ni 5.541941760880592 4.351196254524887 5.9265239583597 1.1401251007446105 0.09044549567676681 -0.02752880154788807
Ni 5.403888164905258 8.253440931144999 0.7758071066768807 0.4701706931258161 0.7158748242999928 0.6874268533719451
Ni 4.726980802055224 1.5125557286843931 6.349921636835418 0.06661188359227882 -0.14032643966760996 -1.192162171846508
Ni 7.454866672818329 7.88534080164371 3.484304952333998 -0.12581513342531236 -0.16329667531053813 0.07585345679520485
Ni 5.61022120795016 6.466942118689953 9.639807145054514 -1.9281805609739116 -1.4626967318008033 -0.8941641163646213
P 2.3057197165610157 9.182696145715074 11.374370112174086 -0.5199662764917046 0.22294241199762893 -2.0364635990527318
Ni 3.9094522572535624 8.253110812948046 2.9488945016525063 -0.5816714668109854 -0.2898150054504622 0.5663613188164762
P 5.90632806066617 4.912672287840712 12.08303301158092 -0.6175679235972783 -0.44658339272417924 -0.6299943222860892
Ni 3.637489882664623 3.3074175354622204 5.038285929760907 0.5929856062722239 -2.2452127502691135 -3.4512295686105268
P 3.949928416179841 5.427739204635039 8.578905378514946 0.202372044045445 0.2818664400273468 -0.04508043727840624
P 3.278137885382563 3.8532312943226574 1.2463309917574776 0.410606460408938 -0.7265346180066843 -0.10825604149562647
P 7.184206431117367 8.654662919740467 10.118740791202463 -0.09363340648644519 0.5213937529668504 0.6056477751209246
Ni 5.419724668409037 6.9507486762229105 6.663506414090053 0.7444114982871051 -0.6911726935676226 2.120099528006832
Ni 1.033416675658341 5.003234713204539 10.533964376323654 -0.21511751663657144 -0.17863202011602786 1.0176894253144924
Ni 2.8943938213257177 8.65220537316316 13.256162127154278 0.5324695511650378 -1.0874552811547207 1.6846574966114536
Ni 7.87982049179468 4.502582957677116 5.265371486459198 -1.1666249468073522 -0.06461182244311453 0.9644696467584035
Ni 3.849022287311519 1.6849232772429028 10.712156677068384 0.009596385439183472 -0.6822141988227541 0.4083852843879031
Ni 3.642615884667294 0.955462931428097 1.634024553242857 0.38844535093086646 0.5248210334808445 -0.747388578637558
Ni 5.404209113152294 4.218011901954594 0.9626081564021244 0.2693351403295555 -1.029195626181879 0.6631057601280773
Ni -0.017513687343294043 6.1958875691426325 3.958259315677921 -1.3756301798985986 0.03420184269268948 -0.35094349733066654
Ni 8.964808965776852 3.6468065517786012 3.486639621582442 -2.069595862830326 -0.5946614513127501 -1.4753550439947622
Ni 1.9940239489889398 1.7440786241467146 13.41313608078992 0.14065708353415132 0.9732695044382205 -0.1811473303387138
Ni 5.630431777563554 8.724547108045218 5.186575940826727 1.3258747057420264 -0.07797744511674312 -1.7887822895475258
Ni 5.4584768767512335 6.993792421125482 12.118854503930175 -0.40935047651464984 0.12468384803434655 -0.3133747950482732
Ni 0.5561097786253723 8.922773915364967 12.865472743031559 -0.12393051480808978 -0.46092757726099326 -0.4432340166359722
Ni 8.377464503749874 1.0022663557959555 3.3283782069786882 0.424128920375405 -0.14612787684073544 -0.38212506513979355
Ni 8.067960354207562 1.4312732926348835 12.35914662249653 0.517391830896309 -0.22986305037686222 -0.06015892887808348
Ni 1.729672632829727 6.471958081293642 12.946684570466722 1.5971201757204172 1.152862602915937 0.2709307669514495
Ni 7.78873537928568 9.07085026659776 5.5982296644458795 2.2140527797265417 -0.26270992170355395 -0.2626322743880832
Ni 8.909541677637142 1.9863487009098062 1.1518676696996688 -0.5150140746927518 -0.1890069355924487 -0.9172623929449816
Ni 4.825722822743527 3.2851162172681314 7.918276510754611 -0.35113324474396945 0.4012401887026896 0.18348780554643238
Ni 8.695166588516493 3.6781402706392936 7.515843171775326 -1.0354184671631395 -1.2275811747757504 -2.2270509917584227
Ni 3.5798200676470957 8.26355538590161 8.312025907164076 0.3111024540743287 -0.6738514286803555 -1.8752127505276286
Ni 8.993052411516077 0.9323821674912046 9.976973365511418 -0.8217659651078687 -1.141791175593124 -0.0413173706915482
Ni 0.3106210494419989 7.297198553974098 10.879398223624221 -0.9818683018508251 1.518645222141965 0.7006693202041481
Ni 6.375187599837134 8.972860181802515 7.416043855861784 -0.1626281884886038 0.8452553064790604 1.4455873258140266
Ni 4.525993839810961 1.1633273561088602 8.586971266460473 0.6658357574647307 -0.5061234570713412 0.9866628950259911
P 0.777620005775142 7.7381355956528735 5.700740534549384 -1.33951492223328 0.12692147911561366 -0.981482122156
Ni 1.644997315311544 4.997237565959911 8.218158631850764 -0.07539245799838629 1.0155613232278962 0.23400226935621635
P 4.185256840857026 0.8773826418890217 4.157375608139456 0.3071136446299098 1.1006936342218658 0.07447226017696207
Ni 1.8878267590194708 9.177194175765875 6.858167027887728 0.06976199918548631 1.811219021284487 -0.46602813171235224
P 6.28440509567534 6.385760552089513 4.710581263626643 0.7020769991849521 -0.24553032460047391 -0.09549128563079039
P 8.750837354452477 5.249915535876906 8.803924945497313 -0.9006774920031069 1.451590337474997 1.6332793992497938
P 1.5883270248347876 2.949138422320254 4.4696857623558595 -0.49882280964486997 0.003492072313658502 1.077060568183958
Ni 3.5316961704914287 8.31601666936723 5.478258292708589 -1.171001735718809 0.37157660019998584 0.5428683779008585
