# total energy = -381177.088616199 ev
CRYSTAL
PRIMVEC
9.19213278931266 0.00000000000000 0.00000000000000
0.00000000000000 9.19213278931266 0.00000000000000
0.00000000000000 0.00000000000000 13.45361549219013
PRIMCOORD
 96 1
Ni 3.724679663261972 6.233718188360927 6.830763739732114 0.5950180633212204 0.6268172101096883 -0.4306009012529939
Ni 0.5336179987310526 8.638242166994804 12.818833217730381 -0.4692612939376693 -0.040296385626201574 0.42473107273577826
Ni 8.310322032377815 0.8440887082332956 9.338800322389142 0.26530365057265926 -0.6534314702631069 0.6069634086085546
Ni 6.020929513240428 1.4678181010234332 1.8903271174376897 -0.7654024987164754 0.02214311175594251 -0.23767303333958423
Ni 3.629881200843825 6.129764361978029 11.13367357836181 0.6252997450238973 -0.7466324171978238 -1.1003347082205504
Ni 6.215159272854068 0.6616303934924073 8.216082451615348 -0.31315676550019617 -1.0803292116329006 -2.3531376336775667
Ni 1.4309208811895882 0.7058840769617847 5.980360955688188 -0.15645188447456282 -1.0480299852795627 0.3737651232108724
Ni 6.307411514571175 6.249308045071988 6.036825467963564 -0.05437111855171282 0.6620143268361115 -0.3935001397459546
Ni 3.0083919307426523 8.722681096091392 12.644433645547624 0.7969843872878145 0.291574154233414 -1.2452551950167456
Ni 8.187965556740469 2.396205098726147 3.035149309221561 -0.4168616972900305 -0.22144654417839282 -0.8448950949261642
Ni 6.705927226747687 6.418617933492415 10.500694142642224 0.9294553354667476 -2.0535087274604766 -0.8732718462966444
Ni 5.078956543710504 4.304629686619461 6.614873639107893 0.8979410669085504 0.24048067799170844 0.7598782264641365
Ni 7.303029769340342 4.573802902462631 0.3862791453995286 0.41430910607150584 0.20966960614812277 -0.02828367743604161
Ni 7.440231538956678 6.539705894845491 3.9007273848010358 0.07653917000831979 0.23295994413463106 -0.40251314187784226
Ni 6.882011716816731 8.706898204597941 5.158546622916121 -0.012209654692314456 -1.4027679166556553 1.5137614116871028
Ni 6.8476055648889576 7.214923179378357 8.084384930936855 0.7543593535284363 -0.021393635184427672 0.31248030825846185
Ni 6.115884241910987 1.4699690600272002 4.326076770156164 0.7481737935430147 1.2080122515048872 -1.297153940768566
Ni 4.795553906765491 2.5356681329361863 8.211656439819135 -1.9584702130963885 -0.41686786793761754 -0.27159693978053867
Ni 2.8482282141544815 3.5495051943099076 6.839239805105503 -0.016928657434538585 -0.9101571493587679 0.22690576752075114
Ni 7.075791061938127 2.805916828281241 8.653257515424945 1.7590472243769384 -0.18419177359199243 0.2521095204798884
Ni 8.458995583347575 1.9219094462630821 5.248537600039525 0.026171259078729123 -1.1654648650609798 1.326397925235348
Ni 1.9477669149707568 7.539598491224707 1.4727809333573378 -1.142217207386949 0.9200659238320478 -0.6638904608129018
Ni 3.091562345554967 8.713718766909029 7.641760770984383 0.9964703680347161 0.10536046511538628 -1.8820724537619393
Ni 4.641659224538726 1.0242977081527238 6.02561842002599 -0.9327512326092 -0.8442088674924171 1.6894268929756386
P 1.9442463282252755 1.057508882856182 0.23311615691934395 -0.4735190407727587 0.7706820019478599 1.0292866432337886
Ni 8.61543648627538 4.846239325341432 2.5648108697974776 1.039164564469133 -0.022949666817637895 -0.10676377322081614
P 2.6265507469115796 1.5572391659321643 7.844600801105835 -0.0969367598280653 0.789007539729925 -1.0027711134417634
Ni 3.6029298683692765 2.0755007881175214 11.518958135025409 1.2027440611274127 -1.3523935779681613 1.0560551695768845
P 6.631406608612914 2.161520764003202 6.513688483032407 -0.31020256796787865 0.5118696155264991 -0.02859786624235075
P 5.127812727919992 7.968760773138648 6.897130017130812 -0.01800594965911738 0.5152454739772675 -0.17643706934723807
P -0.013160376092704559 6.892169023223406 7.924636698737446 -0.036881960628013896 0.05072889381343522 -0.8082476189064596
Ni 7.655906543680521 0.3046493319933307 0.4856488553073055 -0.370529132772078 -0.7734608502445776 -0.21143235447550038
Ni 1.7065193976465751 4.974772914015237 10.201014996688796 -1.3302018723624704 0.2139954872169863 0.5667878648309336
Ni 2.058440190207303 5.164038922081722 1.1046020160531815 -0.18311473847772977 -1.2670895172830179 0.7396724409402229
Ni 5.508036096431993 0.5436227157383164 12.499148314615422 -0.19012485124697578 -0.17013349572671344 0.7499789650725535
Ni 2.0653159053133607 8.879747064028837 3.509603985576785 0.8935113132719709 0.8790632561674409 0.8206840448975996
Ni 2.6713623928233865 5.137565580496901 4.98001702560348 0.42965139285553106 0.4400851865943453 -0.32182601113941994
Ni 5.671260793140909 4.52911994640575 9.089961942050813 1.4195497640996844 1.2067516396249087 1.034427821115096
Ni 1.5095411904170117 0.6510033691152503 9.508880511512627 -0.06844816547006921 -1.104507094430685 -0.3962931291100594
Ni 2.0086096399533733 6.623988557689667 12.436683178247486 -2.6353735412291903 -0.6173388383056078 1.0220268763475817
Ni 1.246793275187657 1.6760290941615565 11.621380552134687 0.7181312244343373 -0.24245579944020823 1.2252080465578836
Ni 3.7619445683956063 3.6471256414039375 2.6645694069097816 -0.6513365354072912 1.3061435458616861 0.4669241611640604
Ni 7.27758594659493 6.812886880456363 12.780167431604552 1.0477757031769117 1.432651334478649 0.8571309748707239
Ni 5.637360208500345 1.713965024967306 10.38998501808895 1.2610129720716348 0.7190830468246455 0.1747709944987248
Ni 8.485524077727364 7.255396138752653 1.5687320891903247 1.1356081867108636 -1.159540786267061 -0.6566106393220369
Ni 4.069347863284358 0.06841796137152288 9.690019755240522 -0.48109762445096504 0.12559993209071274 0.8957666849650509
Ni 5.244148356773292 7.573839184767575 11.858581692734688 -0.8158555131607046 1.0979155572560964 0.4830791736573681
Ni 0.49037728826259447 2.764065049032736 1.123788754209431 0.9160879130209062 0.0763692200893588 0.015195219683199639
Ni 8.409201801623624 5.0283630464595115 8.862394156305287 -1.1780303604308162 0.36195784616329923 1.722622148780685
Ni 3.5722924907643425 6.400904694175071 2.8727371970251796 -1.2646130307180672 -0.17326278538431453 0.12014662228562534
Ni 5.6796991707710704 2.78962836950058 12.812079757986504 0.9308403887397324 1.1619511954807664 0.07520322480571565
Ni 8.649006154146132 8.91780249255702 7.02850489395874 -0.048646300252793644 -0.332575279236124 0.251918744625321
Ni 1.592141693014653 7.108092215524608 6.332427903155582 -0.026102610624322786 0.7777214252931445 -0.6128129254107962
Ni 8.787678664961625 5.368885594726774 11.494029071699702 -0.6305910753298237 2.6208007856213382 -1.6421862148211201
Ni 7.532980155828501 4.316597843127599 6.823834710257587 0.4907834842801613 -0.5645373782338601 0.880490989752903
Ni 0.5606125342283255 3.892270622905885 5.315415879218181 -0.5776062956026762 0.9672544085923922 -0.39896039152957746
P 2.3012963307180625 8.039163315915783 10.675053269442007 0.2888814378925993 0.024703159173634876 -0.6976942967362242
Ni 2.336897459870151 2.459290704037477 4.914174699756981 -0.03335414998041353 0.3952112088997903 -1.2002133242857587
P 7.596966590124314 2.4963441901237324 0.7896262424152715 -0.49308616427140883 -0.4312418772711024 -0.2888125323278768
Ni 7.209472244808983 4.1571051522115425 4.638779329428128 0.4010956927050254 -0.26871319047484044 -0.21007764021981884
P 9.004962292872047 9.018189771531963 4.331983634497277 0.5390482328238201 0.027589993803126676 0.1214745970684295
P 3.8665878047156097 1.2757484925460554 3.9577305560406035 0.35971790108918694 -1.2517955672384247 -1.099770608186964
P 4.653415961999485 4.531068678494633 0.9476619803309124 1.033434603963891 0.8031033557013588 -0.9353593596560085
Ni 0.3791138781198868 0.33704240690475834 2.0994361819205483 -0.8349768073711877 -0.004878411138223856 -0.761522704046095
Ni 9.464495380548575 2.6578959187186078 7.496986522618887 0.1786513033897375 -1.2127610790437822 0.4308040184027355
Ni 6.229829916315656 6.273336279413211 1.9286831286984485 -1.0417184412392382 0.4525948890255818 -0.9470918176015883
Ni 3.8819386659818083 6.617618409870818 0.5314422209695501 1.7377872865568975 -0.04202905204659214 -0.8869858534486273
Ni 2.544271968951253 2.7814014109177965 9.6379950429601 -1.1437377577965335 0.02294323905973468 -1.1863717904169762
Ni 3.7327135870623662 7.8674818573117165 4.831098963909362 0.2659860213516645 -0.1707626446702801 1.6580437506786672
Ni 3.511302691661811 4.872666706263779 8.713516539994146 -1.4765554920607666 -0.9465804251828085 -1.229801579465837
Ni 2.1904024443016428 6.955603929569537 8.651872261057989 -1.0572057382415598 -0.8872151958506139 1.4569878543414843
Ni 4.585881364560707 6.768488880506818 9.143359039712697 1.6281621326278863 2.2235380935091578 -0.5912511400796204
Ni 9.218697757639504 3.619641165244696 12.469335471295263 0.9308848688244227 -1.8385524189921176 1.3548680076505828
Ni 6.213973487762247 3.928524393465099 2.6745925081820348 -0.5180613461595078 -0.5984666839914531 -1.4840155478832378
Ni 2.2132816620810254 1.9087922731931029 2.4322382581054875 0.17287300614506357 -0.5332995032655009 0.41494802520708535
Ni 8.075904269497217 1.6744388552399683 11.853684124541497 -1.0348834205952757 -1.6523577560374831 0.18387732767536719
Ni 4.624846814205865 3.2757818728818457 4.706154902974748 0.26620687911321894 -0.48234949458019516 0.3674260683667221
Ni 2.5185339979660104 3.8769013773746965 12.459527465923388 -0.36427929520762425 1.088471638234377 -0.36153464258295154
Ni 5.108582786741018 8.25713635376331 3.023148061036442 -0.20344856493907545 0.3370852512913356 0.5789977766335642
Ni 9.261716937714839 2.942934755247682 10.099144107529202 -0.11925316393707851 0.8165265710858002 -0.8064673870775854
Ni 7.294095016555464 -0.4695359662572937 2.8708132836940323 1.0979124719323026 1.0924661041057508 -0.3298745924755093
Ni 1.0331865002751273 6.851953443558965 3.641692171886303 -0.7385234149374442 -0.9699319554245552 0.3992360137884673
Ni 3.7623306379603854 2.538738305189426 0.6415023809686975 -0.6042367537060109 -1.0170461353035387 -0.7364868441233897
Ni 8.840018667386618 6.132200277089131 5.648365948736286 -0.5200680921768915 -0.3719303839949788 0.9915279364277764
Ni 5.164195188334133 5.468831651341971 4.176742304860034 0.10547873586080544 0.5896200322341006 0.05746878364043005
Ni 5.478556927521395 5.40782346797445 12.357145494197088 -0.18542641733004195 -2.6840887470467063 0.5577023575898976
Ni 7.150247335145439 3.670574771397993 11.10895961093648 -0.729981181794388 1.0999199892806346 -0.9428104166174149
Ni 1.1245471051402463 4.79576532581287 7.687785778385494 0.5984008637505243 1.4778050481971516 -0.5118644733201765
P 8.166704154280158 8.60641900429805 11.29383913337648 -0.9129663366727889 0.7671688465882788 0.1945576902073488
Ni 0.21518230642212624 7.229189369010178 10.172359442849725 0.28352814400048587 0.4295495771703441 -0.37479125048254164
P 1.6923451293397018 4.39033713000032 3.200264827584643 -0.9846936871147621 -0.2354505717669687 0.2936868297010426
Ni 6.395352646148254 8.542267111617331 10.000852634763056 -0.04483772513998084 0.9957594580106207 1.588888017618612
P 4.016226529597315 4.0322208401381445 10.588855885399179 0.9173562382103685 -0.22934651575175985 1.304523750870076
P 5.562334023078361 8.163100838342224 0.8110310421424992 2.0428481624228367 -0.4819982818883634 -0.9635183385887276
P 0.2571388759810706 5.796485214116612 0.07882713220855483 -1.085453934453976 0.24490786052512659 0.5045918509181633
Ni 3.8931990282878526 0.06818631963265569 1.2685391030304392 -1.4661384104925008 1.4468289115306114 0.8000270307688803
