# total energy = -340856.1524400432 ev
CRYSTAL
PRIMVEC
9.32605979118258 0.00000000000000 0.00000000000000
0.00000000000000 9.32605979118258 0.00000000000000
0.00000000000000 0.00000000000000 13.64963119695974
PRIMCOORD
 96 1
Ni 4.536988220135261 1.4328371813419556 10.150029348220189 -1.4687557935106899 0.024593887289280227 2.066518509456583
Ni 8.827013049708837 1.831209153368427 9.615619073947416 1.2193274194073904 -1.3453932353909281 0.6723493902135323
Ni 3.8044915023041184 8.797589330920946 13.486381557458111 -2.5054649544607948 3.231269893390306 0.9932734583639732
Ni 1.5045545814937387 5.103434442556457 11.553826111833581 1.0101422090948537 -0.02298540515157977 0.29036882107140316
Ni 8.93583884195476 6.741995177857865 8.532083868189979 -1.5027617181424893 -1.4109630508719377 -0.0630817589518333
Ni 4.700315506072605 5.078869600944 8.225008426338523 -0.8025102022020502 -0.3637301075723736 1.1305654820806335
Ni 7.363222675765611 2.0076955097367417 1.6846650447149774 -0.8265839553218022 0.059897704796896836 1.4180749793263707
Ni 5.591038155109881 2.54853237184366 12.564117241443807 0.13314894808256422 -0.12212740016107998 -0.23223232193998714
Ni 5.191201991688892 7.290861777485028 13.184697510798818 2.153436965816698 -4.626517847519832 -2.358563689789144
Ni 7.019342871370722 0.2269459357260831 3.3122471423754636 1.5786550270366941 -1.5946215776682795 -0.7296320259850854
Ni 1.3867571196839634 8.814143087132834 1.7626859287110501 -0.4540863859694438 2.4343793513678786 2.615059769372503
Ni 6.318153736414681 7.214201565619273 7.767049460191143 -0.04312794153772573 -0.06989363966734415 1.24791474412678
Ni 3.9230537010205833 7.154328261461346 8.674682120926105 -0.11654682074950895 1.7399511269774357 1.4177643900644874
Ni 2.923486607617709 4.8169192322231575 4.8912497943414595 -0.49318000953679586 0.766699363151028 -0.35128082606542727
Ni 3.2479775336100545 3.5661267389127755 6.76871527189881 -1.6475662481861109 -0.025106822369956764 2.195918017799044
Ni 0.623229802954897 4.69675295121461 6.915626827309865 1.8714666532216349 2.2130623907888145 -0.413489695494004
Ni 8.43897435198252 1.3193110549378393 13.502870031251135 0.6414804685488178 -0.3121445221855979 -1.5401956946192314
Ni 1.9370133022269416 -0.026437514427864045 5.41932674137846 -0.09614923092976344 1.965951609075098 1.0226418842237615
Ni 0.6217898593159588 3.1591374875962854 13.043369467412585 0.6341137437711014 1.5574321131021758 -1.034609855218915
Ni 2.1846481690969406 4.747300195534853 9.10373123418265 -0.9529313071015008 0.38031012341824183 -1.058531399031519
Ni 3.2746407386859904 3.098322251394754 2.586127584261328 -1.5443811934554887 2.2073064621416436 0.37205302561577214
Ni 7.187501056303986 1.553572352000601 8.021137960468819 -4.4468941529144965 0.8051993189984391 1.3869718301636629
Ni 0.6157904050223773 8.023983341325296 13.599223151070142 -2.3198606167919915 -2.043832637823293 -2.1918245644559606
Ni 7.632055676646664 8.674905013756225 9.39446835180447 -1.0524736228732132 0.267804562617642 -0.23505282210791778
P 8.03938999217715 8.612112652869104 12.415991433041889 -2.68572756820171 -1.1322012179118435 1.6178075288664395
P 4.235756487378097 8.014200304555567 11.05146484219301 0.8784934997068999 1.882575361540287 0.07965688970169507
P 1.3146107207796471 1.997949777206363 8.48299988265827 -0.09274123368947898 1.7656899265044366 -0.7058061272100812
P 4.603995960069015 4.888188981502732 0.2253269317382613 1.6245317349641506 1.4656339600522563 0.6083859999876942
P 1.2095713088278224 3.9009882434446252 3.6936717984648975 -0.7940199053428519 -0.6861132767668442 0.6852527285387618
P 6.262402550705011 3.3614570297149826 3.458584212500517 -0.22848108242767104 -1.7720312953414321 0.603089270365129
P 1.2826409876560694 1.8401155405134142 0.853013658689587 -0.6208159982209308 0.2334325128956754 2.84313667438322
P 7.7435020917069775 5.277906369999832 9.709146397635607 -2.848997504039371 2.93984332047835 0.2503699120809623
Ni 4.886370399834383 8.50590748343757 3.9557452711755974 0.8552923790000884 0.8656145868617027 -0.7826602573556586
Ni 4.113006887794512 6.013788447552055 10.983967484117777 -0.0005890397342505984 -3.216856546178453 -0.32650079090726997
Ni 7.707969803725404 3.8509446063556174 13.398450802278516 -1.1082627048183753 -0.155740460229835 0.22599251167786238
Ni 2.4787454660782773 7.2754364745135 12.121173231635098 -1.0675040348437745 0.39474558211728145 -0.1830946838730718
Ni 5.744153405524961 9.363457337632207 12.634249211423183 2.2561335109466754 1.171637312420279 -0.8880479761645543
Ni 3.597490278146904 8.078895181649575 6.554852865519012 0.9074155820578889 -0.7532702342293156 -0.8390715462658518
Ni 1.6482225332932467 6.9950671376132325 4.864073655974451 0.5462090122383173 -1.2980903365399064 0.15036505485053459
Ni 7.561942358786962 6.62995189496794 13.776163686552552 0.2725150807194339 0.008072749705805453 0.0008793172811597759
Ni 6.388574814249026 5.31100455636377 6.593849784730285 -0.32240142402691574 -2.202642223896755 0.5178062927259083
Ni 5.0427124669533026 3.3727229099989033 5.539989168770371 2.6213808264945238 0.639763228747395 -0.8047869140513688
Ni 1.872346403312447 4.957957235148439 1.920475400316778 0.5786244524545454 0.23395521816836481 -0.3616017483754611
Ni 7.914663267907975 4.486776713969175 4.1219020836676945 2.0481160956899953 0.2175667495080124 1.5002446081475904
Ni 6.889067141498127 5.025552516851966 2.1910383852977215 -0.18262879998024675 1.428780795779649 -2.057662858838166
Ni 6.593207219207468 4.829966389936076 11.713172102826219 -0.9113234017527272 -0.3575558604408616 -0.0378756919998509
Ni -0.05034859924569974 4.163302328499137 10.031441969142161 2.867519731213274 -1.9349651879959127 0.5623491123332895
Ni 8.11823250204492 8.890905885656803 1.2869197839095983 -0.06884334402595886 -0.5338923996544934 0.019725246343069255
Ni 2.9687366499501473 0.24212316550592855 3.338098980245521 -0.7687978975512695 0.32590275231195487 -0.7368102889010795
Ni 8.731439588492261 8.295726072875706 5.733977741636066 -0.4348992715180316 -1.2385911527330087 -0.4502377016473149
Ni 2.4474658613826885 9.216124244316488 10.456436111581283 1.3551099484580598 -0.18336953480101323 0.5920168146010515
Ni 1.0340268845031133 2.6470901722082947 5.899465875637801 0.10815782535486534 -0.13054673457302676 -1.0285183976091963
Ni 1.5704431942469697 0.6901843843475753 12.878085574121295 0.3953431064919643 -1.8306233939530279 -0.22958537123544331
Ni 6.329009270065744 6.337337441500795 4.731753653785435 3.838635936753918 1.0597678425417811 -2.6326828817709047
Ni 4.777171565194952 4.9147122956811025 3.3657535454822027 -0.7240380768370757 0.5045396575239892 -0.04228384836987557
Ni 1.6048283768685074 7.083011881882585 9.792300344966339 0.3895367842228324 -0.796587408959712 0.10321976462329965
P 0.335639297922312 8.88762311259394 9.12561110316784 1.712712860086773 -0.0926407035558727 -1.2848825796003807
P 8.29482144507145 6.159750610071633 6.374104499804877 0.8414714139565959 0.3584056100356666 0.05138812466398892
P 3.6397280031517707 3.859151539012778 10.23487597541146 1.0043924510952702 -0.7764258464101725 1.269403253017859
P 3.9050917097732056 0.9246359330310256 6.1439037691954415 -0.07150237891536072 -0.11706901180156612 -0.9922799841024523
P 8.869567860748186 0.9602670772468778 4.592841992503145 -1.7633941884917244 1.5866573285158803 1.977136936267956
P 0.5989176975640409 8.555494143594531 3.9579154452998266 0.8743859052964297 -1.2925966604151868 -3.372060674288844
P 5.727926061407393 0.5015676219483859 1.162751690624702 0.5927902024319662 -0.12076342993401783 -0.8661486049883018
P 0.9901011426676259 5.523983784876939 0.05404078633543847 -0.80408551710897 0.41902656615183315 -1.496702913542919
Ni 8.07698333938285 3.8506088682014608 7.645239927439197 -0.7220804388900726 -0.532707892428089 0.6262775355561343
Ni 6.964514965584983 3.286578095278225 9.725484721865243 -1.483886221394225 0.3385767482351975 0.5880316047010582
Ni 6.762130141047423 9.099837604200419 6.589291206681625 -0.733430059574937 0.2401880864519541 -0.21617758246996965
Ni 8.897564692380909 1.090925175572818 7.000472521895154 3.6154479844043865 -1.1278758510636122 -1.0398222526577898
Ni 9.178820004965756 6.164320379392097 2.7476707949517234 -0.5215493047081082 0.6690298389219962 -0.10275259517889401
Ni 1.7392262251893584 1.9883998919325756 11.055737110204653 0.27294702605052995 2.4447462964244995 -1.4882686667326368
Ni 7.589631430445044 2.5369494055252573 5.539620789406782 0.43474140578392867 0.6389386759635706 0.5156889892725893
Ni 2.3701155210889446 0.2147269321267507 8.192221730373165 1.3328938173723368 0.30918209712316425 -0.5193924062661055
Ni 4.538834779983122 1.7913495736221692 8.024972836274074 -0.4179109644901512 -0.19032385463165932 -1.4794742083694583
Ni 4.679238610839442 6.965960504859824 1.6236782090124324 1.6315037954066094 -0.6128908298365833 2.2338682717905725
Ni 3.30744981719496 2.3209951639238677 4.561051319728451 -1.3856363991816911 -1.385618401459562 1.8699216773320182
Ni 3.4843185420166196 1.7989876166292316 0.9243654772957328 -0.6085898884683842 -1.9271181811476679 -1.1695752876849277
Ni 5.291233309507882 3.1599302026824887 1.3866797133873108 0.7998059158970097 1.8719824165157888 -0.8231672163307694
Ni 8.95415522347597 3.758887069697848 1.6114209685677654 1.5524470011827585 0.7277625768765145 1.1280164904065348
Ni 3.384483071454222 3.7604538477505787 12.647229221505272 -1.0335045379698782 -0.3869453693465723 -1.2090442923138274
Ni 0.32582641776110194 8.673403518122358 11.24391088476155 0.6905867391571655 0.2992540393761749 -0.8151808556911831
Ni 5.920201437080905 1.1735260875551772 4.918794312072055 -1.733007348669751 0.44447843056603453 2.3387065458539014
Ni 6.591659093274413 6.8715061708237695 10.751514510057543 -1.0945754371392697 1.4487145585890984 -0.6886761523980139
Ni 1.1393833824894193 7.894024697487182 7.247831337393959 0.5470466776482643 -1.0675901667996774 -0.11489360141680213
Ni 6.670426994663485 1.0709767335800138 10.688821938010685 1.201145349181725 -0.15504112016996524 0.7863186800438523
Ni 4.973093430264998 1.3552163853129193 2.8891629769911 -0.36266592797391733 0.9246026353601366 -0.23831760890211862
Ni 0.5533207258056407 1.8360400523643465 2.9079717744717395 0.811721436387673 -0.14073138841551244 -0.2341765901505515
Ni 2.5746453393891726 7.23136151572061 0.768967207432387 -0.6656706926417761 -2.833161565448379 0.4748675843808531
Ni 8.703004432047164 6.310096020714923 11.594966159595554 0.754626491146894 0.15640251929386612 0.2783183176647723
P 5.838458522603613 3.4206868357441076 7.62675847465886 1.3759937338856045 -0.4325595676412615 -0.44671554742666936
P 8.116525833094625 2.4883886119504415 11.697542559144246 -0.691983362394376 0.8878281468442646 -0.7805270130627396
P 2.7553097705647693 5.947452183926615 7.256021483143411 -0.6573498314809066 -0.5952574330255361 -0.7889787433745187
P 6.9932205777653715 7.341213174548678 2.275912058062524 -0.16060164497687823 -1.156953742266175 0.433506247825247
P 3.5334388991816965 1.4937083739025132 12.467901214704415 1.238361553220706 0.138165170350233 -2.239782837502794
P 2.877546436857282 6.668095479704063 2.8310560285664317 -0.3710451531765481 0.289110780294586 1.0955629978635197
P 4.4705586959114445 6.7823397127156815 4.8181288221841045 -4.180206220399802 -1.8661195299771087 1.6892170909576778
P 5.47132885103338 -0.2030236596364422 8.639179676336013 0.5262120002911003 -0.013647929800737785 0.1767175767021344
