# total energy = -340862.7830511473 ev
CRYSTAL
PRIMVEC
9.35655941317971 0.00000000000000 0.00000000000000
0.00000000000000 9.35655941317971 0.00000000000000
0.00000000000000 0.00000000000000 13.69427047670734
PRIMCOORD
 96 1
Ni 6.546054867195425 4.588859108535646 12.030334848115913 -1.3412748423471803 -0.2822531339428042 1.5290648748133926
Ni 3.9234393103514775 8.658541443798097 5.542400121537219 -0.051848352129859096 1.153342627876149 -0.7153775729486003
Ni 4.475448250893554 4.629971830957835 7.273109129742744 -0.14721262526448192 0.9221073797421085 -0.728579673461171
Ni 6.0417550235196975 1.359582947137787 1.4059082088547874 -0.011081197514826077 0.020244094961016746 -0.13020554918352414
Ni 6.835490678621913 8.741375065009667 5.660609022888482 -0.024776178503415396 1.598007463421377 -0.8361168345129021
Ni 1.3422733120715489 8.735452362849163 13.284962460427478 0.7096581539663197 -0.7587891071650158 0.5935815879850099
Ni 8.79668168818617 7.3398373050951164 0.9800659235146962 -0.49331422112181494 2.0849764590514543 -1.22702067428659
Ni 3.8612556159459546 1.930174014837457 4.9396196822059935 -0.5190699899296802 -2.3462691886925073 -0.6275900837199707
Ni 0.16165982799131873 6.07853565889558 3.018531822294386 2.153857341183568 0.15709671714741333 -1.1529289373774982
Ni 7.472981146712719 0.048103008021100534 2.6723681263040624 1.0746424456607686 0.5714667583638415 -0.9709349427677731
Ni 4.724716352406876 2.3923786973439913 13.364348189465042 -0.1792927936284783 -0.09629706936153738 0.19393574035263375
Ni 1.7180608110798274 1.14791885823593 9.254150080276203 0.3390444319002355 -0.5142391441999401 1.0968686040488207
Ni 3.5586925515476104 6.587813192222787 1.5662684107322138 -1.691928833461886 0.5970685180923458 1.2930478890199923
Ni 5.82153903923917 8.480570325638684 10.046171613678885 0.46627932849120984 -0.6768071688745699 -1.2308428762461576
Ni 2.1662212977839714 6.541189456257888 6.005375784546163 -0.9586250150521683 -0.681350308160562 -0.03328884396011686
Ni 0.7048885731030394 4.999060033367504 13.060061646807672 0.6024914888801302 -0.2872197339194602 0.9986511777361187
Ni 5.548533346286365 6.514410982982442 11.393975588068084 1.3217180032611753 0.3560836467707093 0.42062065011183036
Ni 6.175666103015913 3.8794073413667665 1.315637058500432 -0.7728751529444366 0.053466861569888564 0.7540351374197981
Ni 8.25305622495185 5.9643201371368955 7.819496649340065 -1.2201681701411309 0.1937375082988986 0.0367829731563044
Ni 6.345955485829713 8.461333239316422 13.527447056306734 0.4234560626780965 1.011692070080477 -1.1440298351156557
Ni 6.045778344102661 0.6506953805064718 7.8311511798473665 -0.112404002225729 -1.6912078961354615 0.14738900294134616
Ni 2.7322931472474288 6.688807895414664 3.7068611564027085 0.030095019613167528 -0.42567955269197655 0.5971423087530748
Ni 6.4169717723987665 6.1626791984364875 0.23270792686265457 2.185886858815287 0.2902572351942033 0.5484232462808167
Ni 1.501652946513872 6.521793308424206 11.220387082376256 -0.5445511649199202 0.16854455397303877 1.3297347029180646
P 0.24857010217497524 7.0385654459071185 6.735089181302036 0.2537213450516986 1.7561886718822206 0.20162565279772374
P 0.07318326574815505 2.988765799572104 9.622306369360142 2.2915514854346535 -1.4104223478771192 -0.7108475462887306
P 4.4818574941478095 5.945354391039996 13.657884980918308 -0.30443892601122413 -1.1641829130247627 -3.1446486565556357
P 4.24704527705467 8.810379691287237 8.508086095802355 0.3152064489403733 1.1257441494325904 -0.9314877925157442
P 7.493097749627537 6.714547790586134 2.4991903735740744 -1.8838529427011297 1.6999154512117884 -0.23819908104638335
P 8.603468734608974 6.003421199267602 11.841901225128897 -0.5422885941379886 -0.6977511181160887 -0.0688957945304491
P 1.6906835179966857 9.04450887953722 11.065915899045146 0.14525113066273693 -1.7643493533161418 -1.0168756711639455
P 5.654140833309406 2.9568599316932547 9.721042399089864 -1.3337921608168901 0.5044198441166732 -0.8024415537476438
Ni 5.468918381541165 3.1686082296305687 4.000028363755908 2.092611864109525 0.546146277321182 -2.5890507469032507
Ni 6.333894880640319 1.7019862418669645 5.6080504212357365 0.2510746514574708 -0.5690344947732651 -1.0419007324533733
Ni 8.668403257506105 8.276672181117895 12.110678688845793 -0.12212071529286064 -0.9776398655917743 0.8482084755701134
Ni 3.337166648937745 7.564226314910532 10.2628564324059 0.07832351560225222 -0.8841571257505805 -0.556381839006261
Ni 8.329911004645947 8.021752717669434 4.094929139748521 1.567548118490255 -1.544069832862657 0.8693696830287608
Ni 3.562481958143192 6.710814523347524 8.089780519135699 1.5233763090690475 -2.7980642075246136 0.47801358620900253
Ni 3.667284781049642 8.833948864655806 2.706891959529687 -0.0250811113383439 1.1134074822441082 0.21527821058415184
Ni 8.729903923068473 2.371466786872077 1.2240297914501532 -0.9650376034467316 -0.04060234690239459 0.7822257409214013
Ni 0.2707760248250847 1.2388084771729222 3.328625045774519 0.04776338342720807 -0.10357457685955711 1.1105928956134488
Ni 1.3266197880359727 8.517902998024786 3.1440266765246117 -1.582169982168488 -2.9665252006449103 -1.4458071551343163
Ni 7.995039740310457 8.384356824348886 8.016009661451243 1.6755863875481207 0.9678313641417848 -0.8167232604776385
Ni 3.8433003782745434 0.41065003968763125 10.361659829363987 0.3707983272730646 1.734827175487309 0.15116749614717193
Ni 0.5865524225426406 2.1454684488234763 13.075687101164762 0.452921162016749 -0.1343619945540589 -0.5906813836190795
Ni 3.8219487095063513 4.288055077322411 4.878515734766223 -0.7420890208015155 2.9002231349835665 1.4481849113378737
Ni 2.470412403534491 8.440617816593907 7.4988043152636985 -2.7328499756108093 2.2366612611546772 -1.0751160428630775
Ni 5.072939427142107 5.975753852840107 3.462240457990684 0.5646623338474985 -0.3458316300253979 0.10341388291197676
Ni 5.799148792367004 2.7800864531492357 7.6053455869243685 -0.24932655841811255 1.138600436569968 1.116476093867103
Ni 0.6437443924574403 9.404558645474467 5.993968267209538 -1.3831444859977728 -1.0086864504849338 0.6229402436527852
Ni 7.045741927039986 6.4624352949862525 5.650530137000184 -2.531221237489292 -0.786745740278942 -0.21503601266635872
Ni 2.0351639689338117 3.141361928380361 4.097366523497037 -0.6772560834865304 -0.5695672273482836 -0.23340345942995286
Ni 8.349784337013887 3.6280901533239818 11.291392141073912 2.345410183126322 -1.0749628051146647 1.588743778731264
Ni 3.749089180716733 2.0476830455384745 1.8697886511669237 1.5860742023189007 -0.4226587635877818 0.8341149735915246
Ni 7.650578002492321 2.4144414646338235 3.338115404070565 -1.5722918038228277 -0.12657772262294975 0.40521511419003764
Ni 1.6705669150818687 0.8797916754039545 1.6306452826834266 0.3599714118608897 -1.1655383986113927 -2.2305276374531138
P 6.334100724949215 3.912323717671104 5.881935630781097 -0.030204805718154433 1.6040989210310954 -0.5752735337044416
P 2.563865719773186 3.190792632193839 6.474116959516089 -0.19273914894137129 0.5059213683628642 -0.4402037144500806
P 2.435914768675454 3.295034061530573 13.238757898327966 0.6597746388723154 -0.7123264448271023 0.39881615264222925
P 8.913114714545232 0.2200475662096132 0.6233470927577652 0.23957873500272936 0.2535858479150988 0.10346350520298957
P 3.693333442684456 4.12377260570457 2.6103472360337574 0.40231645248600395 0.7854581318157698 0.7443891296896018
P 2.063907319703262 0.35647368889815506 4.520643240223526 2.1795550030599884 2.0271142966273477 0.8301115088590865
P 7.0675427106639495 2.6793443770637313 13.477503613032916 -0.09520357918704249 0.6814814344217877 -0.664808858862113
P 0.05127207472214637 3.6237206400396937 3.2962794195993923 0.2193233271878029 0.9435768624697942 -0.9095457410270142
Ni 2.106975563059961 4.130256701434788 11.335446565801412 -0.39683280366361334 -0.2788410229374617 -1.4962336872159845
Ni 8.94533870544692 5.655010993342466 5.160713311767176 2.339164459326926 -1.318781803450987 1.18431207967447
Ni 0.6307621661577618 2.026892770339998 7.478824318117512 0.2616038331235688 0.4830069256585359 0.5320766866019934
Ni 7.766131512258829 1.9219683121601108 9.134325301100107 -1.1128958327150125 -0.8198312099790009 -0.8363055534849403
Ni 0.9625373449562692 7.498814607479143 9.214272423707389 -0.2530718843931577 0.5009761085424469 -1.0869541731485861
Ni 7.512521967139705 4.901751814616762 3.339375732634577 -1.5944629406032282 -2.2849887446154713 1.4879699045452954
Ni 6.529839949590132 2.007590188101269 11.360903892876125 0.05323597650600509 0.5460418905328338 1.5042352173642222
Ni 4.259742128289743 4.869499754036587 10.269662393782756 0.002761879015853308 0.2712891787321328 -1.1909100446069618
Ni 1.8211420270391483 3.135055607280553 1.7503334560908912 -1.6240985040814737 2.403978627588834 -1.1419770663516848
Ni 4.082500821770962 2.7050842722352018 11.199379734997487 0.18224647694016355 0.33623884413064026 -0.8536227046071492
Ni 5.714640347005782 7.9973320973867965 2.0015411723875816 0.06319925836630406 -0.966364035567639 0.3943943694254498
Ni 0.9663080384328605 4.532953665551445 7.342580648339128 1.9771662468439948 0.6109239359181995 -0.048415929409542424
Ni 9.293636632658114 0.8846954482354222 10.97894293591287 -1.025764231902827 1.2274197094972217 -0.5501965361311557
Ni 9.384629173749554 2.645660762880782 5.269706002015605 -0.7194905666757092 -0.28311805304626075 0.5109355337480039
Ni 3.4204680981240783 1.3189567658093517 7.129073317216704 0.2141294416916893 -0.9752831924341396 1.0991275752863263
Ni 7.117703226118059 4.580391422192432 9.558983981664047 -1.2520207958753533 0.21339024953281957 -0.7163268242357469
Ni 8.038678733796367 7.110601597461154 10.021562926550393 -1.2589483762331222 -0.12764781575867692 0.4580736527519659
Ni 8.264293452905662 3.725370302396239 7.073118284467179 -2.652601732182019 -0.6361333453042916 0.04712395007099626
Ni 4.038758906130603 7.687489629701137 12.421826396581043 -1.2017724412427626 2.057183348098586 2.133373105187287
Ni 2.7596891534495613 1.1227403566341754 12.271723790878275 -0.45323046572705167 0.5216297802370565 1.1702869690399715
Ni 8.33709684233831 4.965469984779507 0.990058729055638 0.2591736264155214 -0.9041657076620235 0.2096050714587745
Ni 0.1049263294917869 5.094291095910299 9.662718285476137 1.4324592730725008 0.730511086155929 0.802766026966598
Ni 3.105442096478043 3.027754582988868 8.703941341781015 0.4504981543975532 1.1069432146760032 0.571077493345223
Ni 5.93343413424303 7.6935433236945725 7.398918364372009 -2.0630660321316086 -2.121721894101604 1.32780971798121
P 4.212856408658976 6.574779504845884 5.640286575664769 2.1678904222378663 -1.5456749725662478 -0.2670232043669273
P 5.73198740831 6.297525933882229 9.268172755991754 0.5810878263933735 0.09376993206430949 -1.0446857513976782
P 5.549478358795386 0.5387347895861455 3.5970329253913524 -0.061947131126757836 0.38659852753011487 0.41317062159168844
P 8.092319889382715 1.1371213885783957 6.785976701428927 0.02603139106675517 -0.20082989636930576 0.3522514175088127
P 1.396298086597202 6.674146166685585 0.8811436982510201 1.3232087288740888 -0.9612341705402412 0.07255396010832665
P 3.7294778320146595 0.2181575411915699 0.3629175514225432 0.23665436226708272 -0.098167804021689 0.5444861160099397
P 6.971675402075477 9.383974214584887 11.497202766355532 0.7387015923865213 -1.1994545917428634 0.8760987742224783
P 2.355008598719908 5.18816545732628 9.20008507254472 -0.5350067157645948 0.5567870448644798 0.2440653100191732
