# total energy = -340864.5220744986 ev
CRYSTAL
PRIMVEC
9.33929160600572 0.00000000000000 0.00000000000000
0.00000000000000 9.33929160600572 0.00000000000000
0.00000000000000 0.00000000000000 13.66899729545519
PRIMCOORD
 96 1
Ni 7.617350196273619 7.364395489121707 2.6878984926615783 1.2079258624386682 -0.8966902252205848 1.260006128073675
Ni 5.973569537544191 4.507328808036023 9.413496724297115 1.4506238597966694 -0.45798983478890803 0.23092928685784747
Ni 7.777294900526291 1.2373066797974483 10.787340108420874 0.838406401878027 0.6092198087428992 -0.4971680476502664
Ni 0.630855124092705 8.289676443759642 3.107072040018338 0.2684080005295958 -1.4578856835654053 -1.1117038692894403
Ni 2.3953601329051746 1.4403148566245154 9.681395231593529 1.0379273496279222 -0.840707796317694 1.3251175158610276
Ni 7.74059148538481 3.767554198170412 10.997719787937806 1.0021327085268161 0.41615592947225755 0.015718439176521316
Ni 8.978458522665335 2.4184842183734463 6.872552915501368 -0.6272170166512682 -0.09190305405889979 0.8634412333594678
Ni 1.420300755187316 8.384927876591187 10.212107935956574 -1.4170971887941337 1.607407159468722 -0.6159910660284618
Ni 3.6683148879176444 7.612278961051781 7.2433246513282965 -1.0757117674655474 -0.2937071414160168 2.5058426495151878
Ni 5.699227853121543 2.6244903077349697 8.000518907484464 0.15715482407885836 -0.3934345766153418 -0.5129417655447553
Ni 6.674698159660325 8.243026683293563 4.916779219132276 -0.4122319118275029 -1.8905360111482605 1.0849034612671444
Ni 8.833232541634793 7.51216175740886 8.559416659317097 0.632535343540388 1.4631685292308994 1.1249967297436045
Ni 9.224427439861566 4.127733309708925 0.885236874968184 -0.5258060231019331 0.37869804173611554 -0.7851981932861638
Ni 1.140701049715138 6.392193934567535 13.496835712409341 -2.6557292220674067 3.730604609674588 -2.19749821780197
Ni 4.067812416185326 0.8265356928994142 1.7104697367194464 -0.13938001659394061 -0.06756910529922557 0.024813716609570168
Ni 2.833578363253412 7.736986518910355 2.415010935907513 0.815864254911453 1.5217752831305145 0.2799607383642017
Ni 4.760722461883011 3.758298960408273 1.046800078417808 -0.521044854267864 -0.34585785527764307 0.2439056445128574
Ni 1.5241536753840765 2.4893974578567195 13.59123446793747 0.4710669796878403 -0.381532168750801 0.5112438090170421
Ni 1.3725863155033904 6.497886695167063 6.3190953009002655 1.0315127043508299 3.1469235686327415 1.236528099556393
Ni 6.14469337358423 2.2217613846482154 12.248241565044465 -0.9947567277777191 -0.11148354729398866 -1.2172204003667166
Ni 5.156372202100239 0.1134667867480686 13.355074608482486 -0.5553886218550563 -0.9170759879657883 -0.2830722874099899
Ni 7.09389225345813 3.0966942194317695 0.4357311770525182 -1.961446265005577 1.974136973099368 0.4972721773282984
Ni 6.813078440105954 5.192823456374336 1.7487701706876941 -0.5750274791319064 -0.5984209183551823 0.788065744641946
Ni 2.700147907241621 8.519927333555591 0.22593520324712335 0.1259434314730605 -0.05148762635633068 -0.3874495626765005
P 8.878173211777492 8.177885125885972 4.96095780309799 0.09981536692744102 0.6948262311598098 -1.0966161217183823
P 8.589607786576098 5.31706404966368 12.610483726049837 1.414470035583932 -0.21497610596270075 -0.4339793308069235
P 5.113738336929536 2.0197431727079165 10.014631421416606 0.13788569143660126 2.774436026582712 -0.9208938190499818
P 6.511428667674735 2.9002609037394613 3.089754192003873 -0.23263649935694128 0.5329701449505402 0.07534772080337991
P 6.131076686745483 0.8822613767330502 6.634029281396941 -0.1919840159429016 -0.21715691566410342 0.040538069323362444
P 2.0178846537223807 5.089176000588036 8.052269788904814 -0.4217285384640286 -1.6023855378844145 -0.6494079509260107
P 0.8693554099686703 2.2197534370005263 11.198311890083675 -0.48651571014274275 -0.30285666912576875 0.1420899593259359
P 1.726657530476375 8.363372792075527 7.884837774749108 -0.38764342385486145 0.7716865319529742 1.0633344768471171
Ni 0.8942754411702005 4.585181141018055 5.713025722213152 -1.7594259478725955 -2.2748819951987724 -0.429619511176331
Ni 0.7276727560894459 8.910188302643903 12.525954733656953 -0.2775351596418446 0.49247064217459696 0.8376170732075123
Ni 5.006896843489703 4.68120773503452 3.916194624131164 -0.13521225836949619 -0.02868348397762157 -0.8697147250730054
Ni 7.864486524892924 6.916202895574716 0.386561675770872 0.6860371721132702 1.0493926699550442 -0.3652437160034226
Ni 3.4470764143078365 3.4243445790777183 9.16086609055625 0.570141868904831 0.4613438388628055 -0.6558233675340511
Ni 8.257623995727693 6.688408239412918 6.237258826213562 0.3443745858638972 0.24243805882839536 1.2733195573531295
Ni 0.18098332595476294 0.8627450595266499 4.085868068219176 -1.4330701671836223 1.5931465357846497 1.434319466209691
Ni 6.699157763796594 9.39121784469915 9.208311558648298 0.24032281225760546 -0.06281873509843375 -0.9795612509842033
Ni 0.3451512577715522 6.042820383161006 10.589166882743614 0.227137423915583 -0.2646385061848346 0.7921350296153131
Ni 8.075909403257517 9.254668065364903 6.7442151750816 0.8042816922801762 0.5554243601889983 0.210785722030437
Ni 4.335401792936908 5.587604642492795 8.296684648014647 -0.6932660857615416 -0.5204673844978391 -1.683914962018474
Ni 2.6050552423636155 3.9869715099602225 3.8841552511071527 -0.6909065843904294 -0.6055827262109441 -2.0073234871536654
Ni 4.848511800898258 0.2531527001292654 10.793805699846432 -0.07030938704852407 -2.00115746755227 1.9377172968197531
Ni 8.260958122751996 3.3322685053169394 4.9545333045545235 -0.49071355027417424 -0.1595541775489704 -1.9117661241716302
Ni 8.73130351546326 2.228999335471281 12.859683104136 0.3044093583248693 -0.30343928110211615 -1.072171615522773
Ni 1.2397909313057522 0.8537550576398332 1.504163856104477 -0.4897902671289565 -0.8220981516363068 -0.05843937508381548
Ni 3.5708407037365664 7.4773728970012225 5.180741215110078 0.2671772134462882 0.35377633879377135 -3.053546501131477
Ni 5.904682924291376 8.05241174613386 7.363966815647153 0.6085029851815327 -0.25162075376892795 -0.8558161127140422
Ni 0.48443464769407274 3.0016949474676107 2.9724050618272257 0.2788919307800552 0.2281049300351749 -0.4399175506682295
Ni 2.4281503849565076 0.8210787449433921 3.4937541926480713 0.009521052116557797 -0.3854443593210136 0.99662617688629
Ni 3.763883856656264 5.621310145099819 2.3262717909584523 -0.954969420577452 -0.46930063181603693 -1.0938879241539419
Ni 5.210446699217077 7.074158330762469 3.493617838993856 0.4258800987385568 0.7637397663020717 -0.8916534341276255
Ni 3.5041114667935935 0.8037029933223423 5.863234215197379 1.840764853262404 -0.026339409225477218 -0.08686754851752136
Ni 2.4470904678844785 6.5750665991694035 9.418539941644799 1.4481057213605062 -0.009844496894247563 0.5478115808387469
P 2.2123847360980764 6.366716347670345 3.937258461919993 -0.5045946791316407 -1.222222224456682 0.18837984353141105
P 4.702856212464026 3.8736111911339384 12.538392801922964 1.034302094170509 0.28789104895487194 0.6141079900731359
P 8.552773621355232 5.019981190719529 3.1565955004434603 0.734694013889025 -0.28067190549861337 -1.0424342363593402
P 4.664079474635163 9.352366392539212 3.781309106521652 -0.05539158939642718 -1.299179455839027 -0.05722889971548208
P 3.734988089112309 2.922086827705274 6.786848106323164 0.44667363844514046 -0.7968422052829953 0.39297049249472965
P 2.7966601444100854 2.6723541760810487 1.8524493800647013 -0.196587576153184 0.2027870200956766 0.46908723025365023
P 5.2755508994591285 6.0344150209148655 6.0607508886903005 -0.8583679326016184 0.4590465581881965 -0.6514422077472201
P 2.460529708186919 5.632012973026572 11.613917828131518 -0.49260562509056455 0.5230883670604539 -0.000926882689643565
Ni 1.7268162984299134 1.4763738606604588 7.187869806944814 1.154111901942006 0.44146818298480095 0.5530010954594864
Ni 6.895460329409517 4.8980287238194125 6.960239522311386 -0.08043824795240985 -1.1425987590960838 1.7388067289603475
Ni 4.70308969474864 5.6420433719736325 11.074936115176547 -1.400088312940963 -1.6064998171631042 1.826156616430926
Ni 2.2613413015361536 4.728436531566447 0.03863758238723185 2.6611118265355587 -2.863098462217127 1.6965457634086074
Ni 1.1639278673886402 5.776856043110345 1.996848833807706 -0.2728223275472076 0.10242195131235263 2.2373636865383406
Ni 0.26329517057294183 1.2583854604524924 9.100107462595453 -2.02437992841532 -1.3036130661303484 -0.4671427049327697
Ni 7.994489460966567 1.4775319327921497 1.492503750810803 1.4635382538654924 0.012537213235062279 1.6872591959003587
Ni 4.277862418716383 2.105253724625321 3.9446673217753965 1.6008297633615205 1.755263331854474 -0.4567317940120908
Ni 4.281523420939147 0.13607721119018706 8.50378343446817 -0.323389756082114 1.0820217688439753 -0.5317036195332908
Ni 5.098767452840021 7.265062785955093 9.682789587797247 0.8616350333886644 2.3623473252012928 -1.1978016295204728
Ni 7.4322454410308305 0.18577998600989393 12.788685811030264 0.7266878557550969 -1.3763187213251908 1.1093068298121733
Ni 7.245823845702815 6.422135702746566 10.907162282956161 0.387440563815436 0.8113743374608994 -0.761946678957391
Ni 3.2577783172333636 4.824042857470605 5.829854653859678 1.4089336791467348 1.2519495763177857 1.7739688786837768
Ni 1.5279921241431473 8.909357105710674 5.7905698585794925 -0.9752713653595978 -0.6516309267192584 -0.6050605351588869
Ni 6.417316628392112 9.219094704480957 2.044854659382831 -1.3749264689633547 0.46669816119618335 -0.4150840365643174
Ni 7.091183858956596 5.407599140345999 4.755280456793205 -0.12230532049984098 0.8295301824343199 -1.6859289071247092
Ni 4.070698257223168 6.301331968686755 -0.002161112026396618 0.8609452064104914 0.7837540046404695 -0.1628953261070614
Ni 6.869104849122174 0.9167635208951808 4.163125488340008 -0.10300044952364197 2.81425315857965 -0.06322908316297497
Ni 3.380879516973786 7.892579113377804 11.504197031157814 -0.7279636371437269 -1.6530758651504307 0.5942989257670088
Ni 5.803295577020149 3.387304949446392 5.444867582616249 0.14348452568061743 -2.1294884254209 1.6389751640829904
Ni 6.538316487571 5.284852833678191 12.893213028064993 -2.244561232728044 -0.6628347658548778 0.12331936358665214
Ni 2.719162704500668 3.4023505478669835 11.881762167537898 0.07141624695945765 -0.00889524560710081 -2.4658118588455467
Ni 0.655455751528882 3.510490202809276 9.466272125982355 0.8291404031950689 0.6772380857644014 0.31895383179794745
Ni 9.052388353265835 5.192739402751874 8.113000398991458 0.3566315488543793 -0.08824411715007384 -0.7211651261646548
P 5.543943455269786 7.555066462029716 11.964281344424817 0.2558211650035207 0.10160434050706374 0.12717756099047775
P 3.0677891125964303 0.5838850259321324 12.239096530920664 -0.12991321475408593 0.3914401718931323 0.4086333958429672
P 6.94428614476821 6.505619628433513 8.55703794180144 -0.23348882005490756 -0.7797700802920571 0.5179086226317273
P 1.3587641642541815 2.581342781538114 5.163613888639858 -0.7514943732758155 -1.5775101147989736 -0.34029964446357525
P 8.82792782412834 8.903837584502375 1.0449863880309187 0.08294764463782489 -0.9493423041986617 -0.22849085261968388
P 5.681324431537264 7.367851026934009 1.3070637150073086 -0.37338434283268596 -1.3870577050092499 -0.36839357448631393
P 8.60980867384099 8.450620452190469 10.922280727849556 -0.24489063413394602 0.019758156463533714 -0.6454494804988948
P 7.931598672782665 3.204973963744831 8.62597125151118 -0.1611572603700321 0.36010356656337983 0.6729659407516088
