# total energy = -381169.60178978584 ev
CRYSTAL
PRIMVEC
9.25021675311850 0.00000000000000 0.00000000000000
0.00000000000000 9.25021675311850 0.00000000000000
0.00000000000000 0.00000000000000 13.53862724442413
PRIMCOORD
 96 1
Ni 0.8161771339196208 4.701302320234042 0.43458997492962465 1.375539162846689 0.4231603858145486 -1.4655275163813795
Ni 8.792673110317244 1.300265942751154 5.51582644045213 1.4106668597877576 0.8255544856160234 -0.8561218168799192
Ni 8.575912785370331 2.278781602455815 10.127786468940887 -1.2869487181007901 -1.4422068393775678 0.6748451600521926
Ni 6.010226465697197 6.3855355026993355 13.637188208550716 -0.06323936757562013 1.4310158557577548 -0.49916476636532103
Ni 1.4646052903808584 8.932314379697972 1.517314874455134 -0.48228161745673714 -1.7900788968717622 0.18603345478642155
Ni 1.1437337779087668 4.4498074320568275 5.881179469357125 0.2208539048997164 -0.34158313916168914 0.8351048483086199
Ni 2.521673789220465 1.2274297374581062 4.800716247783629 0.6941723996258948 -0.5179307341189145 -1.4482810705961056
Ni 6.2972051846470976 2.7336425019827453 2.0932204079651364 1.118127770537913 -0.38936143498723264 -0.5163597900873687
Ni 8.377227383606376 5.496136429455587 12.70470162651156 -2.146516584547781 0.7816518706958022 -0.900835614847526
Ni 7.520722080494973 5.775483719733051 5.94378216005585 0.2819065492366629 1.1766147110302125 -0.46354958826487264
Ni 3.482604787220518 5.621763620728749 10.221703917803005 -0.31516325440726367 -0.8742378097543396 -0.20811177474269968
Ni 6.546406019114295 4.051715111636251 0.006212445450191903 -0.4263467539623303 0.3323179118096793 0.21472645184573985
Ni 5.559796419908566 8.619074295898317 8.536496687532612 -1.4533086057176843 0.6044175022582494 -0.44104292252192434
Ni 3.6812901889844722 1.5523620950055912 8.455738596766746 -0.507236744740178 0.6453368661804305 0.48104183151236507
Ni 5.644963163892957 1.889356734963812 13.081576725179449 1.146008041887949 -0.9413212336663983 0.17231970474475483
Ni 3.6157894054335356 2.493192372393275 0.4174243480357576 -0.5970906295795331 -0.18972170227128615 -0.270043993471122
Ni 3.3693821363712786 7.641973919329272 0.7661075616551796 0.5232675729507956 0.09939062068519657 0.42251735291391107
Ni 4.251501289172351 2.766841529261987 11.365744802901983 -1.7405064852602734 0.5947306139877887 -0.26179640875034915
Ni 1.7504277322591784 2.077358136586356 6.665553433678317 -0.8135404918742828 0.12283779596454326 0.9752675087048559
Ni 2.2452495673799575 3.273818148959229 9.421151324696247 1.441969526555781 0.754084759710811 1.1333870106898287
Ni 1.613173018754194 5.486062943607971 8.53300380575478 0.521349015771844 0.3749375462524188 0.3810135772431696
Ni 7.621577191786578 6.048577863607405 10.540362778470918 1.7149517767196207 -2.0116987334032257 -1.920010366458293
Ni 5.761284637294033 4.3384348245221185 5.023371735752292 0.245454477057216 -1.429734675052486 0.4814154128016999
Ni 7.6059443257787995 7.397342691848964 7.829198302759713 -1.419779363611987 -0.04985343318701737 0.26636885861237997
P 2.714920063639701 4.15320848787137 12.43568960321072 0.6057529332402213 -0.7023153404480035 -0.1453380339495884
Ni 1.102968073473097 6.69601902196034 2.0351808491016996 0.6024770907024269 -1.1941601761131433 -0.89585307403127
P 0.48860476456230123 0.17456916213739815 10.719559823959614 0.44653634153632776 0.8741254525461913 -0.24815156427340487
Ni 7.784880515160146 2.9815668065629173 4.165293895823537 0.3464471521222098 -2.4844425865728565 1.516603252011272
P 3.28359562787652 6.18771962129321 2.431659006730348 0.8493325618722276 -0.5272144734136855 0.23036518682426135
P 3.3370618796664386 5.6200153297965185 6.036345377211732 -0.08724910022665619 -0.42389700687025705 -0.941336917395682
P 8.92064985659986 5.754272973131965 7.831297176900048 -0.6181785605980837 -0.8242578782917869 -0.48962983029169216
Ni 5.972013821035578 1.6652332376250694 9.081778454057199 0.3024746031960016 0.9679959147441072 -0.3911090138059587
Ni 0.8186552669394338 2.874745305581952 3.8922608033785635 0.7862286914332073 1.044709405546762 0.6006284675294624
Ni 6.147212922921574 2.9834631009603103 7.034833179518402 0.3301381305495411 -0.3906467294575595 1.0952917464800038
Ni 8.215024836004956 8.30407667094986 0.6968780158038078 -0.8194931099132918 -0.38938663179821326 0.27867338701134586
Ni 2.015224431867864 6.148970464070378 4.294344592250238 1.7300166414725433 0.2109613283763528 -1.1724934897729873
Ni 0.3483141299781731 3.468923716909568 8.129444607339765 0.6913467572516416 0.6864238660287276 -0.9586352994648135
Ni 2.45886481869217 8.684029316671467 8.057622225783081 -0.2815072569157152 1.258546255698697 0.3851869918945689
Ni 6.953563551776068 4.338462575171836 8.952010865846116 1.6380945612502498 -0.31201416725532066 -0.19077174080235532
Ni 5.079728680221164 0.3246511509636765 1.4851601966269445 0.6060280412784789 0.20864502153835035 -2.1391040941337933
Ni 5.171990340316777 6.255736463751907 4.237630589421662 -1.2254263332162767 2.5217078986822186 0.40869433098788965
Ni 1.0180140844698773 1.4164394126870687 8.907373945774793 1.1228398313016017 -2.6054911518474606 -0.009417179548841845
Ni 5.485267424982722 6.400641106362473 9.00122386805593 1.0473802675107058 -0.23024640185820994 1.7937889987334976
Ni 7.126329846703457 0.7838097011102603 3.7491026016569142 -0.7520731285974209 -0.8635343072939063 -0.49740021826573055
Ni 8.896321787013791 3.5686410515627376 1.9237980663287608 -1.8731216723265547 -0.09846682331934654 1.0540479093388686
Ni 5.43527925462412 5.259867397756954 2.2436483548912323 1.1833175769716846 0.17918789261949786 -0.5541172113418006
Ni 4.27819741420102 3.288812750023495 2.871285724583781 -0.8066447931957139 0.049320700611998926 0.09973334873659598
Ni 6.515020034283293 2.816357938575384 11.05585977265323 0.15728157946470978 1.1480325285171455 0.20716535166903033
Ni 2.136346767670146 4.084877138049202 2.1222068866171933 0.969875134044691 1.0886924959959317 1.7205580671628047
Ni 5.162712373094409 5.039480987913562 7.34225487709386 1.0225799206375743 0.21458761227503043 -2.45398555563458
Ni 0.3198225379127531 7.8537853784098175 8.882855321727327 0.8810268076517148 -0.6960449340582593 2.3239041907337463
Ni 0.019041570814800526 8.8799489036802 6.990061206285118 0.6635233072814701 0.9575117273833317 -1.0797052048956566
Ni 1.251896560292766 5.460245589153704 11.625903443921143 -0.17979852962030327 -1.2893987223031795 1.0125356490276949
Ni 6.9126128430089455 0.3372804716503159 6.414100171475679 -1.4809405085023397 -0.7381022682396257 0.2407629851188176
Ni 1.324862268617831 2.4324924512435437 11.509458017617993 0.5666050593961661 0.4327979089043127 0.5966018628685725
Ni 8.12216191183212 1.7483926846131954 7.861122650195244 -0.4690178104682955 -0.6648273708048743 -0.18042459324007637
P 3.9583341753353474 7.845802441507621 10.117876711926606 -0.07835102640607798 0.1558168219937252 0.10593562089256593
Ni 1.317832104022617 2.159629562783507 1.264395452925731 -1.2823749826871786 0.14840947378606054 -2.1802687412975614
P 5.9904495026648705 8.786392213264415 13.055690919122544 0.7179571607503183 -0.47946523105386457 -0.3053632375977064
Ni 4.170145634415892 8.260424898943523 3.0738913681312248 -1.0109094262781815 -0.5588755519623922 1.1861301067198153
P 7.20333789967077 4.658501568152389 3.4245818787469116 -1.9313558733780998 3.310964835418788 -2.09253781633848
P 7.959885362498117 1.8025804532957803 1.0519170532302977 0.9105443574948576 -0.6122871348143133 -1.3395630018623963
P 1.128600423595911 8.799120511268383 4.812413146639745 -0.8884074163865022 -0.5223170361120683 0.6360245876405691
Ni 5.20809393559983 0.3479811221815577 10.990156409359352 0.346129620881791 0.977203035164672 0.30482022061004277
Ni 6.512503975375533 7.819948086187063 2.489116726971365 -0.07634530882995884 -0.40617027901445535 0.5749135792618616
Ni 8.242562730741735 3.670115927364711 6.445889465749249 -0.6187737709799215 -0.38462546296414407 -1.2192032351247002
Ni 8.814864379875033 7.672536634885308 3.3849271253216173 -0.13284118703415831 0.7985612448566312 1.124800297462082
Ni 4.011809677341838 6.805541586180519 12.265508743815387 0.186326303436492 0.2282620244383295 -0.8325859385415081
Ni 3.3650530350152783 3.719798840576415 7.306702594718535 -1.356350248623064 -0.21996995963286634 -1.1624864991589463
Ni 7.694644652493943 0.8598992075719094 11.921830822383425 -0.5895326147266169 -0.483489007501277 0.7701994058844864
Ni 0.45897632088010254 0.5340011274142397 13.21249504033217 0.2868029580970158 0.9358663811994141 -1.7051605016608118
Ni 4.935591805586127 2.1601475749115755 5.442257618006528 -1.4623766294572236 -1.6710697306246898 -1.2245549863549168
Ni 8.720493670400854 7.775556296854915 11.557031881451131 0.412398005091722 0.08928361415818171 1.2280655706113366
Ni 6.258983289768907 7.5666771564278985 10.946345533627966 -1.826602702829409 1.144106968210494 1.8160390683809498
Ni 7.445610321925052 9.221938660587652 9.6852625832569 1.965329402110067 -0.05686868816258593 -0.1771232967809853
Ni 5.584235492093508 7.1601763891427845 6.4652085430612285 -0.12443625079991473 1.489236429962545 -0.7762854641775663
Ni 3.5125199876164683 6.7608537899180465 7.78393884311305 0.012550840081817094 -0.24134816819832627 0.2571879634440603
Ni 9.288234962763836 4.303709511508389 10.118552902758067 -0.3912581377893133 1.9819269014574319 1.2225032460322107
Ni 2.853701062879173 3.540992154227086 4.608941682821101 1.1080878698034078 1.1628245992246553 0.9427330264122603
Ni 4.069947288500945 4.806329279199913 0.5008631515643773 -0.8198186115735107 0.6761872759023838 -0.6826769973917856
Ni 1.847573506705151 7.293990022082743 10.802023654661475 0.8204014806601743 3.0682881782170255 -1.129658653995648
Ni -0.08112994947208622 5.17528341741664 3.9022251366706224 0.03871464296137849 0.306304261354737 -0.21530083629197114
Ni 0.4848945026950113 0.8918466805488715 3.0602306482967347 -1.4869779729456714 -1.2834625593244025 1.4170249407953017
Ni 2.9431599073532735 0.7857716720453194 10.666082471909807 -1.3786031464839936 -0.9115386030873269 -0.16388622926542099
Ni 8.533907551913927 3.1341768795785008 12.681104324034731 0.18379299549167702 -1.1061878245672174 0.173969581643352
Ni 5.62623147533334 5.229646940214106 11.406211725342356 0.05101840002939601 -1.0656530976779646 0.19386914878075642
Ni 1.0623411222860173 6.784062583298826 6.2367577944098 -0.33904520323118387 1.2029536060350572 1.2649673287336924
Ni 7.886420142478128 5.853120787427304 1.5032212444850441 0.4491784071448651 -0.155596478452803 1.1098791573758757
P 7.082539321448531 8.055199594062705 4.814065235319621 -0.7095018308941134 -1.0238245916779527 -0.31031518228634297
Ni 4.762844011091883 3.8236695224707047 9.128716828011797 -0.5791834102818089 -0.9341303723449138 2.0128043077625786
P 2.793713408405536 0.41234967922400173 13.547832966502227 0.1435428897223786 0.8080658419129567 -0.4092463468366178
Ni 2.953029888436291 1.189318845178787 2.330823320893545 1.4661291545211201 0.020932636387609112 1.4737054242064813
P 4.505660239722489 0.47232808348106586 6.902803913355307 0.47006913455094523 -0.6740540316094649 -1.2673854512568818
P 4.926138084248879 1.2808219875154434 3.376898862358214 0.12407115415101214 -0.22396622527645302 1.087311813598321
P 0.5812651089921961 6.947994921399333 13.446171236325487 -0.14569901683343292 0.10592302248707564 -0.294741239107486
Ni 3.24680751656709 8.389724426196027 5.6346408472195355 0.137539363840776 -1.193337423101532 0.3951942396189258
