# total energy = -340862.8980661837 ev
CRYSTAL
PRIMVEC
9.31594161822279 0.00000000000000 0.00000000000000

0.00000000000000 9.31594161822279 0.00000000000000

0.00000000000000 0.00000000000000 13.63482222808153

PRIMCOORD
 96 1
Ni 0.1933682016935049 7.943330628470995 8.52757244314514 -0.4236560945040445 -0.0474489375105828 -0.27519005644843575
Ni -0.07694967629673073 3.3179284396051365 5.065636317567833 0.6027246879368587 0.7481845921762921 -0.3140949610437494
Ni 5.928637184771253 4.557181549698672 7.222092305352638 1.3858222899402521 1.3554151384033044 -0.9720245762875258
Ni 7.295993805610109 0.762622529778523 13.997235551413146 -0.10313466110866108 0.0806220818284418 -5.581921784531541
Ni 5.471494622355166 8.876909068025991 8.34676119891899 -0.17126118157325343 -3.8467606227435813 1.857500677959846
Ni 0.4898545591894932 8.088081726570099 11.5076256606234 -1.0642595597645477 -0.8765281484504129 -0.6142218899431808
Ni 6.129759044525504 4.870700242929929 2.569318948941086 -1.6784747648395093 0.834103403627299 -0.25702521261395095
Ni 7.574950356097918 5.927062790667844 12.267699348823864 2.5254221143090123 -0.11393869370270053 -0.37434130742931654
Ni 3.593652358413168 0.757141029835061 1.6949172326030493 -0.1874043669920192 -1.6260057484065158 -0.6622776077998271
Ni 2.4977529552026945 6.901929482686173 8.793042305209852 -1.9379237564036043 0.5588863505956698 0.8206706751611608
Ni 1.5002764733088019 5.156084793011533 2.5174925035205082 -1.180276990373148 0.31927059170741795 -3.70078855475442
Ni 3.2158723011268453 0.5889342543776142 9.941667142189893 0.17937198360584594 2.164014741332544 -0.363614922150748
Ni 8.751320861469548 6.41059741518425 5.484511787329672 -0.038267785231947 0.28898865289442494 -0.8296672222328163
Ni 0.8378217406786248 1.0468043918201866 8.562559392818264 0.057246897437611084 0.61768336612922 1.3889626353414468
Ni 2.834505606386014 0.6578759474122784 12.777150922427134 1.355856082595465 -0.25497630050472214 0.3268304063325468
Ni 0.5939844262323911 3.5923947063187303 8.876896025707977 0.5618426050105162 0.08915865854454323 0.24755969632567684
Ni 2.8669343985396365 2.680093877013337 0.4025707090530574 0.9731674316427176 1.7072353819119694 -0.8089523582829682
Ni 8.382185997839809 3.2060160350830267 12.633767404531463 -0.8422378598089754 -0.3105177852154523 1.8117211577318864
Ni 1.3296456898885936 2.851274300978522 2.972240868986442 -1.6250248725504852 -0.2122895602694731 -0.41951816107627105
Ni 7.500786146291831 5.1314348119605455 0.919872826508054 1.7317241110819532 -0.8476605734864433 -1.2399319830316193
Ni 5.147719077598159 3.959601170070332 4.432680513508309 0.7367763503393505 -1.6595948972158707 0.8618828877334125
Ni 0.2990305411033293 8.810672724385586 2.3049390520248862 -0.21109502574073968 -0.11867646549800205 0.12991141498187303
Ni 5.2907001468236095 5.107856164175192 12.72896514692142 0.005395717094274578 -0.6703873813911552 0.4522801859986404
Ni 5.6885467419723 1.441213404577413 10.061489712588944 1.1336952859588667 -1.6012182570491909 1.0978715913920383
P 4.180696408272549 7.674034709256758 10.041637441379702 1.089283335502395 -0.1354840239736441 -1.30005723045829
P 4.021198174873478 8.104133093671706 0.36028471926147265 0.5301383319286999 0.8028210485742496 -0.4222299035804793
P 2.371671003749915 4.693473772970001 7.450584401058439 -0.967950149107836 3.106591444672598 1.2154550809361775
P 1.0897881456256486 0.8422440180803267 11.05038248603976 2.6908283797633854 -0.18851996865370113 -0.9449238634159919
P 5.3817821062852484 6.725671870636034 6.63602736093863 0.5656992597524451 1.174932438231783 0.8627082118481852
P 4.38809721255755 1.808643450923582 4.5715784056004845 0.5044661239735764 -0.10270322999819731 -0.6574835288452935
P 4.540692333349373 1.3939815814751821 8.232992127267833 -2.175743342623382 0.5214037802691794 -0.09988658648500863
P 0.04353432594458261 6.47763492978852 10.108843574524043 0.3325986762748917 0.045694673823637434 -0.30263452581263367
Ni 1.0304176508267302 5.020211787105017 13.531702120541798 -1.4265886732243367 0.4143145053881445 0.7424446043687213
Ni 2.8808989947586197 3.5807311476354964 9.969222765376102 -2.3280225837774937 1.1378692148308984 -0.7051386688294113
Ni 2.3763941860601387 2.600777951590775 5.084847652005983 0.6820110816730125 -0.052672904913683476 0.03964615363671237
Ni 2.1081416522872134 7.461864142954332 -0.12964343586539875 0.984929200164336 -0.4754964762141037 -0.9252268992076969
Ni 9.22347140554593 1.1025603013402754 4.0279717958947066 -1.0934014714358267 -0.5491027888463446 -1.8791311117454284
Ni 0.35761663363297586 1.387702636944432 6.1241079944478285 0.8356848891818058 -0.9381785742723585 2.606159124448763
Ni 3.8778910476976174 5.2524954709770135 6.00943900285354 -0.6402486530242457 -0.4376459810252334 -0.5158910779810664
Ni 1.297338004973695 7.516399664145744 4.020581459550131 -1.5976511085232228 0.34083314836954204 0.8130411836403612
Ni 1.889962303755805 6.849396888904422 6.229149892157731 -0.28323786645357674 -0.4996920996237007 1.2243804084502656
Ni 6.284971944862045 6.189865498698205 4.655801037379644 -0.019638085945901662 1.324131240688358 0.9841771524896599
Ni 2.470764672850197 2.739743850055464 7.520422287659658 -0.1137764570932234 -2.832360923923954 0.5988361515157299
Ni 2.986774669227426 7.7643341296374135 2.520165247119725 1.3425413677644298 -1.4127839061307603 -2.357154468146444
Ni 8.513112238841533 5.243980700500594 3.1369085182907255 1.1056432649176573 3.172693992728626 0.28197365502917243
Ni 7.377731875807144 7.415088800982676 2.508371265256328 0.3927686608965687 -0.4718604221234131 1.0344825856124313
Ni 2.7880470064233274 8.30766778225899 11.371359521988108 -0.505529275130768 -1.9783145015158252 0.7326258185060867
Ni 4.2531185370293025 5.591269681452874 8.563745312163611 0.7537294332539213 0.24558097533275125 -0.8061123177310117
Ni 6.471570251910897 1.10898830093407 7.134338931767612 -1.4147862812727698 0.6359541394139498 -1.2879316508393497
Ni 3.292812661482136 5.111647752341387 0.6896824346776897 0.5850115869278119 0.4261734616092596 -0.41378691501944864
Ni 0.03810499527318616 9.077341548113663 0.010362121664025859 0.95817661466084 -0.6317645268126346 0.3132794071209895
Ni 5.498417693117581 1.9666511336922077 2.3469483583556947 2.3469687858626935 -0.5089632405129816 0.9748903278710952
Ni 7.338875084059727 8.211275736176392 6.392522625601815 -1.0424257517189082 0.15887026410806832 0.5785971987610358
Ni 4.428547030291256 -0.08871477874166309 6.171256905671241 0.3579443541285319 2.095569918296585 0.07506129991121266
Ni 7.730778108569518 3.268386263025716 3.1660599622456567 -0.916607532969802 -3.8248553380300585 -0.7323550813432033
Ni 5.704150943884772 8.754600072856528 1.4973214566839443 -0.977457060157007 0.5400951860310957 1.3111474268341807
P 0.47485775665892693 6.99592733181862 0.9470856230492622 -1.9597403380580634 -0.4536207591869349 1.931480828991738
P 1.9805412023796687 9.135799080651433 5.804302903932671 -0.16810360978087824 -0.7421908364867024 -0.328838180791195
P 5.033934168846552 7.039348934871774 3.170300578789273 0.44600977960889643 0.7917753322830492 -2.1038342151879057
P 7.5719040432469455 4.519833940464581 8.813412542763173 0.47221600569061895 -1.106320750600656 -1.0067246987728726
P 1.5299850105618615 1.2348932494994838 1.5256959511227557 -0.38114033262902103 -0.7039706166632392 1.2339261431571718
P 6.4823301642744235 2.3096361496990765 12.000729620187267 -0.0485722524817486 -0.6719750375932492 0.06407060522766386
P 2.0527024847760944 5.541205812152798 4.338245746722313 0.7789810087318584 0.285021954937193 3.7839817397441475
P 4.68783762839863 4.995123956806337 10.60236954623515 -0.8953367965164839 -0.4978321635968265 0.8521193805887453
Ni 7.20361693028827 6.5972609338231845 8.24834479876142 -0.17229065127903231 0.04910961304245736 0.36894507611440974
Ni 3.889358971610605 7.535106074557831 4.907159111350617 -0.16033193625525935 -1.3543776982777256 -0.5901481368234288
Ni 2.6699395008434297 5.7855070604827565 11.588398599287226 0.16687462246978357 -0.6523683191059152 -0.1757621547674005
Ni 4.7472733347876295 2.698409017884932 6.591004347551891 -0.37624315243771983 0.11869574877171168 -1.0921868823024352
Ni 7.724722746633334 2.974272675814568 7.046612574412762 -0.39127742106302293 -1.2245662992088264 -0.3534181841234043
Ni 8.448888138552228 0.946946815521802 11.58744464688374 -1.8491060261382477 0.5620585776760643 0.6892376813284388
Ni 4.294704899618722 2.7971207333861616 11.425830763183582 1.025316088621815 -0.27194558136920904 2.3283483425480287
Ni 2.7250991901113406 9.15347142156365 7.794823342783169 -0.34501067678599934 -0.23851532673522152 -0.12834638448759833
Ni 6.533353575542848 6.993561082692787 0.27496373798650436 -1.505242575582814 1.3480802953047881 -0.5824623381433969
Ni 9.20930185861526 4.518762607198949 11.102357986523383 1.6866066499180243 1.282911829027255 -1.3385908677571141
Ni 0.9858874507421815 1.820567855967143 13.208624339798668 -2.5034949752186177 1.2768278276167042 -1.9926106064235232
Ni 7.37394960358239 8.743523418484033 9.975031254864117 0.4471274381531074 -0.19258359720011348 -0.2496798279924732
Ni 8.024751956659061 2.259674755754843 9.467993441688023 -0.353033804200792 -0.31905436193155373 -0.16829824229018758
Ni 2.6264526862001922 0.25695974955901507 3.7576883868878004 -0.4751635183547172 2.171170378540719 1.6523603271406446
Ni 5.722056183332995 9.3763087408152 4.026948905524564 -0.8521281223394938 -2.3485914090677813 -1.0092220112734296
Ni 6.847561648440686 4.2153982901376 10.76240158307875 -1.0442545773975307 -0.6215665032337101 0.5406608287265786
Ni 5.059599587514531 3.4199752621419877 9.086286715084622 0.6163206814537385 -0.1053928610152185 -0.5439860364450696
Ni 3.7527779541546282 5.208459015788799 3.0064918592857834 0.5672581195991327 1.865032467560517 0.4566510613728264
Ni 5.0148271729525336 1.5133001594423163 13.541164322262693 0.4798524391899542 1.1455249316039433 -0.3401384362953626
Ni 5.540758646963663 8.793866766027318 12.369892431641327 -0.2336831954539008 -0.31899754055168933 -0.5105043597478562
Ni -0.3313177309470593 4.693678723681686 7.083249377314961 1.5160049563056408 2.7249345774184746 -0.06627661174004715
Ni 6.010505678148452 6.7483655039845605 10.883288033990283 -0.7527318452273424 0.7255866522711181 -0.9878180916763568
Ni 6.774627142904716 1.7868255160704412 4.812860357309648 0.8333387575471325 1.620208167888132 0.8728956939041482
Ni 3.6097503052219757 2.995019277402076 2.5583429067361454 -1.5988957795636012 0.453724888864967 1.8979682990565894
P 8.141965131860692 8.400258924233954 4.44559240834454 0.998761478061738 -0.21079369245023696 -1.2990025639415306
P 8.247421588964686 0.5212315815545076 7.764812969027445 1.9703934468965352 -0.8305503961687181 1.2876840536049177
P 1.8640267227860594 3.6559760066486557 12.14156336491073 0.6095702501037824 -0.5694332728735806 -1.1576934486456774
P 9.09305754132342 3.7350124538280096 1.4875043175941751 0.6565345346684628 -0.07220197608554661 -0.5310245911883952
P 5.005492599629371 3.576268811685601 0.9716927507696236 -0.1792470279922074 1.3893650129861879 -1.0580279770325391
P 7.3946030457554945 1.0467298642886644 2.197101440288756 1.6961462139773433 0.35426536261504793 5.8290598199387675
P 7.505490696719173 4.545732257668566 5.008411284082611 0.048927321828322184 -1.3028939285761367 1.2135372950881744
P 7.730899215808241 8.274391239434303 12.512921943762267 -1.1125993845205162 -1.0352408039346945 -1.0089142502250237
