# total energy = -381171.48300391063 ev
CRYSTAL
PRIMVEC
9.24112406307995 0.00000000000000 0.00000000000000

0.00000000000000 9.24112406307995 0.00000000000000

0.00000000000000 0.00000000000000 13.52531917345433

PRIMCOORD
 96 1
Ni 8.884500023930107 5.251084032495853 6.65946186388398 0.19465436368621314 -1.7733212177974491 -0.45428256114064985
Ni 4.329919526145925 5.929872332020548 10.79965648861823 0.8146478660058486 -0.7280875643161009 0.7497920458727281
Ni 7.657297205797689 2.40147247656166 1.7185404569233291 1.3123933834261399 0.6666785650810002 0.6581098495753828
Ni 2.1241001322022233 8.402917315897346 1.0641015956845796 1.382436918407787 -0.4043638219333359 0.8018152330175545
Ni 6.392677075577603 0.36608344070835785 12.872100584488605 -0.48721427887166413 1.1063600884790237 0.6142995372586517
Ni 0.6156492421999775 7.501759843548357 13.314635846116026 0.6481866769243998 -1.1787566970738796 -1.7412263941454336
Ni 5.2479328091266515 4.058507706927646 3.652918460051152 -2.1852379123773784 0.3951502737548679 -0.35939677030434236
Ni 2.710763664080101 3.298092556903969 0.7944354248370976 1.12842658136076 -0.13176338058894727 2.345665493670238
Ni 8.447542704899902 1.1084174070247654 7.563209623360202 0.1400724146752749 0.9769562092611883 0.6613851778925448
Ni 4.0231234421749456 5.480772175726031 1.0019420975303461 -0.8014107984902843 1.2642294221264032 -0.6269496219224944
Ni 3.2160498558137447 0.9983648583332267 2.108285796273444 1.3334630596122454 1.353019127367302 0.02722515426454021
Ni 6.549619088712912 7.112542172392909 3.6611550740950487 0.34438127073211655 -0.8544099763951349 0.5078959755907317
Ni 4.525849842491379 8.199372313170011 1.8475447032264731 -0.023773191160197764 -0.10120221997263862 -0.12268841487087258
Ni 0.9763525003700689 8.70554565283164 8.212317280019208 -0.8337470487291447 -0.30717123734072266 0.8696226795798314
Ni 5.890634518455658 6.375008046011877 9.159535287966756 -0.06847824737705625 0.7482239300546598 -0.25838738306880016
Ni 8.841445626050026 3.633536126049503 10.097380947700099 -0.6660717847349368 -0.26377024464726834 -2.212280775427783
Ni 8.624833673633395 6.645883880023665 1.6592050463398516 -0.4405109612778542 -0.6955427976108601 0.5024817465536959
Ni 7.116515855820348 0.4438770728684983 5.82843897991685 -0.10256104799337822 -0.49478514924038663 -0.3097541675765504
Ni 6.441359318125845 2.720993588624692 6.2570968452582605 0.16683605592236428 -0.44415858533277053 -0.24289597230142038
Ni 8.231965758399253 5.0863425104936635 13.413599969820162 -0.6536523280246613 -0.25370437577083405 -0.38900893674382037
Ni 3.8717538269622995 3.7788620460027436 6.294805252759799 0.4422431134776125 1.3751254723480382 -1.0446217309289623
Ni 1.5881518902075564 9.188634664117128 11.830137026056983 0.5742039547893465 0.15521698362619718 0.6415951397498112
Ni 2.823181940579603 2.027465695921476 11.615260556774473 -0.8516771508450041 0.36756567926837985 -0.2738767369536509
Ni 0.1075592933689276 5.76577768871585 11.19032224394363 0.15500075385033305 -1.3527974982747992 0.25376119715069845
P 4.186414107669907 3.5173659531045596 10.690723964185771 1.4546748899375914 -0.07170369629288942 -1.4074558090496276
Ni 7.857450715925327 8.470950472624788 8.974495636549758 -0.8738318325651725 -0.00759735273128369 -0.48543558970468653
P 3.090490700630947 4.406870367774479 2.761478029850888 -0.14137622108836298 -0.06603749914604755 0.6370550857876125
Ni 8.659469407321856 0.7729876995656061 12.857493139386857 1.0439522156657632 -0.06724411785963903 -0.1366577325667711
P 8.673183235708644 8.212984489190049 3.56201444491774 -0.6605986774355074 -0.5421420412577953 0.9092732040919178
P 0.3471215778600777 0.6399423096279998 10.084505289282774 -0.2989539916372529 1.5697875493437354 -0.8461477363863428
P 2.90119551149689 6.803833175702209 12.989595010538553 -0.206285005946606 0.1394260393405276 -0.07175794656959254
Ni 6.4061875992308925 2.203795587732984 8.540711719586954 -0.34084034745839364 -0.9116157361821655 1.0835932270961532
Ni 6.440998914280101 3.9507007514288217 10.618985116634137 -0.2578613353620011 -0.21588344826831848 -1.0826774001501032
Ni 1.3909370575913729 9.426408791065931 3.243006215250576 -1.0017817529453006 -1.7555926901694348 2.213771243930381
Ni 5.798140105838846 4.347468421096402 7.791909890408071 0.9518894961005475 0.5920803208491351 0.09399773180439941
Ni 6.526192838739526 2.2093957090283967 4.013638352244893 0.8872347362346398 -0.3606481262129401 -0.8782119639107392
Ni 0.7520149680805572 1.78084781306556 1.8967093324605586 -0.5023043404355672 1.189454028886726 -0.7104968478175313
Ni 7.626311716187922 7.5388075106660315 13.08271689549193 -0.005026506680313924 -0.14844084124462825 -0.34293476809357715
Ni 1.5405601003207963 6.236677657115778 2.6670716286267804 0.5577416954682652 -0.6957117190885567 -2.136459714532411
Ni 2.1366310966850284 4.214738153495716 10.213117711917723 -1.0606960107830057 0.3803026672190741 -1.0743999906326593
Ni 0.3542705115797665 4.04146707381091 2.7463706399272225 0.2271024569125895 -0.3977506874921924 -1.0673276571669101
Ni 6.054932466493854 8.082675396142825 7.2525738522634065 -0.2611448912092793 -1.5744906112463593 0.5790126890318996
Ni 1.2280807249361552 6.416177254544987 8.804144752127907 -0.7386046617973409 -0.9977389503344946 -0.08440854545406754
Ni 5.681831316030155 1.4757613370808038 1.7437520921017868 -1.6642964164565983 -1.093076741106556 -0.1737754633546749
Ni 3.955848057635992 0.17556934728574514 13.278279415092241 0.23710970463694647 0.6959310341882144 0.4231866110667937
Ni 3.960597995500418 8.359909123638515 11.229694053810142 -0.229392795608663 -0.41952150351038076 0.4767378048203725
Ni 3.7406592383538375 5.014335670338784 8.690964082877791 -0.40345236586266 0.5186591276445067 -0.6915969255892348
Ni 5.527079449342061 9.249718495408679 4.145943528130086 -0.35713522796367525 -0.8170788440448443 -0.8007834493189305
Ni 7.6659838625925545 7.002951679913863 6.01307294597928 -0.3288790613314594 2.0359190394031708 -0.5970093827196363
Ni 7.042097082236255 2.622483204121224 12.972390809522595 1.1059960202713857 1.1275742606627934 -0.7101698034954156
Ni 1.4619088918302692 5.049128503139492 0.3609093352408633 -1.2999348459478128 2.0090790363921913 -0.019689250898811253
Ni 4.016673137448546 7.5090603317057445 5.45639778640461 1.4849833111131459 0.8542788501339094 -0.07583083108738553
Ni 9.041247973456171 8.885498065349092 1.5797711146253617 0.03472789039948858 1.0526178617605613 -1.0957907976036094
Ni 2.555448088812766 6.177515979668198 6.830042852299652 0.4577334958037278 -0.8882202400763605 0.27224511488749886
Ni 9.207144635989591 7.9738611581007675 10.802348428112213 -1.3689532820990553 -0.9051201011554927 0.45298749647831016
Ni 0.7529889825764919 3.316556323155182 11.922975208495888 0.03666778773467878 -0.47986786580892193 1.8650761763142587
P 0.617351457286801 7.158840204884689 6.498672770723455 -0.6079496837812239 0.8637004005581254 1.576982781540594
Ni 1.7347623264315266 7.02887303343471 4.741165265175756 0.4450906102287367 1.5048268282016344 -0.2011944787975761
P 4.7911810019532535 9.235930738027895 9.37920050783554 1.2362648185926772 -0.29970295398813546 -1.7673043221794078
Ni 6.77866959436985 8.46823358209533 1.7940117945594805 0.22577808167421115 0.6870969808363521 -0.7509300161319132
P 8.316272534930693 3.616892861275512 4.489932364869463 -0.2031171497415857 0.6985831270990807 0.2306248682435512
P 8.010003195041955 3.532013135040582 7.785471599143197 0.4763038026067475 -0.3102038535194593 0.7304640349680774
P 9.290749087078042 3.261553151620037 0.4374896077869976 -0.3281416689448026 -0.5296297677233975 0.1893352654661449
Ni 2.4963048936136856 8.929079207311414 6.588642508195205 1.2766244533566466 0.519627147984731 -0.2782653529396498
Ni 4.904467944132242 1.3455354141518288 11.123141118872026 1.9872334012720099 0.2624327567827674 -1.1538272808220515
Ni 7.244265157450361 4.802723166141323 2.6744294117545158 0.09295566369313023 0.13347033597772498 -0.0010976039395529484
Ni 1.3115373180366072 4.078366882940586 7.891483004200273 0.30652846155040114 0.3073710120563545 0.26383709332946176
Ni 4.274038447807045 1.9065733084848553 4.389534018681748 -0.8688534055139746 0.5366434800370693 0.7363446621185706
Ni 8.96786420578806 5.906455323171412 4.008363518523075 -1.546583857533762 0.8771853224184377 1.4778464429580485
Ni 0.4224542986324814 0.02483552142148884 5.6799442784583345 -0.9285793606196975 -0.8620086146779994 0.03507498932626218
Ni 2.0745307417259937 1.347642390480796 0.11967163492321427 -1.9706330737111672 -0.596086870905367 -0.9334485157865408
Ni 0.4839234848052506 2.592246245575694 5.952019610397754 0.2617478149006008 0.5458724548345051 1.1807341325152245
Ni 2.3040895092166744 6.901068285059198 10.821297353386544 -2.359518854613562 -0.48690086139630345 1.3020099833092866
Ni 4.766072867366394 0.6355074941004937 7.062178045231192 -0.2528242871587259 1.177533880410372 0.11383636379688136
Ni 8.139850231876686 5.828571127993623 8.925196086901625 0.09168476740050661 -0.35026009811039677 0.45388455437128283
Ni 1.5623229479292078 1.8013353855274914 7.98073655454266 -0.49575291247029457 -1.0966942832544855 0.19728151689641507
Ni 3.0945567953008837 4.296337280621948 12.269845427776369 0.43458431138077414 1.6903704878358308 1.7363253572993902
Ni 1.5137331166234635 4.480401993430585 4.973814264615589 0.5207589475963289 0.965288543115273 0.044067422632859586
Ni 7.447385068462203 1.5733568502835362 10.637177193832406 1.0615431892746492 -0.8468226509661803 0.5197829568363048
Ni 5.707290613338508 3.95917486236594 1.149221591150006 0.9848037303300652 -0.48706104112325155 1.437660357657466
Ni 2.097799892587132 2.5742630177854733 3.7031513632485207 0.12939333769487393 0.04666912192176478 0.1567403622492591
Ni 3.3494454843604204 7.432072525580192 8.849156420124107 1.459642518355512 0.9755050786369586 -0.8101132113602887
Ni 6.63399979423835 4.956107346440438 5.34071554482006 0.05865611908031188 0.3398715557872211 0.014319501946465661
Ni 5.6839752568561215 4.873889063989467 12.566590865013206 0.17054667200473209 0.9681980034525841 0.2065446873658959
Ni 3.724625887780337 6.527153915661512 3.3184368919400273 0.9759948737891837 -0.8256516733155199 0.03336186328989738
Ni 6.238895526935743 8.23730712821567 10.872814772854642 1.250498702803872 0.1513940103356812 -0.5674941468693387
Ni 2.763512001298281 0.48443359486384274 9.836883820333323 -1.2049315556970344 0.7340185850885552 -1.5716798812704416
Ni 5.327572817911913 7.574321151158229 13.079795776116551 -1.3201791980191455 -2.2257075903566506 0.6605853076990688
P 4.860905284418419 5.964729852691006 6.695249965766397 0.49078554116269024 0.12399813482123159 0.548275664959359
Ni 8.770076423468387 1.5185754657303883 4.194038959288463 -0.2260984411281074 -0.473741698306526 -2.2135796967448655
P 7.1809911797115955 6.254365168930002 11.301080814527857 -0.3013690288366487 -0.7868339291173739 -0.7509649831349067
Ni 3.7167247265467096 2.6466949496558474 8.326159613765615 0.6916681451468023 -0.5975274600066354 1.3773949851085052
P 3.284896231475174 8.71333592057427 3.6362687264901856 1.6992603341262928 -0.9250921734020455 0.9845653890670141
P 6.213223683769642 6.297798452904328 1.1938405113655872 0.46495701013536056 -0.14625874599164487 0.4067536623217511
P 2.9963606090219104 1.8794690910600267 6.295265460747442 -0.6169837689590342 -0.7793540758005609 -0.3378712375277407
Ni 4.791144037456254 2.5276323048206986 13.199575532193489 -1.5628643398613407 -0.6584374081181305 -0.3930607382156908
