# total energy = -340898.0033212135 ev
CRYSTAL
PRIMVEC
8.99232978089511 0.00000000000000 0.00000000000000
0.00000000000000 8.99232978089511 0.00000000000000
0.00000000000000 0.00000000000000 13.16118359296709
PRIMCOORD
 96 1
Ni 6.161787307414335 2.270041769308987 11.304970232791916 0.3801908242315581 -0.579235603675983 0.31124489318946397
Ni 4.615349340699705 0.4097346171175441 6.0830594582834445 0.2147578193043076 0.07021194223871134 -0.4044283566226841
Ni 2.7993842669604985 1.5638291329304082 4.78893368204557 -0.11674916656830216 -0.3409215943182903 0.09689125130211054
Ni 3.398129567535164 4.2397127397008845 4.65282037980061 0.03462170383892747 -0.013173818377796666 0.270795784035482
Ni 5.052196731993668 4.3834911040359845 2.6345009041205216 -0.36913405219676426 0.760255150187581 0.2912741064944919
Ni 7.129451938479451 6.175959219490895 2.4951629523383434 0.6858132290279221 -1.3805684977404802 0.32514556243095616
Ni 4.91965878015584 4.516766426933635 11.52767068058586 1.1419145885448656 0.20505164776013718 -1.0498354139194177
Ni 5.537737590225811 7.771621200613575 12.405271731324838 -0.14286437559811524 0.32928683829283933 -0.27866155993680397
Ni 1.7475154577958214 6.342425232410489 0.3880289309688128 0.48278735344856205 0.855373368749669 0.34528244239014727
Ni 2.7430653041841695 1.5180401885815225 0.2757785748390596 -0.6710970058636699 0.05056151499763551 1.4968561512913319
Ni 0.3643017690365722 -0.0373856119659253 4.9501976320614265 0.6242746461934927 1.0270466981596762 -0.6011282899840164
Ni 8.4694080237842 2.2501597276838132 1.2913552393655463 0.8219819377734165 0.10971745653250135 0.8347747186627108
Ni 6.964910284179391 0.7280199358562859 4.816322520752922 -0.7132327586914554 0.07919074869855394 0.16672498426579674
Ni 0.8452880121248213 7.385949159337191 2.5953725786010193 -0.25231623717405577 -0.03080875785074049 -0.04393218260657595
Ni 7.571865582042063 3.9568859766095357 3.8600835441830323 0.36658274652982026 -0.4334604821889761 -0.44114576664837574
Ni 7.491411205551592 3.7429674382914606 12.688868237864002 0.5187468022623065 0.11184992949447188 -0.8406080375150362
Ni 7.805774069945286 8.637025054943514 7.2660526250102935 0.2561240409559202 0.4153146645178848 -0.854430030999793
Ni 6.841436600979362 0.7846293508915451 0.27673985491582626 -0.9252731790646002 -0.5286859157528894 -0.6237002617472613
Ni 1.869181682666289 6.558690768857994 9.045379349406394 0.11134239373043406 -0.9440268055230193 -0.15360927281944511
Ni 0.012099180012063136 4.636598216484548 1.455982320800586 0.2346159916808153 0.39069660885888846 0.2980811021139963
Ni 6.316392437066807 2.1082787449782523 7.056197720618232 1.049105734842245 -1.1168723008642572 0.5141108461521919
Ni 3.3232504356433394 4.1951557445617 0.24355186259288208 -0.3788757049645604 -0.033774268236967636 1.361318648371933
Ni 5.798668029772476 5.465682049953302 4.921032808179506 0.26715844439321085 0.4581086197549595 -0.26535070176051073
Ni 5.161453541467148 2.9357079897274083 9.175161152099891 0.30305670095171683 0.22127299471500603 0.39580847616415704
P 0.0377893675828273 5.459063695074908 12.516878236626749 0.40577895711330764 0.22911563068787635 -0.6553628829578649
P 3.961490049568418 6.148020050187676 12.614257976639111 -0.6232366918472815 -0.4109941827656599 -0.34186133252374024
P 2.332925132983724 8.45494835714771 1.340203374379689 0.6717114995192173 -0.6308520423006942 0.09537018667189381
P 6.290017933183209 7.792627283488477 5.803068876073407 0.02316358260065688 -0.16693632894565444 -0.046049228949578754
P 4.618280840278994 1.0366627791383682 12.449966309112991 1.365325198428165 -0.1704929359486612 0.5895580686479137
P 3.9799153337339455 6.15542073777588 8.233741535366404 0.1623322545147398 0.756434233779594 -1.7405846467963764
P 4.791536062346939 1.0625427048720866 3.733275505019813 -0.5672740604387326 -1.2718278032989516 1.332724381674008
P 0.20791435957853246 5.491705852966985 3.51593088897257 0.36056405113956613 0.5966751393086692 0.2649624651831566
Ni 1.5189843832312933 0.8682364382792509 2.7598611781540923 -0.46576125120421075 1.2850977809349804 -0.3294259349738649
Ni 2.018202575390117 6.449856598894411 4.649464442245424 -0.3417520606393856 -0.2477990660299926 0.06581509872259633
Ni 6.029869826346355 5.747159963544978 9.081256048398686 -0.4481060000162928 0.009468087391435306 0.45125123051349386
Ni 8.499424421316915 2.3922835032993155 10.092338346392264 0.5891860300204755 0.3166023008466354 0.16771871563763374
Ni 2.472611987169817 5.179645025052733 6.874836812290255 0.31277649934264196 0.25036734097780106 0.6301151641346696
Ni 0.6280378155425549 8.918035367375305 8.989706935156907 0.20814956995917056 -0.35350045942456537 0.7287447382841256
Ni 1.4501211201080086 0.9933647101988782 11.325080679599036 -0.42458811940001073 0.5776227506629084 -0.46833081170359986
Ni 4.062464923113908 6.78520756150301 1.5452545760869167 0.1309686526017938 0.23899946546049158 -0.11001313339604925
Ni 5.605368904139395 7.83628504562788 7.957949472032348 -0.8999519266909921 0.6221727693591413 0.4576504491716183
Ni 5.208456450365739 2.777703759335761 5.101354203159737 -0.2685499254240988 0.025678121492394484 -0.8662717608297275
Ni 0.8455155180737659 7.339971376058351 6.692698966650465 -0.46912811079391464 -0.14642766746934135 0.6674282987628312
Ni 5.015391125312602 4.436563835683102 7.218909435763737 0.495733629196585 0.47768448500435795 -0.7329343508854409
Ni 8.194386603130956 6.911585767292334 9.103262078369344 -0.1379880213424204 0.779726114427999 0.10862910856432904
Ni 4.50982434817532 0.38320004975998495 10.329844665527613 0.09888591313463614 -1.1052455152586063 0.522786519549319
Ni 8.090615114956146 7.1045971383654845 4.582750345991618 -0.36461122462574624 -0.4170460453866947 -0.03949574410177714
Ni 7.335241410479499 6.208790216312925 6.837247973666378 0.16558547134471482 -1.4130525864111148 0.326432913783812
Ni 2.2582168553618573 5.161597418747113 2.550150151041996 0.6344515867264944 -0.15856481705250758 -0.535615038772555
Ni 2.222921960120425 5.236854228498846 11.43737150121378 0.32958174382543887 -0.3708636332933613 -0.47970614342007706
Ni 1.1542015245398378 3.355460961695521 3.763967226535363 -0.4111250519165694 -0.5095414816139547 -0.1158528800062779
Ni 3.69711554763259 2.456830448023648 2.5478732930865484 -0.8287076865330243 0.4737491545056938 -0.3223078358718449
Ni 1.173975658205038 3.3722676264614417 8.18942823237016 -0.6028293318355231 -0.010130146455466425 0.07228245161449487
Ni 3.4633689216693284 2.655192255445499 7.179781110244235 0.650702501367718 0.0835755080298109 -0.15908572255298406
Ni 4.082751619588984 6.9635164730297285 5.972532032581273 0.5731120072767484 -0.33469386824102354 0.09733630925932914
Ni 0.7671383698127907 7.132455376698722 11.128057830113859 -0.17296016654223118 0.47276467910523745 0.7185621413241688
P 0.3681828586636301 5.505293263593687 7.813386976521437 -0.48875411255495826 -0.09470144273964336 0.5774515151923668
P 8.496987499887506 1.5355212780972791 8.021109799471017 -0.6755961792856042 1.0222220230775234 -0.18754783454841895
P 1.766920905931111 3.2759058182048317 10.35300800836899 -0.2011137461583117 -0.42930455103907356 -0.1427234791448768
P 4.10509755963356 6.148056019507668 3.6949627838311128 -0.48133545149338397 -0.6526267149736243 0.16569808566317915
P 6.882414648779415 4.1113202519920495 10.178399440636372 -0.37827098150102595 -0.5436715905284444 1.4263953262666078
P 6.285144090324392 7.7232694422153125 10.260735012562389 0.35337396114903014 0.5612913604927366 -0.7437178146541902
P 2.409683661845092 8.41486954234744 5.614850416889094 0.03280650500705962 1.0863615338699095 0.328992189870556
P 6.898259134235569 3.9608875634585643 1.6697722687996923 -0.044297793476110806 -0.3543113853616349 -0.08733883172698508
Ni 5.262158645112704 2.7960571048613065 0.5494412544296328 -0.22323911730244134 -0.02335230157269527 -0.5671179944768426
Ni 1.3794324139951673 1.1225215459575277 6.9430769069446905 0.33847673232222353 0.14537325806289803 -0.28702330163793793
Ni 6.661527054713032 0.8741138251658244 9.285820765053032 0.4899923558374335 -0.7352717407693661 -0.40795153928459416
Ni 2.6792197611996666 1.507483193164085 9.21871190551232 -0.3443349908752134 0.27005144967028977 0.0964456791242597
Ni 6.268274479248487 1.9966389680553511 2.6269194706993617 1.6409947656161803 0.3441773822514266 -0.20020948917648745
Ni 4.020039110184206 6.7159935975098115 10.380462491085325 0.7634271201576595 0.644416154138374 0.6117996536549334
Ni 8.287034579098469 7.301843896867606 0.36239719354303446 -0.9697717756976073 -1.1250684635218042 -0.24016726051634768
Ni 7.637167882486212 3.9414011843532943 8.152168513024204 0.549151639806409 -0.12216648092913154 -0.7093023132887978
Ni 3.049910580699688 8.348272346383604 12.340426241244579 0.19035676475212376 -0.878597629384932 0.27131103310900373
Ni 0.11191853915283376 4.8926907824923855 10.150510628381141 0.008765662007771999 -0.7052795652826499 -0.06124290597088163
Ni 8.627960786305714 2.4163469783734746 5.687105586887555 0.011399242975877142 0.230726426818422 0.8294319662935586
Ni 3.511999442297524 2.6699846382919086 11.514877292697966 -0.09734890766481943 0.038055926331457046 -1.2500235629396665
Ni 0.974768571763392 3.3723665420914175 12.511679770655011 0.23743443496621688 -0.415799060353471 0.10285569641566157
Ni 2.973241975138298 8.372920322907621 7.848987610982797 0.8644046257140017 0.05609864276578081 0.031723042134893756
Ni 5.790053377634567 7.9090959416202065 3.616943530304051 -0.521674774542379 0.05932460590224622 -0.20063654941157705
Ni 3.3104723347164415 8.1867970766128 3.554033189639321 -0.029694441740639184 0.9825905247288304 -0.19017755886178214
Ni 3.453531312651716 4.448550611570193 9.38044975131906 -0.7661180367262612 -0.45863929544744886 0.10095179452472937
Ni 7.211138264179623 6.0437719685229805 11.392781234453603 -0.05865791885252479 -0.3470266787747636 0.03617799258245382
Ni 0.5212556952844744 9.166601353174968 0.30597391973873017 0.5810644293546058 0.49021449915056864 0.002477000785582831
Ni 4.679077983394237 0.25254059565870024 1.5397135023422617 -0.31313671089553813 0.018500629907348784 -0.1998621331393977
Ni 5.991283738325722 5.407771444767359 0.3398444299085087 -0.7305527380271417 1.5284614369014384 0.5592401343906627
Ni 8.10864473660177 8.781405905388468 11.159104748664324 -0.8977677745554797 0.2140556510309604 0.04325932490926744
Ni 0.40103993324265463 4.872476024657292 5.672272738556156 -1.3637763658838062 0.050290777834752096 -0.0645118065301405
Ni 7.966862669526185 8.938969511610223 2.2703960671109016 -0.1599102753368085 -0.14749030440590083 1.0384479980180825
P 8.559124500172423 1.697733918927905 3.578459954845392 -0.4858317967018407 -0.7484722986200399 0.0464210104667007
P 1.7753736961290594 3.091868792469503 1.6297887726973974 0.14764199949241671 0.018745913148935457 -0.8198201542354074
P 4.67008565339642 1.0988177640832812 8.21427673785313 -0.046971740763848135 -1.0385043051773148 -0.45657958470494264
P 8.406407759819492 1.7034620331365145 12.20133917546934 -0.09849767655728198 -0.42577545483989254 0.21090039323143034
P 6.291114997442943 7.683334504695006 1.308045003841495 0.26020129634908734 0.6063897954932718 -0.0007723593896502828
P 1.8197418523382896 3.2342803226449357 5.982416401714874 -0.006230040070111851 -0.7678895268043873 -0.9467385480272275
P 6.933329221227057 3.892842602365081 5.996222325960523 -0.2875598908676983 1.0888801865267053 0.01876776752580639
P 2.472701910469795 8.298661661785646 10.193086613221807 -0.8740208086475271 1.3975462632453994 -0.24123349699733296
