# total energy = -340896.5404988506 ev
CRYSTAL
PRIMVEC
9.03300966771163 0.00000000000000 0.00000000000000

0.00000000000000 9.03300966771163 0.00000000000000

0.00000000000000 0.00000000000000 13.22072271931286

PRIMCOORD
 96 1
Ni 6.263940394333847 2.0450010725416803 11.313805478346598 0.7594905041074145 -0.7736338854873321 0.584483996559116
Ni 4.588190681572366 0.3224901798258432 5.9743384985684695 0.2964497371581604 -0.5993583425677872 0.08395191753262315
Ni 2.835795883734927 1.4922079940038646 4.868319660340789 -0.9260416817995084 1.3481134625355684 0.2446715761446044
Ni 3.576267799352668 4.319783839150798 4.856089868863553 -0.8388136646187748 0.5517276280637013 -0.30812357395166284
Ni 5.066100111874508 4.644656023565271 2.6687746359372886 -0.36766800917419906 -0.26945598217813593 0.03263938330157604
Ni 7.207953111603509 5.994675416015731 2.4491252685557323 0.008130342416618254 0.4491588667608393 0.8620330401580316
Ni 5.1145893065342305 4.44473745869773 11.636496190981948 0.05201007451870397 0.3606393844621918 -0.6656706926417761
Ni 5.698997918102789 7.711986005198482 12.395008833047976 -0.9996924745164396 1.7548023330576554 -0.44642167033533436
Ni 1.8721905689956413 6.472566780298999 0.28306109363178844 -0.4667945775647315 0.40708636307082147 0.41251190496176693
Ni 2.5629718996984927 1.5894483405969915 0.2167497713521652 0.3853821386245105 -0.9011976261726351 1.5912680878150143
Ni 0.7900351350995647 8.972750231398436 4.4729674197913525 -1.0362602463381443 0.2097343979477872 0.39316409656277446
Ni 8.556220100223122 2.4862545505470366 1.3164915713218281 0.5586742345848636 0.27432873688940496 0.4046504999358192
Ni 6.947730175732185 0.9085671882374813 4.894205555485417 -0.3844004914375315 -0.8180244957875653 -0.35593632255956764
Ni 0.6798793916129076 7.386490543132831 2.2393787894203485 0.02299800355707007 -0.05386152590514595 0.8434336798892895
Ni 7.666938387134393 3.8103311398934117 3.703481477860826 0.5072177185767844 0.011317481895348251 -0.05345837692945631
Ni 7.593951670880565 3.869921903151643 12.344254159621366 -0.43768120513854303 -0.2942473301902029 0.6626167363068007
Ni 8.115887989180376 8.665962131877547 7.021261582455086 -0.4804959863112241 0.33075339553603683 -0.32401864791536455
Ni 7.039053901143845 0.6298871041828098 0.5075196352377924 -1.7781268667162085 -0.5654817444250003 0.3529240180958051
Ni 1.8741326660246727 6.481545591679729 9.388273182021488 -0.3377028302706765 0.10894226892937367 -0.2410319225094881
Ni 0.08631763158147722 5.000701123548057 1.3378708980581602 0.18931855329559652 -1.0599820154351163 0.07206596472831459
Ni 6.203717320415001 1.99797522541081 6.947105994780065 0.42238236999794354 0.12693536307268463 0.35094709687509235
Ni 3.385382243922481 4.288484461450363 0.35018809666360495 0.09640711257684041 -0.07135042671852873 1.0528104373873417
Ni 6.103550278764171 5.675972777046971 4.778524320125929 -0.6967033935778646 0.49879864127515383 -0.050960035987634815
Ni 5.08883619662833 2.7600631326121423 9.281158852812387 -0.5234336662150147 0.2871480001412603 -0.6097157745427113
P 0.09702265106568665 5.572111234536262 12.451130920682264 0.660667840110546 0.5222360463624877 -0.09611606369898285
P 3.923297955916974 6.256235237283783 12.53948459259092 0.7991351150822301 -0.8408780033469713 -0.08393623380333931
P 2.4169713681625233 8.457001524563214 1.3698522679711156 -0.34113242477751576 0.5435502344592317 -0.23827672836185415
P 6.315265953956898 7.8821227379510646 5.964542199833658 0.7046714993850057 -0.5128286370056586 -1.3058147017673574
P 4.749312470906467 0.8894244346378385 12.362604718293353 -0.37988100630062316 -0.20507710168143392 1.2182951214881341
P 4.010457463978012 6.090262721881822 8.210359718380953 -0.10029307789480792 0.14174080351663332 -0.5732192222785741
P 4.817873012535992 1.227107233036369 3.9012501864822777 0.46447647095451616 -1.0492808269675282 -0.403666281645679
P 0.06638719955889708 5.599698045357945 3.569806487702128 0.5492552552638089 0.0688662268440943 -0.27808486149772754
Ni 1.5420160080414402 1.1306798572926042 2.49613846947339 0.07436273118229128 0.3270980581716367 -0.09085584374130805
Ni 1.794633149966511 6.700858027809272 4.562867542915685 -0.013813765954640725 -0.8053906090736387 0.7799845102957083
Ni 6.058665254869954 5.603112522925264 9.075695826752197 -0.20022311602324225 -0.22835329860055512 0.9029961128339545
Ni 8.817843152557236 2.2724793492025923 10.181503292559043 -1.2645731786190673 0.6803316370880605 -0.7970635772651822
Ni 2.447900392476027 5.124046867415141 6.871403955889367 -0.29575142553955514 0.43602747158520394 1.027217676519902
Ni 0.5825794271574941 0.0170949703601944 8.979011913540411 0.09372828019309665 -0.10127292530957396 0.8681895466777305
Ni 1.268577779363266 1.0552000304340654 11.462987435806403 0.5246012041605546 -0.4684822496797996 -0.033188570936826714
Ni 3.8594616782231856 6.794250312382086 1.5733587441871746 1.3024049047548603 0.8594696503062295 0.542787131040962
Ni 5.47550319860375 7.8902072813974975 7.98740517284627 0.49920924645001125 0.21951718836616385 0.3384980724784622
Ni 5.476541994689046 3.0826860976767145 4.846082197707908 -0.10490949362089674 -0.5431781958317936 -0.5738920799758825
Ni 1.011046680304274 7.190700063578161 7.039902100730012 -0.6881267076524471 -0.05947707231971047 -0.009040512935713462
Ni 5.1941791526867656 4.3765924355023245 7.106045409034101 -0.29008394284113265 0.6979015276510239 -0.17427220048543537
Ni 8.324107889720846 7.039279726379778 9.287743013391275 -0.10125132804301917 -0.026221138480058064 -0.19141323104109614
Ni 4.84024777691232 0.35179868224628535 10.152774709344481 -0.5844282036205161 -0.7315318141109596 0.8789231310451509
Ni 8.265664318661159 7.125879187855701 4.942818502374431 -0.44743802741499067 0.5152562726105449 -0.20420498348912572
Ni 7.225910734364971 6.100677781763092 7.0132628525983085 0.6701392699360911 -0.3850548371920788 -0.004117107492167103
Ni 2.2657226581434506 5.304589627039556 2.663817320358068 -0.027250865296153066 -0.8915351633822065 -0.658264372875376
Ni 2.329441506714553 5.2052626552664 11.560397602976952 -0.2257099474404371 -0.03956696365934476 -1.306371345601776
Ni 1.217920662438579 3.3702609861243493 3.760925094775798 -0.6764816672143511 -0.12299129082327205 0.20438213249693835
Ni 3.6103222449314964 2.672560370192484 2.8270663834146665 -0.07573724293231472 0.7907206657662897 -0.8494618883612404
Ni 1.3713372947226168 3.1769365181460767 8.22311703760933 -1.813725332646109 0.8981788939509693 0.14331663264418543
Ni 3.4821890060626153 2.768003147907577 7.113462413083113 1.3871759757546689 -0.8872321651314784 0.41325649643727536
Ni 4.056191590759341 6.88829297363439 6.049114653991838 0.3954377230882996 -0.3913609819157647 -0.41310403001981105
Ni 0.7158163163584808 7.499439293137519 11.447744232380867 -0.011362733310986882 -0.12728271910977434 -0.04749984535317626
P 0.1874521085430479 5.415307223713216 8.092324480762091 0.5869242305694924 -0.041830048661908606 -0.1107448693557512
P 8.52842553018438 1.6550641211499384 7.867374543442695 0.27563614284691884 -0.37012212714164644 0.4779323393491059
P 1.826131253874568 3.2642495873675506 10.50077049461764 -0.2954781172735105 -0.6532201255832492 -0.5671557896933136
P 3.9300365809572404 6.257608254718261 3.844837235944108 0.5563147332137515 -0.07680913584025481 -0.4367149845705317
P 6.7551464145277755 3.784984515412193 10.18336680240597 0.7928050590991442 1.3393241463787127 0.778790489987607
P 6.389363730371522 7.600843857081267 10.041945103353795 0.32271304173006354 0.928266457364969 0.6023197391889562
P 2.377506149930719 8.386047235432791 5.8300876609605154 0.5438621092726956 0.8247235050742957 0.3004362326097342
P 6.742843455674099 3.9363687205728266 1.4057331880581774 0.7679334926684452 0.004603045989650137 0.13412930971796255
Ni 5.198731789443192 2.6012628267034406 0.49552741190875993 -0.3619264787047315 0.1400816706466555 -0.28074903859345196
Ni 1.5362258489920955 1.0056449406607357 6.9650997495792755 -0.4400908430213001 0.39925786816533815 -0.1541425196150958
Ni 6.872548438185079 0.7781603408932177 9.000945867056195 0.5837828567270332 -0.3687866961596745 0.4197565023393222
Ni 2.7314465587146013 1.4894077610782845 9.300804745037691 -0.05384352818301695 0.1748141890318344 0.1425296179665158
Ni 6.46112195734187 1.9702167874098182 2.5496960857284123 -0.27469023399388176 -0.13694543901051898 0.3538545003298745
Ni 4.285620997458721 7.0070047836601095 10.292755643391397 -0.9781304320749477 -0.781165675088003 0.2834805785920021
Ni 8.069069901266564 7.28271029770706 0.3329205958231571 0.062002152734409344 -0.45972224409898244 -0.08036831394642288
Ni 7.597330016410135 3.691194778424136 8.151487982673936 0.8085916325094397 0.306034295522802 -0.16195970166666948
Ni 3.1187639373695104 8.2942086284832 12.265445668785162 0.2832476366455896 0.5653745294231747 0.8138392540616242
Ni 0.1283102858538533 4.815271505818034 10.348348396672655 -0.3799074886631844 -0.3065289757710334 -0.6241044391642154
Ni 8.66865396868988 2.409871422744762 5.770409277510742 0.3996602458100795 0.4129726466482694 0.027998027874822747
Ni 3.543216017821386 2.6281089307512597 11.677494310915273 0.4585279666805651 0.4139668922407387 -1.412547364639922
Ni 0.9330647098315881 3.367334291066646 12.53050849111302 0.2586462931571416 -0.008952581207597485 0.5709304262443973
Ni 3.059290603233965 8.200436957514018 8.104963467566838 0.004008606938760838 0.5258242779343784 -0.3103447499726978
Ni 5.584323863295567 8.008485506970224 3.723788586376944 -0.1720055159384457 -0.23575679015347786 0.20456828036581542
Ni 3.1814620558741917 8.507929631771022 3.7164375232968245 0.23845979090693775 -0.8602510085569443 -0.8261507244391255
Ni 3.246436492757087 4.442144984989209 9.327391601714659 0.9755390171986875 -0.7370298611110533 -0.008064522175689336
Ni 7.2338055846132185 6.109430767907889 11.557052679582299 -0.20401009386950025 -0.08255940806047073 -1.4538377387482768
Ni 0.4470237644339383 0.11376081755310553 0.445536027779606 0.4973945618387757 0.14503130134244702 -0.2042011268343838
Ni 4.407467261759203 0.48006831955767054 1.7753449649149269 0.5916941411543101 -0.5516816053171144 -0.6876407691549642
Ni 5.8322619063320875 5.719087331091466 0.4280752205371987 -0.049396033934624606 -0.9052108610970862 0.11197642777000716
Ni 7.695338168805438 -0.1731790503310832 11.402093209286361 0.37653163021241604 -0.08761162577239749 -0.5114764938531385
Ni 0.3108845693007295 4.960251307287582 5.67514083687779 -0.6795816462959136 -0.6448763816042442 0.5331920311533591
Ni 7.745317810022323 8.652530046844202 2.867957913836629 0.34463735260698064 0.08937900208546543 -0.7319395910723394
P 8.642060788906306 1.574146422610112 3.5062150045640923 -0.8015673786728066 0.4991627094827919 0.20454565465799612
P 1.7916703228710584 3.214549969443223 1.5751834120935204 0.09495443929071389 0.40963021253859777 -0.5510979648995025
P 4.524444733972951 0.986034277172238 8.074238589266619 0.5774525436336313 0.4678839539741684 -0.20360694489381062
P 8.30285321851475 1.700418861534898 12.394625833447831 0.7857260407651758 0.19144536983061222 -0.3222813535092837
P 6.1975026099221004 7.688509213670797 1.419139077364156 -0.319096785133715 0.6099605435636657 0.9002332053768368
P 1.8277481625638545 3.230700990317214 5.938722245657923 -0.6395236019327631 -0.3217092830558975 -0.927740666768486
P 7.045991252391734 4.040438022300593 5.931331437336278 0.5358487520499159 0.3020249172530927 0.32552120060282
P 2.407369279130615 8.577014087947912 10.261580921221197 -0.5813842745878697 -0.7157838072480833 -0.49398116528185254
