# total energy = -381165.703974017 ev
CRYSTAL
PRIMVEC
9.28482273919447 0.00000000000000 0.00000000000000
0.00000000000000 9.28482273919447 0.00000000000000
0.00000000000000 0.00000000000000 13.58927660307467
PRIMCOORD
 96 1
Ni 4.896332652389383 6.127323723534881 8.281481498252681 0.23237707504796756 0.17431642345980947 -1.4471700969201142
Ni 3.304329107146695 4.296161716592812 11.799813697105662 0.7089025067472179 -1.993537746223483 -0.7083728594959929
Ni 6.167740556510167 8.852029207399205 4.858043900764415 -0.46047480599429086 0.4572313593563287 -1.1286494960048434
Ni 4.069788455676101 1.1149679273689839 3.7461966022865387 -0.9245183031764463 -0.4802314197959278 2.8118969996426477
Ni 8.203010819665355 4.062750560110913 8.98203622256191 -0.8560050887963967 0.9230049518557137 -3.4812734232707854
Ni 4.065638139953622 7.1431761691645645 12.708664132641072 1.3460236698860755 1.6265911885963404 -3.33925982570874
Ni 2.803561482591432 8.820386531823791 5.9628254492091655 1.047434774897725 -0.05501466567298267 -0.05447010602342232
Ni 8.560513630802594 3.9422335621740396 11.010724474943796 -1.061479168805933 0.653947490667577 2.6759409211285914
Ni 4.656403550410435 8.42328395210406 3.060318397132844 0.2894015720621274 -0.38517773592318827 -0.6018145174177636
Ni 6.315852047349074 5.448101807735651 1.6171644861293692 0.10924128822703122 -0.7589456873475381 1.4188452818334918
Ni 6.593821067706092 3.549355576757949 6.6950154212356905 -0.6458004360804104 -1.9462014230313642 0.9981932642630937
Ni 8.31538502814224 0.059325374292577115 1.9334278290049431 -0.877089677380838 -0.48072481449257853 -2.262188201781188
Ni 9.258156634730234 2.2036226673609955 4.403862873832284 -1.061288907171998 0.30972588544177626 -0.8960651900420762
Ni 8.650316435428591 6.419294256441114 7.715692260711907 -0.19742806977660837 -0.19993515246917826 1.5630612863634952
Ni 8.44122222945491 6.644284078783666 11.787324682165378 -0.854353926346219 0.6223704871922442 -1.5276759648856657
Ni 3.2766139115502724 2.3672955209535385 9.72666042907511 1.0550786645962282 0.5554040484740241 1.555466761845689
Ni 8.236612592818942 4.9511038211744065 6.1271333846706515 3.034716512909167 -2.8781383872693853 -0.30576741501466054
Ni 0.10228996260175176 3.066637647425281 13.064513316865169 0.6368961916122451 0.026460765294689916 0.8374378673171706
Ni 4.140260259554442 6.96884433917514 1.200095823793038 -0.05854761852690562 -0.015275438101831755 2.1898332450575446
Ni 7.756791528151628 5.911525875611244 4.281396991622149 -1.065377732529391 1.4141319355182225 -1.2051369868396211
Ni 6.8616882010249505 6.276800083302656 9.435116069528299 0.3982906191560624 -0.6189648039448049 0.9775329077002649
Ni 9.339695947201855 2.1072647779473694 9.398316603455648 -0.6310878124605841 -1.1486462508417445 -0.3085228662726106
Ni 5.8593637419895686 3.6841433471007523 9.9559927629689 0.36721935167255465 -0.017896677774762726 1.250512072540311
Ni 2.6905930454652425 8.692961625838764 13.52046031706445 -0.8622220162403861 0.6063797681909427 1.1637764216149635
P 8.003145727401169 2.7986033872988054 1.9656619477828663 0.6517548538916323 -0.5720390859275438 -1.4619387705888565
Ni 4.856844301678633 7.252672082621387 5.436960949043474 -1.2932425215293017 -0.9231080530924812 1.2962455700216837
P 6.679018600299987 6.093647671800133 6.613750939514373 -1.876425025668175 2.4406477008750938 1.1890202837834167
Ni 3.0909731675787895 4.893045825172922 9.269069086785336 -0.20909522170189151 -0.6838471064404867 0.028435629632873605
P 8.673203523249423 0.38000643578281684 8.050654307912987 1.1435883767028625 -0.2704566555285084 -0.22870245440985773
P 1.050911935938592 8.527051129988688 1.5517594099686052 0.5347195235414791 0.4373801289583564 0.03288389521221433
P 5.147663516576841 2.9521000752720243 8.144990891436716 -1.2539347250686146 0.7440032071050929 -1.0897697882205104
Ni 5.7764224212984985 3.181388770499381 1.2875161429282334 -0.25587875771433355 2.910539943528542 -0.1925072354362233
Ni -0.017633735168082393 7.343069115896687 3.3841785818968573 1.4549196589585458 0.30102578656461704 -0.7121292412146316
Ni 8.240391515635606 9.42390928859534 4.070300977886125 -0.04872266201668383 -0.01081637388921363 0.7358024164618554
Ni 6.394401646928884 6.869468882401769 13.417915950322215 0.37019617491269147 -0.09111012584395922 0.49259045558191294
Ni 0.9664850436242632 6.256410612773429 5.594827074553603 -0.7270267271517544 -0.09979762631562812 -1.2311848329666089
Ni 4.8881712932841035 6.150210811355713 3.2625269786327205 -0.16469561254059378 -1.4546689764003207 0.8217065726248429
Ni 1.4606140199880886 3.5228009839921977 10.485920301524205 0.2618858831403619 0.11968356660627774 0.6709098295535284
Ni 2.7499880559276604 1.73851804658659 12.52232795545345 1.9767019056130664 -0.752263390231356 -0.40838965526327736
Ni 3.239307494161185 4.72558476394107 4.465857634635404 -1.8206413430396515 1.6033381316056712 0.6371468741704704
Ni 1.449695068557136 8.24846002651443 11.564420230988977 -0.39014793544427 0.6846999413590853 -0.4983558973107804
Ni 7.221558641936759 3.886756746867967 3.5357941648021254 -0.15576977080587365 0.13149238631574772 -0.13646927070504883
Ni 7.746531799128496 1.4803535529321403 11.135841174019184 1.649790509530939 0.4679122361089425 0.33155943637709995
Ni 2.2694056358034262 2.6496005534859437 3.3642700651806603 -0.4794534039793227 0.33893490290556466 0.4744240690855313
Ni 8.690241172803672 2.588116457928319 7.004592763324335 0.7144725446358277 -0.06756113487942558 0.566934931931759
Ni 5.648115457162162 1.3364945108648125 2.2014221643940437 1.164317381720098 -3.3422651881939665 0.04441812110405899
Ni 1.119740326208703 3.5974045339477274 5.7413740727767655 1.5720028118274991 1.5714027163496551 0.5461609326092013
Ni 7.472759518607183 0.7765602824842082 6.1867215194440925 0.7634258346060788 0.8506121999155997 0.4729199737361791
Ni 3.0642978721186487 0.8600995457536397 1.7691876727487688 -0.3075628163521864 -0.08044287593810018 -1.2509075082065164
Ni 4.51740975540928 1.8716159792079365 5.936176151252432 0.492674530655287 0.38227830288820613 0.616141732673713
Ni 5.730713239415353 0.931082014877476 10.367884208198173 -1.2541843791855756 0.9822904769899083 1.6026097380800788
Ni 3.452793421246125 3.134704682238472 0.42029328124106746 0.7275489182038115 0.696854060223116 1.2824104639108043
Ni 2.730034972062765 7.144968139935121 3.6988922878729196 0.17746705327364917 0.9735680095152458 2.238776764835783
Ni 1.6592720853083764 5.964133680719898 11.098484618587811 -0.6050183690670419 -1.0654486949766426 -0.3729968775862802
Ni 1.6642208957783575 0.3833062617509806 9.464264841741166 0.6964658236457618 0.3325220574006854 0.638675652110171
Ni 4.381981332303946 1.0321287397270131 8.35321975193985 -0.3054689099376352 -2.3390186777776814 -1.0057412518136806
P 2.369059637256158 1.7978666329357806 5.634467696355736 0.00727287951232941 -0.7877872941695787 -1.6358417606603313
Ni 8.905268380447744 9.149914172330538 12.865851537615823 0.4929766352767382 0.8018435151523288 0.7487929151842524
P 4.98627472935506 2.5044787755388462 11.868208486158235 -0.36663211171051696 0.2582721976471746 -0.044846466890729214
Ni 3.680438702865251 8.989286740565676 11.259137119373815 -0.2601930688189712 1.1039316815431892 0.27430482563000497
P 0.9660393721372855 1.585355612228604 11.746230985619246 -3.56199423546062 -1.0353187083604816 -2.2798884472744283
P 6.489171831670152 9.02663958206799 0.5010136723553654 2.1515783153414043 -0.7363624027303834 1.7581056863992754
P 9.697254467274965 7.21714835118021 9.896335920507884 -0.44465069447784067 -0.3989601344192613 0.37411967833681375
Ni 3.719574230315476 4.098645684457905 6.823093978734952 0.02797257395352602 -0.0438265102666471 0.30708767648798074
Ni 2.473690303646807 5.793051538656353 13.259696073069296 -1.628786910696079 -0.8347680337944914 1.840964627978036
Ni 2.0262361307212453 2.2345968357059425 7.6955116986922 -0.47316191454365614 0.3251147091930207 0.31486372088897385
Ni 0.408388281645177 4.686161406988838 3.6091080528922137 0.512423174037124 -0.14742756948876545 0.7381387779045159
Ni 4.662763653922512 3.2487408739688783 3.6423068647429906 1.9212362684455948 0.07828237795167163 -0.5509912641183091
Ni 0.6569810516345171 1.7461594556237279 1.588844848578733 -0.03858197403825613 0.5165636785680587 -0.1300127164464277
Ni 8.6076062512599 5.257883646200002 1.5729046650611658 0.7386296014980053 0.33557344263249944 0.37314934400374444
Ni 6.792107740120565 1.4479680915450976 8.425568946957084 0.7738172051427319 0.9917570217194467 0.425708349047383
Ni 5.1719433277944775 8.146874781951462 9.788709041849573 2.0573175596836055 -0.6508891634572275 -0.6197993840309584
Ni 2.6748831255492806 6.52170585021952 6.950928345398639 1.7853910044777896 0.02101336902687349 0.7801637161860498
Ni 6.612307149593019 1.9244094807694974 4.481988157017201 -0.9147573671349407 0.002835155455949956 -0.48077855054864943
Ni 1.8245604980412127 6.412962007396974 1.9076893721497192 -1.1997070740733016 -0.21086722600064972 -1.1844362639571602
Ni 6.9093379108409785 7.351843273296559 2.680117908556739 -0.03616770816980868 1.6839679267435965 -0.2550413494147027
Ni 0.5987949250805267 0.4092499131866671 6.029548041703308 -0.1480186661055451 0.012601233703778298 0.6627681742830005
Ni 4.990787153160708 0.7025277491213685 -0.4900520107402443 -2.0317831628579266 0.23534592786830436 0.055917379992910146
Ni 4.953406457190458 5.08915984908838 -0.10227974929684185 -0.7403028754353702 -1.39802705953656 -1.0891900044576404
Ni 5.593084313343067 4.867939664739848 5.267869472955095 -0.814676662361255 0.5151320883278547 -1.3244261462209577
Ni 6.641424353408893 8.444054100361747 7.523009907246178 -1.0426985457643203 -1.8585656288892507 0.7742908023450407
Ni 7.844802362007068 8.40061041520407 9.930689764295742 0.49995589480804864 0.7583702744600422 -1.218836595813901
Ni 4.4802426103598725 6.010910617207261 10.809983823904151 -0.019809321416443305 0.3194757657396885 -0.7775627882280931
Ni 6.855913041339532 8.484359515465288 11.992808020612276 -1.1803651792115801 1.632854910117865 -1.020015759454824
Ni 1.0611066712032058 7.879583307636615 8.056334762407424 0.039675464212751026 1.738573529903619 -1.5952450701848915
Ni 7.424710561417404 4.4267620319225545 13.277905467241391 -0.33535181353999666 0.7624256754763385 -0.9096169605845819
Ni 1.4733620814801782 4.079166126547922 1.492442392016409 0.3093936989133381 0.07541148416177981 -0.35031563393868054
Ni 7.01174021979674 2.001687059646893 13.401961839570678 0.9089430744460089 -0.5883825602825737 -0.44830654606287307
P 0.2631058762663145 5.593390712490365 13.104804804734743 1.0518984670960334 -2.071692083237722 1.5194029262435962
Ni 3.049794979146584 7.444617221169073 9.548220065065111 -2.543614983167955 -0.7424042380490892 0.29196881856867135
P 4.056928976312267 8.203057243778582 7.899935638875262 0.04158013743463162 -0.4210924475419264 -2.3663351062044473
Ni 1.3363923778157136 0.3585789220818372 3.5059378891036808 0.5000001177824227 -0.8104446265577784 0.30491637986827486
P 1.6814163873175785 4.7028740877505 7.689464493703272 -0.8659380316393925 -0.35865783525578876 -0.6747451441392186
P 6.273262565874771 5.291206874674226 11.4425105096553 2.384629533638261 -0.06959976257600917 1.1318644033977152
P 3.6709867534122664 4.451719635193303 2.1683319849682174 -0.5229556981373316 0.7399079539897966 -0.4012625573001928
Ni 8.224681595719645 7.757218629993314 5.707034156222872 0.09088438298639831 -0.35139601148705285 0.37415541667075564
