# total energy = -340857.21224303514 ev
CRYSTAL
PRIMVEC
9.42534734636666 0.00000000000000 0.00000000000000
0.00000000000000 9.42534734636666 0.00000000000000
0.00000000000000 0.00000000000000 13.79494857011713
PRIMCOORD
 96 1
Ni 4.953085952354233 3.835626208858589 0.13003209053100911 -1.1126232957799163 2.5072523853785205 -0.13771059931131766
Ni 0.649252791715778 6.7570785635063135 9.892302506243958 -2.0416320306275484 1.4955070934626051 2.519089230112449
Ni 0.7375296514363041 3.096245419224236 11.166693338760496 0.8498763501908396 -0.33469232557912676 -0.714849211248956
Ni 4.025358448811417 7.823028784332201 1.3706547314887296 0.25272221436322284 -0.34354900463880833 0.4182086982362281
Ni 7.3864938268848475 1.9056449811417089 5.5085018720122685 -0.22743001545533734 1.9161858505058804 0.5312284796690852
Ni 8.148259816215573 5.500217934322525 3.8098196081138878 4.078816824117021 -0.4003876108944073 0.8916979142123159
Ni 1.6798607879936716 1.8757289290001156 1.7069313278033347 -0.8053001062423615 -0.26233428353169014 1.1293858599502355
Ni 9.152907578588744 3.3495893277037223 5.35128142483109 0.7666132311951249 1.8806408635217353 -0.5644052235313699
Ni 3.6006523021509893 8.311996948478887 7.803678546447294 0.6650993935193383 0.9332621108073477 -0.5313506070692462
Ni 6.083948539625979 5.820001115500844 3.37801051977296 -2.969437489195699 0.4788669353482333 -0.14683518732040518
Ni 3.361889405852676 0.8055288191034515 10.844112714521176 0.24861307729085566 -2.1421791335146914 -0.5156658493441377
Ni 1.8640320730745588 7.255792536699757 2.8327513543013714 0.5192828772714346 -0.22502886221301244 -0.1206670135654696
Ni 0.17697691753215417 9.37296116061451 0.9042602739832263 -0.2548906827694513 0.15409161177250236 -1.6650042411569004
Ni 3.629173402900977 0.26286727933136605 2.88245403790511 -0.7990795792539465 -0.4027802794962999 0.3846529737679698
Ni 3.4499409997741526 3.0487510944789653 10.509723072724132 0.10154777623751543 1.0477659329848987 -0.8270125582187887
Ni 2.5216291247024203 5.364153621557546 10.087969887354177 0.40865987820552846 -2.226680495792881 -0.26549082688280085
Ni 8.81621532446083 4.951568471448501 12.433248880115942 0.2775768115130574 0.014939909139283948 -0.4264007471287173
Ni 7.218081722390206 6.88120096131748 11.253739248131401 0.1508391662734757 -0.3756451138424047 0.16947169377299845
Ni 4.578739436000212 3.765360245180083 4.084780550489639 -0.8809108508991409 -0.006421330145311522 -0.8175203024576373
Ni 1.7761407100561721 6.296056553927939 8.172527257755888 0.9139042751060261 -0.10966783424148854 -3.631428676103359
Ni 0.9805094480900512 9.331951474770756 3.0562018314726416 0.4246140875419397 1.4730243389790567 1.979207959864372
Ni 5.488784988119705 7.375843184502994 12.721508044913424 -0.07629748631115892 -1.0781751414043754 0.9753994062970297
Ni 4.39497344085067 0.4186729818917347 5.320835668174575 -0.3845606711644796 -0.059095263500259516 -1.4421515606596
Ni 2.8221940228572007 2.1010607054806054 12.70379593237893 -0.022153396168587653 -0.6847228241772207 -0.081648209100111
P 8.963175338635915 7.2733425332617125 0.2167452851443234 -2.703318798920912 1.101570123289548 3.142139516980537
P 4.300041343443572 4.3488457914552825 8.78615412197173 0.5216853160653402 -0.10147655667994782 -0.10286906615210027
P 7.623522459290894 4.863705384471836 10.676104014888429 -0.16148867556752186 -0.6273049483793842 -0.4548970547961972
P 5.80918081686866 1.9371444916197196 10.69730633350611 0.05663831731933472 1.7358846702175459 -2.8060785931886576
P 3.0957647265149664 2.481071855526215 5.457184626426219 1.0146583517976526 -0.14872931901932449 -2.002033699509636
P 8.024344776043698 3.0569982733144707 7.389209269424857 0.12124242645296539 -1.3660867591845376 -0.003314409085213647
P 6.81478996466037 3.9416048132316446 4.407678808930968 -0.3262861037933026 -1.606629143652117 -0.06805247269354732
P 1.248330689931065 4.793703330516066 2.448658086365868 -1.7166281359807793 1.4768072030602568 -1.4686148970574515
Ni 8.386315811470842 3.5724610885544212 2.4546865384609418 1.319373671398715 0.15169148697144197 -0.24839607618404316
Ni 3.9418592976071403 6.27144697228279 6.632445311874707 -2.1350677192808907 -0.22405055746014316 -1.0827023398507676
Ni 0.45996165801380906 1.5916018364329025 6.771153434540668 -0.5610707598414982 2.0332450921154335 3.23679313720138
Ni 0.9067777842311846 5.708687764589622 0.5172941602087948 0.9026037624915423 -1.8749209303188226 1.590599343882764
Ni 8.954221258757368 0.19673433041785302 5.403440353925722 0.05756957088435246 -1.9025070674672073 -1.91211013777461
Ni 1.6132235830027877 5.420573750139644 4.542428285755887 -0.030372955864902528 1.2801342662821178 1.178887566224789
Ni 6.1410284425149175 0.1771927579839634 2.0261744365847676 -2.2614045295376277 1.325256098321421 -0.32596548722909024
Ni 6.4405848285149565 7.562201150143696 1.4880059598422657 0.18309931185876208 0.335790443739312 -0.5641792235634929
Ni 7.481784087487087 7.565358641469289 4.393511569493656 -1.1195632174328591 0.16788532312248505 1.1994517635293858
Ni 4.959448061741624 7.843038796523947 4.05748097474203 -0.47479636482328547 -0.07981835498022383 -0.18471602152657868
Ni 2.1125219277251475 3.5094149408621975 3.7173663770310617 1.557514388403337 -3.9997569445693766 0.10769117013109196
Ni 3.0522384729579786 6.6065463427270466 11.835113516624713 0.4359248845690686 0.9833047771870356 1.214823875110082
Ni 3.176144087782612 5.55104883199096 1.9253609224995494 1.9735831574784268 -0.5557619460340751 -0.22305939719146745
Ni 7.157523866369495 0.17434159044368866 13.644983774316017 0.06740918268259359 -0.1631166980892481 -0.3755684949681984
Ni 7.45197171416514 3.8350983894131168 0.1456112469849599 -0.8428436117137743 -0.9002460608926431 -0.4430231861767467
Ni 1.3960353065381572 8.737711607294058 7.500009881446193 -2.439096811448206 -0.7395814238883134 -0.8077017737053187
Ni 1.167103047411767 9.081585976019293 11.981740816042207 -0.41294205052065014 2.335788086655526 -2.317607559091757
Ni 2.5184527826823455 3.5830269028111084 0.5453402234578576 0.2518845489532759 2.492972992641371 -0.04624000480414617
Ni 6.4331388041949005 1.4145089871296892 8.520160454960665 -0.20474800047678932 -3.2853751598751417 -1.419005204450124
Ni 6.125863058804828 0.025342873660465157 11.332080849325635 1.1414294213783311 -1.596436005169199 0.21450199453975957
Ni 0.4723352538712394 7.327868167048455 4.825376267383303 -0.16021212284794342 2.3392968711397324 0.04668172032725509
Ni 4.689006573367729 3.9498896934561123 6.295007512780063 0.6282233464285956 0.3848902865897565 2.323086837038773
Ni 0.2050701075174199 3.0170159503199403 13.71764189112418 0.4037755535300336 -0.5109830991564877 -0.26328430614978526
Ni 3.035499056258713 2.1978684469885783 7.537931823533933 1.34745654567786 -2.6368095023447684 1.7108719502232923
P 4.438499694407657 8.18640419649819 10.954113114561785 -0.4351851781895666 -0.8604302144472858 -0.2564449146304486
P 1.6228751385771392 3.0682050111835175 8.825235381770062 -0.63177943921097 -0.09751731492188367 1.498200324024052
P 2.3017923256631874 4.364180831415703 12.1291947184127 0.2605774487415835 -0.2172718439754129 0.8839943749204712
P 0.31732505061797556 2.204654697001794 3.523836664675005 1.1419248729575107 -0.7668618568708213 0.9547624467729686
P 8.437486021639938 9.386429981821294 7.915445256560789 0.700762908359219 0.42599528416018245 -0.6864459775159145
P 5.77817142444716 6.207514841949953 5.672289901150682 1.2582930020373102 -0.5361264311913347 -1.270135246087877
P 2.1961813098325145 8.403526495532137 9.476066919148636 0.06018438279938022 -1.1738605453238429 0.9433428920821173
P 8.994665423766685 1.022489944699584 12.72277763918673 0.3495813268758173 0.7117793140743807 0.12590177960184767
Ni 4.846852863605683 5.029073101807771 11.260126805956341 0.7052140021520371 -0.09526348589070045 -0.5120287668121827
Ni 6.039112162802552 3.725952868367228 2.1984179447327037 -0.22573000204509513 0.1743285076446675 0.5133058337523934
Ni 5.855855136404 7.402139903304207 7.396892812495376 0.9996729341324139 0.9488301404489335 -0.3802378754194097
Ni 8.18214393954545 7.5118038184483265 6.675430550500086 1.3611160454428235 -1.2904942693602033 0.9635530484814051
Ni 5.397425097316786 2.0926627210892503 12.67892338354577 -0.10762817810364045 -1.1226336288280665 0.3427401355842678
Ni 8.399586700385576 1.2558615423762864 10.01722982870947 -0.4875716622110829 -1.4374222735047308 -0.11618198121092249
Ni 6.779426061813723 9.281808627450882 6.278453775421435 -1.958132113030679 0.45859044448738445 0.47965857801159323
Ni 8.756392645524883 7.751622353637584 2.482924878793712 0.014032823943982285 -0.6143548159766193 -0.7531463070569416
Ni 0.6836977232064689 6.889712049875722 12.46221862739458 -0.7421517557186509 -1.1171250403050117 -5.01917440831857
Ni 9.37918188979329 4.375971940813665 8.603246775955805 -0.3852062751682785 0.5670357191756815 0.07391793033538882
Ni 4.248183082925913 9.249602215929828 13.191584985585822 0.6689347081050286 0.7604207292311679 -1.2069791822546827
Ni 7.160474000055796 8.234690250411669 9.22450251622817 0.28047958698214925 0.5090457729244587 0.07812039845251063
Ni 2.0139233702414647 8.0109890590038 13.702839383282853 1.9494633816120877 -0.3991663368927964 2.727658146997225
Ni 1.1714858338786354 0.8069831501826726 9.289325341875243 0.4276425899556183 2.0315167965704175 0.3548569734524598
Ni 6.705748122434127 3.4197893139515445 9.143443587424478 0.09828324655363074 2.957644096105197 1.9869510941449007
Ni 2.2977017249607763 4.073455995780085 6.663925971658236 -2.1430723347529224 2.7201980911747543 -0.23909948137346565
Ni 8.247471021269893 1.1579039085049632 2.5338424896567604 -0.5018844792893292 -0.6196916548085005 -0.7910911617318311
Ni 7.091744367977503 4.920285743957024 7.27545569611305 -0.2721445847538926 1.6149106669346187 -0.8238395598074457
Ni 4.537984234531954 6.510077913719735 8.877725140552839 -0.8137340959423276 -1.126097676117267 3.2469883325668274
Ni 5.806438040821652 1.7380246058152764 3.856736159073311 -1.6941911471335016 1.7711645764657626 -0.9742346965649674
Ni 7.886338841747161 2.6930573403140463 11.796626053702537 -1.2360192782407746 0.44279384377476005 0.01795864136094972
Ni 7.54286033760603 5.661466774914327 1.4759075841242604 1.5883709687728775 -0.062469579289131126 -0.4715148658585363
Ni 4.3103432479775226 1.958021635757599 1.4232528817647732 -0.34046342373494914 -0.07215852444212088 -0.058685686766666675
Ni 1.98626940143761 0.5019977641720613 5.598955986945368 1.2549030025191548 -0.8888136506859854 -1.9848834129825947
P 6.449897071588647 2.0848114068378494 0.8949763069512574 0.4331581204572089 -0.9923380910338974 -0.30554989968721574
P 2.793550392593085 7.8991101872581435 4.9352390573542 -0.0009690487814886537 0.0718330227819021 -0.6928153713773681
P 4.677281441400451 0.7246574547098472 7.2904231475310874 1.681444903211427 -0.1668828499998997 2.1265802506351696
P 5.339704270815488 5.9423326973363 0.7058557720343429 -0.8062419013303406 -0.6561576109450183 0.12157589853298416
P 6.926178718349516 0.06399716522879811 3.9462241759142516 0.9048321376014288 -0.7874057424604439 1.564844346405847
P 8.685061617608191 8.37157456838658 10.969687558342114 0.365220576074971 0.5389574728822266 -0.5976285043608739
P 2.710616762223242 0.4795927712464842 0.5671721552712076 -0.46070851927165174 0.00930687922322268 1.0615313622001072
P 0.3519104197825511 5.824157693633937 6.35559458737722 0.22063767512385227 -0.6889132081094845 1.1173631244577467
