# total energy = -340890.17347857164 ev
CRYSTAL
PRIMVEC
9.09843456455260 0.00000000000000 0.00000000000000
0.00000000000000 9.09843456455260 0.00000000000000
0.00000000000000 0.00000000000000 13.31647866908057
PRIMCOORD
 96 1
Ni 6.255182653222265 1.962968995052221 11.435125993070692 1.5533186051544345 -0.653805565773074 -0.3073962088673351
Ni 4.612414855135358 0.48902992343503915 5.7927083298662945 -0.13906505645668307 -1.0964009203837828 0.4385697783910834
Ni 2.6591356925716454 1.7149001849121561 4.8128278863004885 -0.23472372090327315 -0.4382761584100645 1.2895187928208114
Ni 3.7192488589857238 4.41748090108251 5.212202748366035 -1.1109759899844802 -0.006535487125672615 0.4272494682822578
Ni 5.369959590182928 4.472016916046 2.7442733813302973 -1.3638067049011093 -0.9520995552288248 0.16887185540547045
Ni 7.042979682189354 6.06984754731531 2.4850144068920015 1.9836094313661774 1.2703424770026768 0.8696303928893152
Ni 5.4369149679133795 4.128105199395191 11.762631413061145 -1.6198494989971328 2.2229475111130106 -0.5776806004840374
Ni 5.456822342077563 7.7049817590568095 12.659043730555288 0.6422631123511132 0.4509254717429589 1.1971393133461254
Ni 1.9412510324699972 6.216596193519202 0.3747617777013112 0.7245193873488684 1.1894159765599386 0.7434334506445519
Ni 2.785567535069586 1.4709165717555086 0.5849692733489557 -0.7377775379103552 0.8331325550735975 -0.3740016647017107
Ni 0.5426251602958889 0.12311910258332477 4.8077409517048775 -0.6426156105945255 -0.652566036939018 0.8699782631470372
Ni 8.8197674169483 2.2934241274302583 1.4548787616827452 0.3446427519236193 0.8493068508406146 -0.5779747346856884
Ni 7.056481758633435 0.7000399009845488 4.834108214194733 -0.4216046112916545 0.16136089174040597 -1.5567448572271643
Ni 0.6132917893616096 7.32093684887848 2.300368052458642 -0.4166431535213212 -0.21192009274519635 0.26900346802174957
Ni 7.846462411823286 3.6972033527700856 3.978271274133221 -1.219608698093235 1.7162807799436892 -1.2801527782248792
Ni 7.7519569751489845 3.892756000352716 12.61018513857098 0.6189817732256694 -0.6848799185803753 0.04994599290082365
Ni 7.947382244651953 8.921442419820671 6.822777556505441 0.40907305448354714 -1.4353283670901797 0.45505132098587436
Ni 6.981938286728885 0.6746443512738225 0.14126411003105382 -1.6543848137698414 -0.806421107220682 1.1631552430911969
Ni 1.6868679089524443 6.300101623171338 9.449479150621656 1.0111202567374071 2.6455610232851536 -0.23062358269197053
Ni 0.07849219237404524 4.945717797437248 1.2316887101873524 -0.11293982012454096 -0.7322499232239067 0.8472911059621665
Ni 6.510057092189939 1.789216195960168 6.817704269561223 -0.78633410666282 1.1087938947314968 1.4975133252593564
Ni 3.7320412575574067 4.2167603428393425 0.8770481198553701 -0.15174265192435157 0.5869080326195764 -0.9965618993072578
Ni 6.154171836050982 5.72286055988411 4.739587310182186 -0.9716018869278106 0.649682801853952 0.2083038361488477
Ni 5.094995808365839 2.914865384359902 9.403963323385026 0.1934426027662991 -0.41215889249772236 -0.41102349334169863
P 0.0994877392759053 5.572609016489537 12.436139369895706 -0.25149039883865076 0.569895814332296 0.3500376976869455
P 3.8811191029322454 5.9698466563470545 12.611450730776754 0.4909338938150964 -0.2211794065599352 0.12999111917987288
P 2.47102556421493 8.220307977194464 1.8159546745678934 -0.454656656650617 0.43397187460775577 -1.3433924029108153
P 6.078263599007206 7.862848691928266 5.765608643418387 1.6079337213961535 -0.40223494851579117 -0.217504014590877
P 4.702807799523459 1.166737717524712 12.81187649974985 -0.151817471026345 -1.0411486847786973 -0.12564415506508686
P 3.824890779196114 6.216614390387725 8.19904857569902 0.4947028739392254 0.03253988160923428 1.333558447539529
P 4.670590243803453 1.1241570451808462 3.680767941120094 0.8917884170435932 -0.4369911210500539 -0.1251427899486361
P 0.1743451071624774 5.593444430948394 3.5107700658477663 -0.0698347614049507 -0.3755443265984823 1.488319317464914
Ni 1.3860281800956218 0.9388492345766756 2.8329075983756473 1.3373258850017615 -0.14980789679548395 -1.8247900751007025
Ni 2.0214537304852067 6.439626112571592 4.758150845605945 -1.1479127151098294 -0.010585488825330155 0.6597738675413669
Ni 5.9506944522265774 5.792272514865169 9.360471897771584 -0.11653396523370255 -0.6933542745999736 1.317468226845886
Ni 8.770362918908301 2.3595242523401265 10.091853175256757 -0.662855077569852 -0.3304669746438696 0.38114753171787263
Ni 1.995550488142688 5.391713946502198 7.348445055024728 1.7735693292525132 -1.4340284173318336 -1.0527626148685418
Ni 0.5478995226372861 0.040187784133088884 9.130856532000713 -0.15798143374521179 -0.8154374517866796 0.6630278557022904
Ni 1.545005121946983 1.2414813549830153 11.286274698708965 0.010118576491240639 -0.6308044768922104 0.20952562437109076
Ni 4.217078788038496 6.870591648236528 1.7028447595156553 0.19838194904944545 -0.9414148218214691 0.09802690756845053
Ni 5.67242793877256 7.6953192218710855 7.894660457480208 -0.8584885173398827 0.7001188470173169 0.11162470085754324
Ni 5.419282202314573 2.9117719167109883 4.742703523916752 0.03304484627011083 -0.634952694732629 -0.29201998352158093
Ni 0.8989152967594828 7.410720198171059 7.050435849066662 -1.9082583681286875 0.6584610622672143 0.013034978807087228
Ni 5.400503033998817 4.7715100766321195 7.449371256757378 -0.7580959377527331 -0.8234752344894916 -1.2424310953043893
Ni 7.807939641160054 7.2514794017261135 9.263155044910476 0.605428460021267 0.9171708616724398 -0.018885781160909408
Ni 4.615117090111027 0.45612270639801045 10.51053673451208 -0.7562234033203685 0.2132688934636069 -0.532116024480361
Ni 8.026174685356628 7.353118010861439 4.628461763642384 0.5661571732254701 -0.206043065139129 -0.3098279582372793
Ni 7.414086618847817 6.193367890849567 6.79669052579084 -0.37582689083590753 0.6911323272479903 0.8949436748431232
Ni 2.3140138841640545 5.318917373975858 2.723139538227662 0.2229627237126031 -0.5764032764335106 -1.1666717408848877
Ni 1.9899094589005517 5.391231729486337 11.50004423136999 1.1708582681624093 -1.515751445533938 0.18984922898808596
Ni 1.0814853884943652 3.410011275305528 3.7077602660437154 0.4368268275580477 0.012887654595945545 0.28344535447869246
Ni 3.468232156144929 2.662311046128912 2.8640151451157494 0.9972941494875922 1.0399140410406478 -0.3609710567699977
Ni 0.9548715773111944 3.168829979901426 7.991617922187989 -0.6326286745851427 0.7371386187747756 1.910306766017284
Ni 4.028950462813256 2.6241522128361403 6.952986159065334 -0.29857038304558897 0.658727942775356 -0.23560920883202005
Ni 3.938211777923219 6.940258359376908 6.1623868123457 0.8622649536631795 -0.0637679863855805 -0.6770123429068404
Ni 0.8039267332258941 7.507791393307106 11.606975399715235 0.9735240436511877 0.4782722391870279 -0.8266148085597376
P -0.04549581068125372 5.824371790939775 8.274526456802228 -0.027421843656378578 -0.6299927796241924 -1.555355433078805
P 8.431764687866213 1.5997049087271802 7.99380154641075 -0.06593311235769936 0.32690548254485635 -0.057068719988533974
P 1.744915919540877 3.3613801441777578 10.12586312252628 1.0908779336830243 -0.46364857573658214 1.0139839514384472
P 4.125248291037077 6.00049018293982 3.841737440074726 -0.5330938150125981 1.0849695386183895 -0.4204003065709082
P 6.974341094120524 3.8109064857361736 10.350512562877219 0.04521387753247697 0.6752634785365339 -0.8673022589767708
P 6.239160310487746 8.035118446235693 10.69108151478035 1.3825636737936382 -0.33272208922663343 -0.9234127288170936
P 2.287855885662214 8.415278324984358 5.85309827743364 0.45523001265558377 1.0617756170004293 -0.1944165366437942
P 7.1278225816779335 4.14106136978358 1.538785432285815 0.3716501337503986 -1.454274054954747 -0.04476522003083258
Ni 5.702097932899345 2.8840489875161683 0.3878607935076068 -0.4138578774667002 0.010102121431008408 0.5233614182161825
Ni 1.2549015455187422 0.9848418197686079 7.080104933350018 0.328172522182738 -0.14699716681956618 -1.6304558137580691
Ni 6.879189668613654 0.5421220168812274 9.10538182591191 -1.0015891773185204 0.1946124547046842 0.6202871223006543
Ni 2.7504293819516348 1.574984462838658 8.86746959793797 0.20683213669932765 0.660469865167127 1.547781220275973
Ni 6.535714676807397 2.121527408927553 2.5423017883761716 -0.32208774944123886 -0.6328117371302262 0.4053511255472696
Ni 4.21409450160072 7.1348647697963425 10.610090892358095 -0.7662998137197641 -1.064329750880851 -0.7669631583353759
Ni 8.129569292304426 7.509483702079748 13.17609592167235 -0.4901687335142978 -0.2534930310909763 1.569747183024103
Ni 7.7425764894253675 3.9554169171117346 8.112585245068466 -0.8564064379998734 -0.2079166280127581 -0.024639395815234985
Ni 3.241790324244473 8.515652251757334 12.489658179908758 -1.2447916251167659 0.19449238418705211 0.25598957226058494
Ni -0.04889316603450149 4.815182561087367 10.153801684613097 -0.7362860409664933 -0.5217138553104306 1.1617429361247025
Ni 8.596273477748573 2.489750141925117 5.813854910776896 1.1073893010744864 -0.35267770641295393 0.7331549515366793
Ni 3.5539667021911363 2.651529401529023 11.688511928193181 -0.43591974236274605 0.5437402389828506 -0.5532206676694601
Ni 1.1860536934618975 3.1988093207931003 12.70823441539014 -0.2511525558832578 0.2606134441858415 0.32906932296539454
Ni 2.9075502432136484 8.466038489729321 8.030049708508606 1.3230446924923986 -0.8664496811684884 0.1830833710191621
Ni 5.7529945741582305 8.20100109969154 3.501940945240397 -0.40128878255243794 -0.5063967653373859 0.39991581346431126
Ni 3.2205272833753242 8.462517395670117 3.9270825731345402 0.42326220149973554 -0.20203574375194885 -0.8878764835836966
Ni 3.564384409420565 4.774266902213356 9.86177105980827 0.6009251728342747 -0.8776380936851401 -0.5295562341729848
Ni 7.208653071657187 6.110444760990166 11.503013960312947 -0.18752520884059962 -0.40455434067758717 -0.5412892063391969
Ni 0.8310810102793702 9.025419326561208 0.3948311039953495 0.09266024393989848 0.08967982115533586 -0.07739071937533769
Ni 4.406899422036375 0.16889332535298068 1.6303629928147636 1.429814636360802 0.37838102471632895 -0.1487606864778922
Ni 5.940677076104655 5.575738877875496 0.40903921893812323 -0.3910938442973071 0.040517757608388286 -0.7248623725105839
Ni 8.275489980990521 9.081720437771429 11.210144459869207 -1.101747786517993 0.6018600259437183 -0.09535450294260998
Ni 9.255655205548711 4.938539132804917 6.048184175338655 -0.22203944056738534 -0.6363043236645171 -1.402883102077281
Ni 8.02335417073556 -0.09742694391567333 2.399522789040576 0.6359788220042982 0.25746898501958887 0.27368853220224476
P 8.598566283182473 1.6527851742088284 3.538441133967296 -0.5565569311315447 0.6242345369841765 1.4062823575668169
P 1.9178953517207016 3.2690128395549105 1.5824906711044036 -1.427756982500825 0.3365700022178139 -0.5847963855932122
P 4.769144483724126 0.9223901669976043 8.079053875441097 0.5206923560244516 0.10903534286381224 0.7980426533489998
P 8.648307423290147 1.5670779234654058 12.682614134353155 1.8062164258635731 0.8312895883275877 -1.5558511417683012
P 6.504825492489571 7.917857825473354 1.4546385630182412 -1.3236681850090106 -0.7480354681929375 -1.5872175718947246
P 1.966390006334549 3.2040227236249454 6.241473132477021 0.7663604917543705 0.638959501899177 -1.9697740681449818
P 6.819094510316383 4.048048076328166 5.910265559585558 1.017352353690048 -0.42625573691042073 1.3959005001118605
P 2.4690057118088746 8.526888818070299 10.2487211000463 -0.816790109159832 0.3651817524172356 0.6610499060403131
