# total energy = -340893.0170914513 ev
CRYSTAL
PRIMVEC
9.05800835433422 0.00000000000000 0.00000000000000
0.00000000000000 9.05800835433422 0.00000000000000
0.00000000000000 0.00000000000000 13.25731082409052
PRIMCOORD
 96 1
Ni 6.389500937290223 1.918667317651617 11.3286236221188 0.1442414584513 -0.20967731945760662 1.064275757714464
Ni 4.610191077301105 0.6795046084801781 6.236000305471457 -0.30733964459778684 -1.31914355766578 -0.4758384329345547
Ni 2.880636856892101 1.9119100434614171 4.66830997594263 -0.4746025036449245 -0.3236332395514878 1.1982374315063105
Ni 3.3471152262233286 4.5383067234493275 5.023526111948817 -0.24350275264748386 -0.16545974440012795 -0.26994860554383826
Ni 5.106678628123125 4.629647679124896 2.70430551515859 -0.49353585021431773 -0.744441323083776 -1.0862936567464516
Ni 6.976188134742283 6.149092339056859 2.6027281043056156 1.5056189850856265 -0.28225184839122364 0.32848928209220846
Ni 5.016189125227554 4.485987667520918 11.705290933375965 0.10077773084071032 0.07116376462901938 -0.04796264392220772
Ni 5.742360592458281 7.641815874510147 12.422193340715497 -0.1526289111840468 2.11017301292174 -1.090194791573071
Ni 1.8017465465429063 6.552680956776078 0.27543953952448974 0.23983661664980632 -0.28186489736545006 0.3775122489581305
Ni 2.798698113829706 1.2924781460126125 13.608231737020848 -0.9121633811555193 -0.1629953420200354 1.3552277049828467
Ni 0.4628488254062771 -0.24937693224907198 4.51659377175854 0.6318259761781894 0.28259483355293913 0.5300722545774549
Ni 8.688595545443446 2.225471116708259 1.3482419624966964 0.7448187610278527 0.5897889537117972 0.31827197523957446
Ni 6.946323881384256 0.7477068819588762 4.799490769514654 -1.2406848020372439 0.4881622446072303 0.23387859929415852
Ni 0.4161647564399629 7.09261977340291 2.256845340049539 0.8087279009769878 1.1850132195065526 -0.3102704450913366
Ni 7.460619476519859 3.930813280937096 3.7496313757600834 0.35347654816516544 -0.3241153213942289 0.5102454496595148
Ni 7.726943036493387 3.7260479453557886 12.24433300718131 0.7989283983880627 -0.49453369535121283 2.017481915743906
Ni 8.022016714804309 8.794112284105159 6.958669946694232 -1.0635190820540974 1.5789334775090613 0.2930255419679599
Ni 6.901577320392853 0.4641885048335298 0.5630974264419559 0.4748873818751951 1.5328803919047407 -1.8815767450724432
Ni 1.7539293207385305 6.533550443251009 9.21137849435414 0.7159671269034831 0.6388499729045063 -0.28534745659741184
Ni -0.014264551467461835 4.813325971388797 1.2410032964575628 -0.029235242716033522 -0.5546543147921932 -0.16139997250845753
Ni 6.366611350321545 2.109700712653376 7.138133547697141 0.7339118843073619 -0.4514700313925193 0.2731316312575102
Ni 3.5630400280275927 4.519103745857875 0.6447218566164156 0.6467856828118151 0.2456120856810028 -0.8543793802675157
Ni 5.792152464071589 5.4775406618621965 4.665088948191912 0.7762001035526116 0.8568916051664082 2.0810904937334866
Ni 4.855898610388715 2.9591154407847156 9.656598624011133 0.7308057345782123 0.3550948004948788 -0.3181079388578844
P 0.1955714571589843 5.534479302022512 12.314145794535365 0.809945832544489 0.4704578853489317 0.5069829768581591
P 4.030360792130521 6.286918993317018 12.695624719800353 -0.9334318036159924 -1.04843596246873 -0.2506383352510006
P 2.2685147721396652 8.55425622437796 1.741798836026043 -0.3993771673520219 -0.17565442554494265 -0.6189933431898953
P 6.350551501609448 7.927279006017043 5.772710355061074 -0.6796369250138811 -0.28846414784952257 0.4304623187926006
P 4.79802699537372 0.862473658694357 12.596924132382778 0.9423933836846545 -0.933128927663593 0.4148539228313823
P 4.053005812875158 6.269618197468114 8.228680608924845 0.36456160233473345 0.3624347857997177 -1.150657367734502
P 4.782492511142899 1.1950683247774812 3.912232588515706 1.013615769465751 -0.6019523285472085 -1.118767461004441
P 0.06055459707281932 5.412422640208917 3.4111191128559706 0.3383304365523464 -0.04862161766244529 1.4628782516839902
Ni 1.7144092305349896 1.433239594961277 2.7181334706260953 -0.5287962160785087 -0.6440127480523683 -0.9929965505535026
Ni 1.6397350101274741 6.674556458423716 4.5182368944637705 0.867650643455125 -0.37431148263264574 0.47244226276881207
Ni 5.966211151523169 5.672287840266076 9.294554561350024 -0.06999262713905366 0.8250263810266952 -0.1658281834831402
Ni 8.702916256562355 2.318016787487442 10.230268557738343 0.3430252709248544 1.1271677692529942 0.3951585012849839
Ni 2.316748666325742 5.533066252728046 7.02193379404894 -0.06455114440850819 -0.4288314680573969 0.034597535469211384
Ni 0.8239771234284738 -0.024597021532824878 9.061001063796473 -0.39498032383590687 -0.336102318552776 0.5660684701664058
Ni 1.3853317890739225 0.9903845112708549 11.37697345881109 1.008416741763315 0.4732914981429848 -0.15121300467312668
Ni 3.8864018662527138 6.998842213495219 1.7685253953096938 0.025058228520208455 0.32542272735174277 -1.2774533770158452
Ni 5.873013304146539 7.873211754487149 8.004737658175321 -1.0996029722608482 0.8158657975733496 0.6641563128797788
Ni 5.21349066197143 2.9621951636059864 5.017043295410042 0.399967235527537 0.31162413090575364 -0.38801751936482853
Ni 0.5989653276998017 7.398608351712745 6.799542480120836 1.526766822807835 -1.3905559479704954 0.015309376663560734
Ni 5.029585919500081 4.638633223356368 7.022251730140194 0.22713690969495076 0.7983794678631282 0.5505788591712388
Ni 8.481076575339593 7.183054928248692 9.203517048952431 -1.6091254277114095 0.09109109968056571 0.029861306335806637
Ni 4.799920119107972 0.189226322346337 10.347092408158268 0.21752484052648344 -0.6092190374119508 0.4180534036052865
Ni 8.06820349911507 6.887310957323732 4.851420331086256 0.31317656299453805 0.22044355683517522 -1.105851010053089
Ni 7.0628732741527545 6.126139346030094 6.85471933766722 0.6887095767391107 -0.8143439616121846 0.5744777772760236
Ni 2.3781257305520067 4.9620946996727655 2.7548030056183013 -0.49397550885489777 0.33834149229593985 -0.42635318172023345
Ni 2.513914332945149 5.090093414929752 11.468316226088318 -0.30124073078890057 1.0732530215124096 0.6461655327293129
Ni 0.8548830477407546 3.3647874004124434 3.877617409805454 0.24112113978918473 -0.02756993919846865 0.016664605139874528
Ni 3.924563255211576 2.668643230689106 2.426989156314785 -0.6750493056431986 -0.19380692808425332 0.4815470532835578
Ni 1.02701509682738 3.4475866542631346 8.231596381795924 0.26566566189776825 -0.5829256509330606 -0.3069719768457229
Ni 3.658330275321026 2.852801597392793 7.037776250561888 -0.9717553817865393 -0.615393798764095 0.6093177677733442
Ni 4.15826892730453 7.018126713161351 5.885675493946111 0.14710206782854665 0.4393614210544433 -0.06452414782531468
Ni 0.9518426859634824 7.493962005064263 11.32705930408576 0.32720501606314617 -0.7661365486690225 0.35293455961876635
P 0.042170463431493097 5.470756213647102 8.049467914751787 1.0094780931482936 1.08333508833876 -1.1830139296883366
P 8.649954082044799 1.569354285653142 8.18086066571798 0.41981203816760604 0.8842751393856835 -1.7206940785200364
P 2.0145916255258998 3.189786680097887 10.461900851731919 -0.698887545713377 -1.127363173093252 -0.5483877650571911
P 4.0034222754527 6.267081955144715 3.7246810919036424 -1.0772541722520028 -0.12208009186291233 1.416832365168521
P 6.739574841985719 4.006212142008439 10.410913323023294 0.11983140503805169 -0.8900871180817703 -0.6228291719962177
P 6.60013586224854 7.724279982053818 10.24413636844236 -0.6695564008494276 0.14323152912954687 -0.08979680634917439
P 2.32925777578508 8.69837819440513 5.8195882654049615 -0.3022506601106536 -0.6097281158378853 -1.13992789713214
P 6.884004784295014 3.9865743800186904 1.496193658432198 0.1561873179592665 0.07365130693756347 -0.6001042195948761
Ni 5.277213750346838 2.7193861931736887 0.4222245639912278 0.3784260190216515 0.330697859707753 -0.4580636254496369
Ni 1.6203236983451712 1.1467800825416168 7.181763256265418 -0.47616984813204444 1.2610736501062412 -1.389009429418982
Ni 7.068987429753807 0.8411338969454407 9.27889779400718 -2.0593021942138017 -1.3397293522369316 -0.5037040489965712
Ni 2.908164144109282 1.4567904165356995 9.212094077009672 -1.0812257553052411 0.49773523300764594 0.8981953490112015
Ni 6.51990908275444 2.0637856685915494 2.4139836680007245 -0.3486881256375866 -0.7351383005152952 1.422947991147956
Ni 4.133948175024789 6.7269932684599985 10.439801123086813 -0.12187646049253847 0.71574086982529 0.19828321868805207
Ni 7.915376783113662 7.021885786604961 0.3273292458595812 1.3840384585669518 0.704044150213652 0.042169177168882216
Ni 7.436697276605224 4.133051432203302 8.255447023445006 0.5201699078620784 -1.390735153860837 0.30988143718303407
Ni 3.2624137906300876 8.247289381171958 12.421318337113924 -0.3767486313192286 0.7660082506212743 -0.5530736005686346
Ni 0.3045537897954549 4.839884051718108 10.146496473796462 -0.5042866609729186 -0.43511318730105064 1.2198154147874025
Ni 8.599618729933619 2.190452856628752 5.799715901000298 0.5401473794252697 0.7551060018864738 0.6089940658853383
Ni 3.6305946539129943 2.4391133004214636 11.828544158085707 -0.3839865438285645 1.5627108450026117 -1.6140796863928912
Ni 1.2180394338208411 3.4049506092051316 12.584529153827994 -0.8865117420256862 -0.5907896270621696 -0.018166643606697747
Ni 3.003708015635055 8.200758392545879 7.77566425152589 0.5890780436877016 -0.02618745702864522 1.0118849028175734
Ni 5.616789423425119 8.001301049827113 3.6299705571412724 -0.41298807326723713 -0.29527088635871085 0.7194247464347804
Ni 3.2620424122898757 8.548839535415844 3.8346244792205155 -0.6503412613735574 -0.13479573965736785 -0.1669371002766028
Ni 3.188554790969379 4.593469993983264 9.27547749007391 0.4843035329827724 -0.7687922411243147 -0.7356507213753395
Ni 7.246787074632399 5.931854126049404 11.589939009304445 -0.2857621755373272 0.6321990432468919 -1.7639138084406203
Ni 0.6806794321564099 -0.14214823001906615 0.19118738114282258 -0.38972293209170944 -0.26046509153343533 0.6130499811222668
Ni 4.680789193974585 0.3826619011486871 1.7291774072638122 -0.3112148112824769 -0.24440803807057265 -0.1788258812943888
Ni 5.847705228962334 5.758058120838464 0.4981198039172941 0.0451565419319803 -1.5235069211096406 0.368757642693952
Ni 8.203865289392041 8.959901009980795 11.201844114778703 -0.6349796913158227 -0.34133657036852183 0.7101708319366802
Ni 0.2749821101054481 4.8845038005933406 5.769130630181761 -0.9214214094186777 -0.047960072819046434 0.32332033629675927
Ni 7.753247492590359 8.712309411167231 2.7422350191050278 0.7936789770636654 -0.09389488767794796 -0.37425414703214904
P 8.64732725963842 1.4867905400181949 3.6004206166711805 -0.1925792263247393 1.1712485616222925 -0.6851982211517424
P 2.016973881708236 3.257431886066268 1.3328505947969813 -0.8996986730296055 -1.082894915477548 1.3939012102936446
P 4.805907462592854 1.2175231273478635 8.383366934029802 1.388007727627345 -0.47022494340251925 -1.0848731222498413
P 8.579066109105787 1.629825549049621 12.540938394695395 -0.3202733219403194 -0.4657126573544624 -0.7493331039584386
P 6.181827981045306 7.795693319474106 1.4483746210261628 -0.4727255983371858 -0.8712797555672802 0.38309822768634016
P 1.7221991176711449 3.242205374117573 6.04052123999711 0.2683990016685313 0.07502813268043208 -0.06920021314474535
P 6.915191506864528 3.90009757479907 6.068242368591864 0.5161268481409563 0.8845664453738573 -0.8195640723605435
P 2.6510616365829693 8.459726849781548 10.100280703859147 -0.46984467724496504 -0.08676881815612798 1.0040111564964516
