# total energy = -381167.265298188 ev
CRYSTAL
PRIMVEC
9.26916812386080 0.00000000000000 0.00000000000000

0.00000000000000 9.26916812386080 0.00000000000000

0.00000000000000 0.00000000000000 13.56636449113961

PRIMCOORD
 96 1
Ni 5.371241855321642 7.188147089228128 1.7876128092054855 -0.3526285983425733 -1.4487209863470019 0.22132235989570273
Ni 9.028197435620658 8.360418765683892 9.786625787808031 0.8058104702198767 0.32436651817308654 0.44275939099239875
Ni 4.938705399955691 0.7985341882725228 0.838057920607522 1.138804067940342 0.5207440351979935 0.5430864074489358
Ni 1.04457961814269 3.4464620442775566 4.234767705666479 -1.9434814529970401 -0.2885775334989353 -0.5910809330503433
Ni 0.7564076735642428 7.139381996401104 11.72588311234509 0.5302622591010738 -0.9658256465656658 -3.0805783084382883
Ni 5.235995425091817 2.552358099382142 6.234056796729715 0.14166161353926568 0.016709599445197027 0.877255770645057
Ni 0.8647911280248232 4.852817289304634 11.282615741190154 0.4914910518701472 -0.6566654038193723 -0.9973268024977405
Ni 7.183021239326332 7.218077232687254 8.655150500453118 -0.6104948188005809 -0.00446214953641167 0.4413637961964528
Ni 7.498228566198751 7.796426969798486 11.703322884359594 -0.765933688629597 -0.1590813516776099 -0.342934510983261
Ni 1.6541479130644934 5.503985610192544 6.740909733420501 0.058572301117253964 -1.9527685347259207 0.27310720577747805
Ni 2.2309682374563833 4.45808977019442 0.3833329308927152 0.15962308311369283 1.3662821630247954 0.18046418822876018
Ni 6.668016996299854 0.967654792943778 5.1286964632867695 -0.03922397849762922 -0.2511872657759351 0.29742932746261036
Ni 1.5614562331043633 2.3861989938856127 1.3080445954277644 0.9118931582132682 1.8656919555213871 -1.0369960960629043
Ni 7.366587842319374 0.7222062974925539 9.667744073675168 -0.771248158863975 0.43257910802528726 -0.2877357543239303
Ni 6.518579469868133 3.2865318196743485 13.788716984604992 1.4258991033564796 -2.364348929012354 -1.7003893055244137
Ni 1.9642386592031125 7.253485454432023 9.813419244817306 1.080425628001449 1.3986469525087462 -0.8654338383094643
Ni 1.3300051082439186 3.0160667667186845 9.139143815032137 0.31766699466572385 0.022360112862755042 -0.9664277989260387
Ni 3.274797052991396 1.561178158064483 12.812101686959469 0.2567066529322676 -0.04901139690169624 0.93671407391169
Ni 9.530187766780735 6.592046895404532 8.044867552678822 -1.4333977257263701 -0.2737193854401802 1.9918336190481825
Ni 1.693736529575465 0.3522367260996907 8.871154556848207 0.48734823334636707 -1.0279560973478232 -0.33517826407660983
Ni 6.2512937415351 5.991265771742948 10.679889946083007 1.9153895798568306 1.2801931445445114 1.5205378111789876
Ni 5.633170004552978 7.249907555585563 6.707617662729221 -1.8386082119307174 1.1131177189178314 1.374996660079658
Ni 1.6253300697648891 2.5211210032355784 6.2662764246838565 0.8052245158094197 3.077920301990151 0.5116425871173576
Ni 3.07385076000583 7.505245326371733 2.9953714953339867 -0.42478917966722324 0.11936423559364605 0.2271777902352152
P 8.617387910037362 6.225970374569994 10.275273151637847 -0.8052977922495163 0.2131925316997167 -0.5842099169621229
Ni 1.049649853036509 7.785239084027298 6.288009842884108 -0.4815318837749062 0.921351989633323 -0.05632695672650299
P 0.20305966328865696 1.4084037311541966 9.778038830576525 -2.2769422201619114 -0.5616346027647683 2.0611145648321925
Ni 1.5866869083895108 7.141291445008282 0.33583678716434495 3.2963460570643486 -1.9813247490970585 -0.9299335606547469
P 7.99479643408116 5.139151157869472 1.3279269607792124 0.7546442317587069 0.01902256384908982 0.44014586462895167
P 1.692234924360111 0.6205272322434896 6.764582261565518 0.8899048268676353 -3.3978848344407995 0.047160973956518776
P 2.6317485232679934 4.064057438683907 2.7332561089091314 -0.638857429103674 0.5514237236700374 -0.7945233273418316
Ni 8.15772059994708 4.187532025558797 9.300217854966053 -0.16847899084242596 1.851044380811541 -1.1248905431830434
Ni 7.803008079075655 2.055141389740012 7.193225666373143 0.44599923808593506 -1.3816815282990011 1.0992975252052875
Ni 6.359993274624346 0.5248351226030502 12.75441780068668 1.8177915322956821 0.4541529775413211 -0.9542862784674985
Ni 7.566699910185299 7.889563569822424 5.4285132636186075 0.6622544678713755 0.9044071342488682 -0.4256445856889831
Ni 9.408668974353004 7.5847747877775245 1.734635806441073 -2.337230475529007 0.8907967425542852 2.233006438010909
Ni 3.088134547887686 1.5354562168755468 10.411655054947184 -0.6617628729469377 0.4620040981546237 2.0166630193870367
Ni 2.2049682212275665 5.089607454930783 9.35630095592593 0.7694139338687136 -0.6071320729759351 -1.098624667507979
Ni 3.323265532442548 5.8152071948266775 11.307836220390508 0.17031681538211313 -0.11052889669020319 0.4399964835352809
Ni 4.011223181106633 6.219111190252945 0.14401877082125253 -0.16587857710510143 -0.9769230420304078 -0.3201056860142036
Ni 3.43615472946599 0.698462396753967 2.6191359663758185 -1.9117928636445074 -1.9561852737169534 -0.46064681279578085
Ni 7.112260410844769 1.2279052227678353 1.9327994951942356 0.6063275747967688 -0.08267202237893503 -1.1221530896472223
Ni 1.4116294016168092 0.25476586312081634 1.0512802996870079 0.841097575556945 -1.327463904606017 -0.5784082226786813
Ni 6.11631611717716 2.8281621931035095 8.428212533489932 -1.009896411632635 -0.48725515941192854 1.2837584932982664
Ni 9.162136913163046 0.950506832151154 5.5904409939249575 0.38374974522741007 -1.0408668918722204 -0.6797839921147066
Ni 4.412559616998005 4.040467406134055 13.00608683478003 0.007112185564749041 -0.17346307432057867 -1.5273684609475762
Ni 3.4562688240173385 8.320209114917189 7.840219153995649 -0.6979434366325528 1.7895060550874278 -1.5480815251252114
Ni 4.688910591631137 7.429840644724167 9.448213098857595 0.7880444044857073 -0.05843706109097032 0.8844147502873413
Ni 6.6077117893177935 5.969687148648229 13.379704750696122 -1.808509078552492 0.6226170559854116 -1.4723951900354901
Ni 5.701483772683594 3.4139365337795473 3.9293884776202335 -0.5308592692551245 -0.5188352482110548 -0.572715286058962
Ni 4.258988041640062 5.49516136226034 3.3927166274862746 0.47634391181606356 -0.6860687966821539 0.06761461382518032
Ni 4.281984847438169 4.539575026047371 5.796473279389935 -1.0774122950964218 0.9690477530473893 -0.31688332242216394
Ni 2.185743966803835 8.647512706024404 12.093803270694034 1.7131026393260238 1.0739415629390021 0.4189931418107365
Ni 1.008874783022048 1.383126710029069 12.006395016491632 -1.1185437750294092 0.6359819073280918 -0.07540865594830239
Ni 6.362264220783368 5.730792881886987 5.352962129116705 0.7949948676616114 -2.4217904589592743 -1.8622991277897543
Ni 1.0526345251312252 1.4505969838720478 3.197212263031168 -0.6900876880335599 -1.8272614194593306 0.6574303070098548
P 2.4465968925476336 3.366849160359801 11.90429513101555 -0.11230398631275498 0.3856716448404713 -0.1364078213394941
Ni 8.14851631612704 2.9094898731005268 11.044078337396757 0.012070815121605016 -1.7766070876375726 1.7820513985815953
P 8.431967473445118 1.6954420564867314 -0.25517926801343854 -0.6312045405441066 -0.7463351976723791 0.279879234393989
Ni 8.172745921268618 2.1189225347205776 3.8507043643356784 0.11250684635218043 0.8174089736907535 -0.7509971219244228
P 5.307136289461217 1.3985227980704469 3.094962217033549 -0.5326742109766762 3.115624501409144 1.0518221053321435
P 5.266583679478659 7.224120730220655 4.415553558260717 -1.0469912596024031 0.7263752096106845 -0.18825488791777256
P 3.6406325754580373 3.8303353676644396 7.757640136319169 0.06511318755956529 -0.015700184344076187 0.4121203259503031
Ni 0.2042238707889562 3.62093559346651 13.095068993708153 -0.2902181544261518 -0.6583787869660532 0.16646093197113268
Ni 2.0616946915131935 5.331662507978667 4.562721065450215 0.8860563996558223 0.9821853188706118 -1.1851111785369977
Ni 0.6371301659579482 7.138853653825331 3.942887166972827 0.19737099128642782 1.1778730089173457 1.0553247191687631
Ni 7.376885887962945 3.4437369088867293 5.558804396637765 0.3999142708024145 1.4416450533368268 0.5186038489265391
Ni 3.609608670175382 6.068616978669677 7.765835007744445 1.6073511094198059 -0.5710085877805005 0.10122793100425148
Ni 7.714635831401667 4.552125479513973 3.5043544868302554 0.823302199246737 -0.8549283107924501 -0.10816605288498145
Ni 6.019527464962792 8.79008177897108 3.132894433223633 1.3233431975694243 -1.161405607389942 1.2960568510496455
Ni 8.378057992380306 8.910923922135101 7.53303614585738 0.37749399412568535 0.3869834216733593 -0.2663002101579736
Ni 8.63141216121533 2.9881202252107055 1.6706841087693807 -0.1178709388775712 0.6972628656257605 0.1324472940298493
Ni 5.895543073848121 4.787293540740818 1.6111825386525742 -1.6381894349569015 0.466699446747764 2.7345746716114
Ni 4.423895809457129 9.076424916703914 11.430638792585684 0.05201007451870397 -0.2962741308122446 -0.32905029680200104
Ni 4.305899300867883 0.7196257611224639 5.315518398080011 -0.5837028954187173 -1.550078500950582 -0.1915073334167992
Ni 5.044030955894387 4.727071756270722 9.539175152069669 -2.4944074110950525 -1.5735673281011415 -1.1784725901745576
Ni 8.685145528088217 5.712032085863056 5.747484799614207 0.6373152814275347 -0.6918861746948795 0.16693915715913185
Ni 5.900909922117814 0.27350070547435784 7.3800476011663845 -0.034264320499508734 0.13181454554185684 0.8671220246451647
Ni 0.6897206444169272 5.32409886689392 2.4459480507879126 0.15911091936396468 -0.8882521217555606 -0.7090827410788241
Ni 3.593443241190335 8.324834429747199 0.8188883542749676 -1.452164721921228 0.7915902128554367 -0.8903534843692795
Ni 8.804291413508968 5.950305318368567 12.971777936359587 -0.10909859200157984 -1.1752517692444144 1.982147244998354
Ni 3.929005660981998 2.8035618212420905 1.3265736622517945 0.49393797074874285 0.8923288629280954 1.2016917086034982
Ni 7.18323443019024 8.289157402130545 0.8279526736582687 -0.32312827489061124 -0.4393593641719143 0.10364322531396344
Ni 3.3678409613353746 2.4729027913203185 3.963712206709469 -0.041799709644605436 1.3097196932487185 1.278010792181212
Ni 2.0760433635710216 9.16730910890482 4.543755420813572 0.052523266709696634 -0.023281853346076034 0.787168172528341
Ni 5.370583744393925 2.2244520123551856 11.470266339602238 -0.36540903793669327 -0.7492048059106904 -1.0353709017546555
Ni 7.621925613105545 6.7567043956857065 3.2187695670394953 -0.6730417882948667 1.0413147780429162 -0.4901648768595558
Ni 6.457273192742503 5.159154022404868 7.657425599613474 0.21721219438207104 -0.32667871124603093 -0.12410637826432173
P 9.104148998179989 3.7626426337895564 7.430297614706371 0.7111301105261558 1.0028593022801955 -1.3822661971578776
Ni 3.1853588509978663 7.126303200358729 5.517236812759644 1.6045594056072818 0.43873715720688305 -0.029017470278272606
P 5.1642984106426555 0.6635185603257976 9.538904492364185 0.28362430325871796 -0.24313277090257482 0.028789413427866548
Ni 9.150559722336025 8.437649473426674 13.161163723020527 -1.0444648936361238 3.3381902467936446 0.6343600554539527
P 6.341417861960336 4.061360110797068 11.629996350176732 -0.026351493410335262 0.8418357392745502 0.17026693598078418
P 8.525085535133064 9.163388250842509 3.525260168328463 0.1490918445650658 -0.6993891679401438 0.013303916197757733
P 5.288857490173079 7.747652607803466 12.844891368745365 1.032638333314841 -0.1382361327974845 0.48950718867089893
Ni 3.738895025383771 1.6843839390674877 8.341862818272675 -0.06378392722518048 0.7361042639729903 -3.0394062050753528
