# total energy = -340853.98824058776 ev
CRYSTAL
PRIMVEC
9.40632516092158 0.00000000000000 0.00000000000000

0.00000000000000 9.40632516092158 0.00000000000000

0.00000000000000 0.00000000000000 13.76710767892317

PRIMCOORD
 96 1
Ni 0.9700178497578285 0.9336219567933589 2.8001886149867388 -0.08655490237310899 1.7915786213457405 -1.6032458290021807
Ni 5.858052213223702 5.755786648829698 13.62581507509387 0.9071055070166378 -0.07941906265927612 -0.09107927260602379
Ni 8.386754538098579 9.195416290393686 0.7387840458225007 -1.346364598165262 1.9950927494154282 0.36436028495720474
Ni 4.019661260658153 4.395556816610427 7.410710055972536 0.6328703582823036 -0.40914324559985016 1.2162930034564405
Ni 8.310102396427615 0.26158989567671165 10.500241928275473 -0.25002821247082746 -0.5666595667831854 0.3799455409899715
Ni 1.8368483152807227 0.06900197762372001 4.767975794876901 1.6718660012737399 -2.980958602461421 1.6572045426068231
Ni 1.9251360808622262 9.023948393655434 8.739827527927863 -0.16591740076283684 -0.6537009218744096 0.9054353184030663
Ni 7.8531901640473105 7.550278283052088 12.105101111730798 -0.530732256758957 0.1260205645678991 0.702828532638996
Ni 7.890495648630332 6.109473871675438 7.28205598768312 1.483122346645007 -0.4554927793986671 0.46529408175980513
Ni 6.138689916838037 1.816859874852351 9.567327327115155 0.363077047369407 -0.7044215881577288 0.29700046745530784
Ni 6.3475761740582 4.889529969126159 2.516737479592579 1.0496518371537018 -0.020640044847854776 -0.7629437527633377
Ni 7.629780541170016 2.154358812532337 6.071913475687424 0.8774105510553663 1.1333936955580481 0.8079647975587182
Ni 0.42675179219699605 3.636504021877313 11.295305897284342 -0.003445792456755356 0.11507023620398248 -1.339756605930441
Ni 2.2789267732819485 3.029090590977505 8.129256393756618 0.528534991997322 -0.4106931065854733 -0.14920111644942047
Ni 7.647473838320965 8.397477748493094 8.235799954718537 1.879002556587364 -0.9690734640790021 0.9275807441518542
Ni 5.528332306242192 9.129713110915016 8.661865085197288 -1.9247167707950272 -0.24446820188454674 0.5564204055536804
Ni 6.214297956444272 7.659504527877618 6.332593779745584 -1.7015820402809338 0.3492663667385598 1.1497939912929425
Ni 1.8217887891038647 5.4391979714190155 8.08747349851764 1.631558302793629 -1.0135322086130094 -0.2508478801586454
Ni 7.88805000415439 4.626792501810737 11.784217506367366 -1.2529782746926164 1.013799603341783 0.33791186095768905
Ni 5.716562273965553 3.3502037106686804 11.339828854968866 0.22539241620001832 0.4990336401040954 0.9579531857961243
Ni 4.841745838596218 1.1987420462078435 5.928887483571886 2.1964155262607528 0.44105346404488555 1.9268399877856168
Ni 7.016252999080353 4.081282095126983 9.271141909061265 0.5754511969328864 -1.395969405676583 -0.21500567364905554
Ni 5.118254165576174 8.786015405121008 2.6369926403721156 0.7035813516446205 -0.2745058858972175 0.9483539721434634
Ni 1.1728558400624889 2.0674067450876943 5.15868631255844 -0.27426908729606314 2.1396388835913407 -0.29106121915273747
P 4.325150474678023 8.041815197416785 12.74740542360988 1.7585260617661456 -1.1484580460903382 4.517141319266518
P 5.8971166805644195 5.65306017451523 7.238277070298778 -1.143099352881586 -0.9162100404210672 -0.2430618084553233
P 9.070631984171202 5.02268590451629 9.674806817405369 0.7479195114403635 0.6242188532548927 -0.011698262273534692
P 8.870756986212395 5.130219010858475 5.496778789340087 -0.4592872134440929 1.108798008496555 -1.368044911352173
P 3.859913644754608 4.182644652329867 12.151950253564937 -0.43757861812240767 0.1690394913315863 0.14692209060725664
P 7.120710237177796 0.5516339241985169 12.835817352680163 0.012603804806939586 0.4023259655677006 -0.2526129424788682
P 1.6296457902189962 9.568113695877422 10.877212627164672 -0.4622408967557781 0.8771585829455603 0.28387575714789176
P 2.9895275884166908 7.126805535717836 9.391053738981679 -2.0447893453096073 -1.327369802230314 -2.3081073329108053
Ni 0.741997246410892 3.8704111033513433 1.2678766530127588 -1.506275901943335 0.18854516546468175 1.511438934201513
Ni 0.6353953662345463 7.693649487291729 11.220674234203502 0.34723288124829876 -1.2496073013378544 -2.559859470051275
Ni 2.764424827056051 2.4006258049347817 1.2118507005988923 -0.6559442093826316 -0.42088547373744284 -0.152049384531493
Ni 3.294057357295998 6.2824279677490695 3.4247196759531584 -0.7963788924933316 0.3874061110330747 -0.4002503139855946
Ni 5.668392484114404 2.931725721860294 7.603229307853703 0.6221959092875929 -0.7013154384285792 -0.8087160739024459
Ni 7.00054443648488 5.883298789275347 5.007551127740173 -0.1927247507636681 -0.12050220585283118 -0.7144409200669437
Ni 1.1972934721720934 6.69699292539595 5.171710310025321 0.6842047468902217 -2.8896008793830297 -2.802652341115928
Ni 3.8347329129773136 -0.039720088186769156 0.6904938550125366 -0.5497702472270145 0.5102544485205792 -0.5909189535511823
Ni 2.9053974184442883 0.7373599282315099 6.972819293820115 -1.024934279802364 0.18772626910781215 0.5249143645255991
Ni 2.6861453911760944 8.523005154383268 2.844944849528967 0.33977462519804064 -0.20366170939114603 -1.182600753410318
Ni 1.81712325194976 4.226628627597193 3.6276874735415423 -0.3746495826983548 0.2257639406068241 -0.11643832019610269
Ni 6.285936526939556 8.401418998629325 0.28851832262181376 -1.3033284450103941 -0.5903301709272478 0.06487278941398505
Ni 2.9712134738218485 5.489719342497032 0.17411671783219482 -0.4228356554852782 1.3248202963355828 -0.390006010549767
Ni 4.442748348671199 3.9524624755191953 0.7142128438992102 1.3236180484973656 -0.37450174426658084 0.06840934181233378
Ni 0.6823357494202887 1.8125799970194527 9.190810953718989 -1.4367494158074223 -1.44509033157295 0.8390005838186003
Ni 8.549041861727142 7.877298574785154 5.8129959169169245 1.1435737214148434 -0.8674071599857512 -0.09452660772467592
Ni 0.6364140712220253 6.290197592122639 13.020668568496761 -3.69656937446675 -4.665197780588533 -0.1531827268049878
Ni 0.22500775747907412 0.49353669904002556 6.8202383568635705 -0.36077282471626254 -0.018576734560922847 0.5053102171414265
Ni 5.173234134660331 1.9340909021741366 13.542758166793408 -0.5219917915621656 -1.8888323981935924 -0.2536508968250793
Ni 0.2771517196036283 9.41065181692639 12.639704884684342 0.8911132453534395 -0.6029815411426712 0.048297144443491015
Ni 7.963893201883313 2.5919222345779778 3.8318131897260352 0.23096065431641513 0.12759613658513508 -0.8271843079099626
Ni 1.0363324403554846 4.129611792501558 6.067975988081158 1.79458115561749 -0.4734802171150233 1.921274063662065
Ni 4.340774380349329 1.3435336055085132 11.290184153372225 0.5280205142547487 -0.5951098517040784 -0.44783629129467384
Ni 7.007015988021219 0.8240890657758458 2.10266447273836 0.12355307686401301 -0.7082229641816898 0.18232489558658277
P 6.942846039502466 0.6421227698083682 7.25797767718498 -1.2534899242217121 -0.12932828878489339 0.08251261398293532
P 8.065048819938234 2.387419324764695 10.658232442686304 -0.14995753499947076 0.7055569873137525 -0.012866571550023
P 1.2506931786717945 7.810570105891569 6.745937796419473 0.04361079471141522 2.70104362973349 2.740639903968874
P 7.598382228628885 7.858156703598455 2.9430772747586276 -0.9547742738475103 -0.12618305828769236 -0.3754934187558888
P 3.2428587308246444 2.714608930346096 5.973300387254992 -0.3482993748396001 1.1348903347082324 -0.0907321736792502
P 1.6029694527814145 0.34123701119821426 0.8543097064385621 0.6445269686846254 0.15767367269680585 -0.7298099463238463
P 9.036797433479038 0.6538675070878339 4.414120198815318 -0.7403057036488476 0.022702583803838317 1.747076168057991
P 1.878160894274326 6.357716192308452 1.785594191492415 -0.7921679397357776 -0.3339371925806571 0.6533643644705974
Ni 8.915371185248521 5.832260070327421 2.6888261937747235 -0.06981290702807977 0.2512392020597931 -0.02497801010157634
Ni 2.1939218150931517 7.5837553933977695 13.023697405116968 3.699563938318699 3.160767930715002 -0.30773328049177967
Ni 8.773749557441667 2.022613825878327 12.888283951749044 -0.5454657063143896 1.6015159907952676 0.31566410530308214
Ni 1.7650122119623821 3.8354383873453735 13.12616614612897 0.9837457213791961 -1.4895953559638604 -1.9757914779836552
Ni 3.6783809803653646 8.312472790304298 10.925796295311748 -0.48001621846132814 1.6038382111705412 -1.9570725614179134
Ni 5.13120667497376 6.011789187511373 11.31935692944025 0.20591219598821958 0.3735419514564728 1.0068807647347626
Ni 7.0572175440523806 9.364447948980903 5.044074946723383 -0.7775080237307577 1.0428145025168944 -1.4248711763125979
Ni 3.158549840679 2.09975509644448 3.432098937843068 -0.5055387882124648 -1.8479400308546046 1.6794654108875529
Ni 4.290093101747885 3.967710128194202 3.1792794995100806 -0.8636438362885771 -0.15870468506448152 -1.1390290394669547
Ni 2.247584898690262 2.2789079606321336 10.871003512093251 1.1204057679388124 1.4925001883154811 -1.783454449576709
Ni 0.39695819868507887 6.9633800467754705 8.618773770163681 -1.6971283753849546 1.5364796792202249 1.255934786217779
Ni 0.24156382994871023 8.116680137355331 3.4243067382897205 -0.024120804307603622 0.14662744218497328 -0.18137590140975215
Ni 0.5118724481821548 7.860348377301895 0.8255555118289203 2.0833088415410446 -2.0710644769560527 2.2023694298513425
Ni 3.438190473853145 7.6464203299313285 7.070441896239791 0.12105267903966248 -0.4705378466572477 0.3291649680029944
Ni 4.101336379829706 4.41989097914605 9.811046146100168 -0.27589505293526034 -4.617124322120074 0.5043486245591056
Ni 6.831136524901364 3.3810470500402707 0.004235668105833271 1.4138336875515134 1.4346807062038518 0.8420378279830272
Ni 3.353552362335739 5.410395804552346 5.724831374191709 -0.9057363945832531 0.8153893721575635 -2.4064538286022037
Ni 4.824391169141937 6.176540968265693 9.043723310508406 1.8029930338302693 3.147631907553676 -2.0905688655375676
Ni 4.463874954413375 7.082351244205138 1.1530987952268412 -0.9456949372540616 -0.29278874336680544 0.30477805451819767
Ni 2.3653708991815883 5.465601525434281 10.691205374016945 -1.7056788360581272 0.6972757211415669 1.2273130087160282
Ni 7.274334335566579 6.234389866446627 9.69475575126913 -0.0010839770927981332 2.653742787764997 0.9241817457726342
Ni 5.633457393408064 3.369844117075475 5.097877243929125 -0.05374916869699775 1.6458261255665525 1.05291945216138
Ni 5.678212687317801 1.4784955552808776 3.848264851989198 -0.8290951517794302 -0.7220390441291757 1.035875609305216
Ni 2.3705725968554185 1.348866991731048 12.819861403739623 0.3348383642386879 -0.7307576549490964 1.3103619548184078
P 8.211364203873913 2.5808133648622573 1.6579174403608852 1.4291343224643258 0.8603811063769053 -1.1738296920859075
P 4.161978956508158 9.216937961781975 4.608979744333463 -0.9380983558537264 -1.350721075361745 -1.5500155089231307
P 3.747498655785446 1.4444916907403775 9.043282153870246 0.4038714556779496 0.305320557285229 0.08030480769833911
P 9.042290727225 2.896527254056545 7.734195450805374 0.3449489703101285 0.41682004541881756 -1.3174283747468858
P 7.879349153614982 5.691296885264091 0.7023166647887343 0.12260665379034369 -0.6331094708763032 -0.7381912284090061
P 6.1309673240890055 8.026830921839188 10.843840867657955 0.556611438518564 -0.2714408738186486 -1.6747618347642963
P 5.041573804930488 5.553945728965229 4.291482415936719 0.7226663933005296 0.2925933395265477 0.5344220469057183
P 5.6549414394967235 2.4598856518518364 2.1216492582991044 -1.5227774991427838 2.692836925552982 -2.709140547809012
