# total energy = -340896.93652843335 ev
CRYSTAL
PRIMVEC
8.98588989116680 0.00000000000000 0.00000000000000

0.00000000000000 8.98588989116680 0.00000000000000

0.00000000000000 0.00000000000000 13.15175816339875

PRIMCOORD
 96 1
Ni 6.436494098597525 2.0837739550658667 11.436755440909474 -0.1577968285382315 -1.0511019393366672 0.04208073122013398
Ni 4.951575790773112 0.30012692585581746 5.983589971060619 -1.349449664848489 -0.6200588083399322 -0.7289576256258801
Ni 2.7796143121188113 1.5056397699596211 4.933855615868242 0.8785588057271966 0.02524489060971781 -0.5966136899431144
Ni 3.3893428861528063 4.295471038907457 4.940602222013565 -0.05090629993156394 -0.29160809279514294 -0.14172049180165916
Ni 5.01007393409497 4.746598656008921 2.567446668247684 -0.6153161514486242 -0.9724860893049767 -0.20857225931888596
Ni 7.315844299416825 6.0268453493261225 2.577441673595902 -0.18861535658098483 -0.12910588836144218 -0.16002263254495666
Ni 5.219220521777954 4.449075841049367 11.41083384428266 -1.1094811506065085 -0.041565482146612286 0.43911510937159215
Ni 5.531893547127777 7.864495779724451 12.399464148078934 0.3848283230035695 -0.5496450345030598 -0.581768911620798
Ni 1.7556991144082612 6.679418646456679 0.36742854552366927 -0.4138841027189452 -0.9457039361151262 -0.932333171235175
Ni 2.7453870574470827 1.6133176887654301 0.3872505200787668 -0.19338758115864757 0.18216985806595723 -0.034738174812133725
Ni 0.6619455803079297 9.00197465413264 4.643675171555123 -0.16122256639032878 0.228273080181923 0.2730537268317233
Ni 8.589378532970366 2.3267883618241325 1.4489423989759667 -0.2359480802286775 0.22132827343297365 -0.1246509379138821
Ni 6.895295665683147 0.76528870582058 4.672675334065511 -0.09982693689166679 -0.9863695321552884 -0.024722442447344523
Ni 0.9720755988128857 7.419559440771799 2.4887069093118765 -1.1028263642941523 0.1780229257771192 0.7777566494064541
Ni 7.438169218777876 3.6331929806728134 3.7584041678733393 1.2732282831909039 0.2814573775143862 0.09089363895777895
Ni 7.437144827328001 3.974297361701647 12.586298771112428 0.6982306288556684 -0.6693309151021828 0.5868028745002798
Ni 7.824301894151691 8.559033182740274 6.973982407868478 0.09093503371867566 0.8664183137099208 -0.32436291862866073
Ni 6.866981126572981 0.4636135111330642 0.4129852101954285 -0.2321150796358325 1.3880030996416548 -0.3606908065254176
Ni 1.8446773963088803 6.461510816110283 9.095400951539299 -0.19146465310432187 -0.2860712221373138 0.35545629759935554
Ni 9.289612990189884 4.8471238064454205 1.3783438562996984 -0.6147908750727734 -0.5222489018782942 0.3697698860085503
Ni 6.319228235256475 1.9247057318579528 6.873556102221 0.8874841332412845 0.3889248616704463 0.6631615530666772
Ni 2.89098543167812 4.5427717151533615 0.5141492574046147 0.8153842299512409 -0.6536425578326486 -0.17886470495212423
Ni 5.87962951491107 5.5386149927813495 4.7281883647588705 0.7573857990595859 -0.03854957813842393 0.8316248601798194
Ni 5.233750705764351 2.7707182811067312 9.1987997895694 0.10443178265352983 0.10454542541325866 0.21546924354903535
P 0.032735596946471025 5.491762562784396 12.505730383579696 0.7865986731781163 0.6014705038147835 -1.2688124135113956
P 3.8704474319980053 6.0295141586297465 12.3339821711181 0.7939975367453487 0.5646787889077307 0.0784394723548262
P 2.400167138838923 8.519333521112628 1.290766474636234 0.9560796229224954 0.12349291305003893 0.29836289502047325
P 6.33849398322607 7.520965208419596 5.686768055514138 -0.12480854653766892 0.4544573961556173 0.25452918566497457
P 4.76280920140871 1.157193916873344 12.653108862602139 0.7215803593252025 -0.48721530731292867 -0.4778212676925384
P 4.007014986868295 5.996176507059226 8.00216141034189 -0.12414957279743134 0.9692308155924727 1.0902708962266447
P 4.735977334133892 0.9368688821408371 3.8316598381963467 0.009938085049318368 0.4847005113108749 -0.3010743804143654
P 0.23041618910277523 5.559902565980962 3.5521977633692967 0.2283173031562971 -0.29040378807439665 0.28612084442832664
Ni 1.6555423854581195 1.0541886608213547 2.60619202836676 -1.0522134272332908 0.6379408308266755 -0.2422485685254086
Ni 1.7819828423984967 6.495234860946985 4.877421531458985 0.5272329853564468 -0.3849864458479886 -0.6975587995996244
Ni 5.817501072065092 5.4834685863963655 9.26604479813081 0.28693511279950584 0.3595026997545873 -0.6530288355080496
Ni 8.631908749920036 2.4429220030363727 10.155380119819426 0.19570723043075974 -0.8680612486299825 0.10029539188765307
Ni 2.2508216485149184 5.20523847707614 6.995946618578404 -0.30480556532202346 -0.34410590558354287 -0.38969876372199336
Ni 0.523863902987604 0.1167599577390504 9.152861224576414 0.4603326239894717 -0.3962507059078982 -0.3431132026529704
Ni 1.6944602746634903 1.245686960718759 11.419461197186395 -1.1217098314622165 -0.9815849662824516 -1.0768489663937841
Ni 3.9863743977422885 6.774731980744689 1.4165491644351118 0.23433522721560285 0.8066396509893914 0.21142849782075845
Ni 5.6252928868647025 7.808971965963198 7.886281171225144 -0.5451692581198934 -0.30137957035961 0.8307419433542338
Ni 5.371243807295494 2.881568219051191 4.781742471451591 -1.1235129461092264 -0.5273245166289886 -0.39023715272396664
Ni 0.971284840500701 7.506659671680978 6.878303347861084 -1.3107216521506715 -0.5020354030448966 1.1355727054872378
Ni 5.0402755100864844 4.305481320268525 7.0105181376583925 -0.12021835606382521 0.777046767823623 0.2646372206332539
Ni 8.125347177956431 7.088654044792168 8.952704121160586 0.2699146669821093 0.7636582623318591 1.2880396371721237
Ni 4.713755228383515 0.30376081973590335 10.475677672758897 0.13790446048967864 0.8579336732776772 -0.4003955813142072
Ni 8.2397375565259 7.205812077454284 4.746272468205144 -0.5448728099253971 -0.6665435821650327 -0.05167274578394326
Ni 7.094989097179558 5.958094305615596 7.166524868173563 -0.37424926193614255 -0.346723545712048 -1.7954409325146239
Ni 2.303191414917343 5.389727782842815 2.651446767137503 0.17092590972102176 -1.0533136022760052 0.7581105930407525
Ni 2.069818868033786 5.201787895350242 11.432928350396297 0.6115674830394693 -0.10124592872638047 -0.5579566396925487
Ni 1.0882182259150373 3.141521028292053 3.915804609913736 -0.13659551187026797 0.7562043771569751 -1.0123207048034113
Ni 3.604842498003004 2.6126205340092263 2.851603870553332 0.03848710033160468 0.7116417600552517 -0.4787622914495691
Ni 1.1311887514703556 3.27376637011506 8.12044807077685 -0.4852579264762417 0.33906782893900317 0.5726322394268525
Ni 3.5321017191719073 2.5853393722388485 7.143272080850372 -0.017883822258956295 0.19176752905672134 -0.2515657321612765
Ni 4.098958612439608 6.975737352168133 5.987232850830616 -0.27141002058071323 -0.801410027159336 -0.43692478658849265
Ni 0.7633333761759047 7.26890201052076 11.218278803731698 -0.014443429118839642 -0.4730495573355079 -0.1298427665274667
P 0.14168052622975807 5.573597062205617 7.851994609680001 1.3065968313490208 -0.796045677523629 0.172080077930123
P 8.482877765742924 1.5653330366396667 7.903838701522621 -0.46782816103556846 0.40881491572615397 0.020679125615906322
P 1.7870958137579644 3.217541656940734 10.394452416673651 -0.24907844696304843 0.2767000653350589 -0.4730323309443273
P 3.9537106879151067 6.098714496835833 3.866170148400278 -0.9858871932022312 0.9271513699239193 -0.2531148218159512
P 6.910014553357679 3.8541739853688375 10.227938485085325 0.39320317733082605 0.3448317280059739 0.1925447735423781
P 6.463101318624563 7.748443011521411 10.182840999388027 -1.5192190923675641 0.6039760438454566 -0.3238985773977325
P 2.4466421614596063 8.492465710278164 5.775936838280875 1.0433690894687837 0.17741717387232026 0.2927185522505023
P 6.816489411161996 3.907073919276022 1.6831748955240249 -0.1467804228230698 0.08884087019380829 -1.3137622387492083
Ni 4.8881623656698325 3.109423429529277 0.5476585394724394 0.7482360142395178 -0.10181208564249562 0.01954372645988247
Ni 1.5004369397010409 1.1070885947285396 6.966012822106243 -0.7492575135254967 -0.46914919383983716 0.47148478395154936
Ni 6.70498350325402 0.8034104451798193 9.01274244601322 0.816863899820561 -0.5961835443842313 0.9653353371928084
Ni 2.7477323747139035 1.5186872821106712 9.232955157121838 0.2031526309652114 -0.18657210089871093 -0.5460637449097047
Ni 6.251510568885735 1.86186740370899 2.424026473731119 0.4648066006004253 0.4358999448684041 0.2836451291943244
Ni 4.169893227398554 7.034550001636883 10.150658933260086 -0.3930833639235101 -1.1169733452184956 0.2373434179143074
Ni 8.070991529883635 7.256896861599408 0.2835955841861983 0.153177070378033 -0.4514085820269645 0.31269859491685503
Ni 7.625192545499508 3.7907695461554693 8.118133305535727 0.38749918496751323 -0.5571205169444986 0.08196831144369109
Ni 3.2355493803227624 8.240519328948174 12.307507043672755 -0.8700962767821402 0.3822150537504385 -0.08513591053839531
Ni 0.03568207024835076 4.862732297221161 10.166874870193823 -0.3321392201399699 0.048756857688728936 -0.4369083315282604
Ni 8.559446533676187 2.298995004328817 5.7215281734576005 0.28076369388147127 -0.0327702524524855 0.4310822117647866
Ni 3.705987674843376 2.472099187578012 11.30248917244544 0.7052749372969596 1.4175610158044296 0.01779974718558225
Ni 0.9913503326723918 3.251768911612463 12.509873777417745 -0.8474649125358695 0.43550039543714025 0.8534630391008332
Ni 3.0582937159345964 8.27675942296001 8.009407631966274 0.9375316847169789 0.06846179231682402 -0.09906229081150036
Ni 5.44209754924524 7.775337780025608 3.4614771174148973 0.5577712631546201 0.1260226214504281 0.5094484076795163
Ni 3.004908543972207 8.366160041686456 3.61903481252874 1.010570297771208 -0.8762874931945166 -0.15327117275373606
Ni 3.3745790690287185 4.2445120572210895 9.247895097688186 -0.11213017973905205 0.3886600380448339 0.13839399853158746
Ni 7.1859532607505505 6.16233459740707 11.394406738936011 0.1874838140797029 -0.5466131896552715 -0.3819628285303164
Ni 0.7520066619428477 -0.09037828354878295 -0.05168414300220077 -0.3972493223757417 -0.10033781508981429 0.9234101577139322
Ni 4.478935953224257 0.4846773356738885 1.5998586228564473 0.06364328788225813 -1.4063474064767971 0.15778602990495405
Ni 5.886144285096685 5.586042519732619 0.3883342184020565 0.00750273613494837 0.1589024028975844 0.05196508021338147
Ni 8.157318974260452 8.907416134597172 11.068546021552523 -1.0871084393382633 0.46469141517879964 0.42919425071345435
Ni -0.0570127757195374 4.818575634197566 5.635146813741316 0.043924726407408216 -0.10764951825987913 0.4965029032624417
Ni 7.912839867446661 8.657698253965156 2.4845383549820745 -0.28290979369019664 -0.21312748278973614 0.14425071442268061
P 8.523790522508579 1.4676653991949253 3.4798101300117104 -0.04557768862979892 0.9722595751164677 0.3670424597750582
P 1.7248954837926962 3.0892321348988294 1.662105679449254 0.517633771703786 0.40115122853330915 0.27078344274030786
P 4.65595798447473 0.9737829178960122 8.049928603931802 0.08396657282064249 -0.4520148481523957 1.0037972407134326
P 8.464384804305691 1.5372790883369267 12.484214568776338 -0.1900376908498082 1.2396584176552585 -0.7224401362223365
P 6.170197251079362 7.605046180318616 1.3596945403780114 0.07789542692589811 -0.2994571565259165 0.6804565927016991
P 1.7613063097128445 3.131052466545515 5.9969915272741705 -0.26911325412673653 0.853711921886846 -0.22443879403749736
P 6.8576178292855205 3.8289595782780337 6.014338787747726 0.8161517042448848 1.2048960744734087 -0.9242475660135631
P 2.381862881089826 8.462515739204164 10.203844618466448 0.20667504229617306 -0.09691104879645246 -0.049102156843289634
