# total energy = -340859.05145788554 ev
CRYSTAL
PRIMVEC
9.41663652151866 0.00000000000000 0.00000000000000

0.00000000000000 9.41663652151866 0.00000000000000

0.00000000000000 0.00000000000000 13.78219939744848

PRIMCOORD
 96 1
Ni 2.5733501603903153 7.079351953439755 7.750750599340073 2.2995399029567687 -0.4875004426535153 -0.1314353078255672
Ni 2.38852042006039 0.8489446179326484 1.216742429565435 -0.1539946811833219 0.8517810234127202 0.3555781678892005
Ni 6.022692343601686 4.461517602438141 9.440502919644993 -2.444789490957609 0.18919025524784835 2.333907067582729
Ni 4.24313638642065 5.142604083922901 3.6642731436319136 -1.8448716763419262 -0.9942396789319845 -0.6263495264446503
Ni 7.664416992997458 0.38600770320859723 5.72487709077183 -1.1523278134583896 2.5989430663162985 -0.8048905295087687
Ni 3.4639097198065607 5.738573588494974 5.821256364884159 0.41989225658623813 0.9893453269541607 -0.000901171658030706
Ni 4.103195752069569 4.327942614330336 7.656865792224554 1.286409300657552 0.03850844048784336 0.3885551370358534
Ni 0.3277008319456634 9.40020442393774 6.752919542424519 1.2779002347452768 1.4943598672320395 -0.5061244855126057
Ni 7.682280352351742 4.011383546637697 1.939376052751319 1.6672593557396642 -0.5315416400341297 -0.6794134961491654
Ni 7.638088077470535 5.431826655987979 13.258420728660294 -0.7850891785121253 -0.7405389027055762 -0.6076825461627664
Ni 0.7664143910540276 6.81817212473633 13.630953225102429 -0.147940504569442 -0.019332124669708642 0.21407827673877972
Ni 0.9262420199334752 8.235083995416154 2.0404824783638325 2.3562864637191936 0.25505317648924464 -0.7292371045395118
Ni 6.0683912803156215 6.5753735703921885 6.100704468309412 -0.7335683849250141 0.15811693088181156 0.30225811630982136
Ni 8.896310790618266 0.40208849328203394 12.971543840736047 1.3870052545047598 -0.4276564739126893 0.4693744224767658
Ni 1.746465896679743 0.5426026007931974 10.38177200803264 -0.32549034736488464 -0.07729507433773784 0.04746256435733761
Ni 1.3296290673825917 2.000554998132891 13.056566651284186 -0.28429150452907165 -1.5750801652012423 -0.13264526897326834
Ni 8.81998895215413 6.9025075208232884 2.974350090498203 -1.7859455914296791 -2.2723209193398155 0.647063361953234
Ni 1.2725171672857403 3.0166759880341183 3.174867005497765 0.2903999314196547 -0.7295404947125436 -0.01066313614080099
Ni 6.1579246597254915 0.9831815955832083 12.475619506848059 2.155820635557526 0.8003399340236087 0.8764229903311165
Ni 0.4072328017771551 8.400280048738342 8.85285772169874 0.03595096417331228 0.2645361762790154 1.4511403944217716
Ni 8.291018815956187 1.9201745893568445 3.8681254312636777 1.0800502469399014 1.2135311244405873 -0.3780043581032006
Ni 5.740268583056794 3.446206443272005 2.952339644449336 -0.9929338156363674 -1.8978328019199895 0.3975547694313024
Ni 2.509929113868915 3.584659249063267 5.245105113394333 -0.06707159683751675 -0.26352496140568166 -0.09852261625794645
Ni 9.344147187123799 3.817947000588312 13.528937152408407 -1.0007026609485088 -0.7038258635552589 0.7873244956005473
P 4.9936988116670875 1.20930328676634 3.076490462793426 2.157741763839639 1.765354654652205 -0.4107807812032732
P 2.1418987113157004 4.1281121721283105 12.41705838640085 0.06350650519407772 -0.5017806067216133 1.0357501394709452
P 7.097544895069946 5.7280834554846045 8.22948863003486 1.3387639029998686 2.1353356282302967 -0.35387506915516476
P 5.886377114285606 4.670001933541899 5.113264669721456 -0.46927980588043056 -1.5671071742980947 0.5410498366348812
P 8.012747792087751 9.443662201175494 0.9222691410133002 -1.610812328495529 -0.2104514786194698 0.31150200350559254
P 8.709588306360976 5.7897059244431865 1.1922582331199572 0.31876536993622523 0.04656653490562949 0.046391185670029776
P 4.334600176303703 7.919899756645879 6.503502975980119 -0.5086212837925305 -1.3828477806929604 -0.5713238050280741
P 7.0415535747111875 8.007003643850476 4.602317034033877 0.48704690005586443 0.17303524275454069 -1.0163000011661336
Ni 5.216694179547307 6.911227326180202 8.490799349985004 -0.4929933474472864 -0.20398412572757127 0.19134303992479304
Ni 7.26817434762641 7.544458461202934 12.366519298549276 0.037921714746437914 0.7153500621447745 -0.36189639679774444
Ni 9.154891627660234 3.907838212183455 8.67051962337469 -0.8972543252541708 0.23771468521079703 -0.6160931388239649
Ni 3.7073862719754294 6.253136270917455 12.590273647327734 0.05059211112525481 1.6805583868414156 -1.5685629329080149
Ni 2.893600549573138 8.430149619572177 5.027415078492607 -1.4134359378924626 -0.7098358171947646 -0.36476317682257825
Ni 4.942896057994784 -0.08202926181923863 7.854117017701679 2.0490946575531805 1.0893046756586338 -1.065476205780468
Ni 7.706584691040938 0.2100324261368858 8.349504603311757 -1.8244548032484706 -2.8226629799098997 0.4898463171778725
Ni 7.351134914791003 2.5543568046614857 9.81940388732134 -0.45302709146699394 -0.11966042667782617 -0.05622488393099994
Ni 4.927584607119685 8.644010850091483 11.876080155396062 -0.5657985043344708 -0.9336457193990113 0.578949439894132
Ni 0.331703844102493 5.252110149252874 11.807582600162014 1.5056382683593361 0.05316038607306329 0.6184616390561413
Ni 6.610667123823846 5.643371393939464 3.3721869724210074 2.9508715532680534 1.3189129297122124 2.5215533753822252
Ni 4.486923687592519 1.8965105819465577 6.725589638442476 -0.7631363283901179 0.910387005981387 -0.37830774827623237
Ni 7.4421655393971475 7.673617046813554 9.846540750256063 1.6175303639456529 -2.8713511891442227 -0.8417277529417763
Ni 3.4386354675625457 4.852289182029096 10.757543827415141 -0.12473449876662389 -0.4320566598629139 -0.886885323315021
Ni 0.4506284292143076 2.9016235238324155 11.165455568680667 -0.9406625170364767 -0.0740444286109241 -1.0739719019563052
Ni 1.8968778307682854 3.418898197553807 0.912185806697767 2.126035176764977 -0.33407371815852144 -0.08661635173866374
Ni 6.676687162006702 1.7085733515866302 1.508213694415859 0.33989829526009846 -0.6489364106062308 0.4478368055153061
Ni 3.4993727726943993 1.713611252089815 12.471140012886629 1.1698341977732691 0.2932787956293465 1.100966171156962
Ni 0.29319827597618875 3.011063672707206 6.35533031804047 -1.3233959051842306 -0.905688314954137 0.6692987763126667
Ni 1.8902391020678269 7.542330301364205 11.40252315807857 0.3597194437510837 0.23367393948252013 0.06161083083326164
Ni 1.0816042798061747 5.142152085373082 2.101895897993123 0.2015834867058786 1.5107017989251725 0.701756639731056
Ni 4.7280272473748415 0.2634859629711442 0.3711783841199705 -0.3328329037728849 -0.008996804181971603 0.7626316208395575
Ni 8.018821522600938 5.2308285508655885 10.357488385943643 -1.2533986500594865 0.17307483774322452 -0.05038539443108742
Ni 4.047157348528536 8.933619504251197 9.75786616809085 -1.1259878900122802 0.6428914899637315 1.4264662887138595
P 2.1128013046711382 1.9604495434729585 6.777162672976761 0.9472103454573235 -0.2338932545821778 0.2342768631738417
P 3.2918395218725514 7.032683103171001 9.784024642497945 -0.15082348254419184 -2.344360915926201 0.8261651226168288
P 5.646676633335012 5.499343939367109 12.495479193130706 0.3785435184361223 0.14422397494980324 -0.3531549031596885
P 2.8962466244168663 7.053314953642921 2.9430925074509666 -1.0501729997644949 -1.0959049545839707 0.43809026765150355
P 6.276922694601652 9.232616544956098 10.003492538362291 -2.2675870041992563 2.3586274531475446 1.1004905170721242
P 1.6157629826905762 3.732895940130808 9.61841802382634 1.3670241833971424 0.4131066011229724 -1.1224693353360602
P 9.185128447315797 7.201636394438553 11.155490883984463 -1.4864778933808012 1.0602095580648903 0.6804424516343119
P 9.320615012623877 3.917254848638006 4.501376341222964 -1.9932322991679217 -1.8374784692016481 -0.8177995242609529
Ni 5.137020018505352 3.1325947827896408 0.3460237231589286 0.9018026067464856 -0.9932837427766184 -0.8536080493191298
Ni 6.001749744126764 3.4244351797890826 12.07950492773279 1.199074068474993 0.3464543512110614 -1.5470877937533745
Ni 6.194969707537695 8.722517348213074 2.1122739730296836 0.07926196825612156 -0.20168041729505912 -0.4088174868293153
Ni 2.477903133286987 0.026500298310397238 7.776192467712979 0.14168629612961403 0.6560455108471863 -0.1798846615762063
Ni 5.624406288119999 5.352962325681114 1.5511177734300843 -1.158768683987727 0.47031853155759 -3.693817008532593
Ni 8.118101120741269 7.874718734936945 6.575500694984325 0.2386215132957826 -3.3214917030920406 0.7650903667926953
Ni 8.075886339515517 5.297677253056445 6.029050456535798 1.1890447092634489 -0.24888021490931328 -0.08161298498680139
Ni 6.541539595610987 3.924628074981919 7.284181687935501 -0.060205722955618886 -2.178424746110287 -1.8076408170149256
Ni 9.543666880322824 1.6863971727361629 1.4291723313436495 -1.1026031925397528 -0.0660315856087766 0.011915006270031092
Ni 0.09179243049531703 1.4527045058435724 8.867412075002894 2.5443752583727473 0.8918238982672189 0.14404708305230673
Ni 3.2688535122869924 1.8017792192137756 9.194091201893238 -2.3321972839804737 1.2389081697527953 -1.4612959947985351
Ni 2.841300550704562 8.124118351435726 0.4324232459567243 0.22956248841730786 -0.9192223448848299 -0.8463886487525553
Ni 6.34919537939033 2.501906139609637 4.989762657629084 -0.8013362364986071 -0.6315542105740414 1.1388822294764451
Ni 3.859700366627791 8.965400652285306 2.746998586594107 -1.969886168242814 0.5607488577257053 -1.3649210210112104
Ni 8.342264151541853 0.6096499940132456 10.879682310548894 -0.357482584000765 -1.7220037984703958 -2.7605903789488715
Ni 1.9275478157007575 4.44161083297322 7.384129867264105 -1.5255625180870889 0.5597435563896425 1.2062019377690258
Ni 4.853099012764187 1.7317194439919166 10.771174408683102 1.9252500175906782 -0.2633233869178368 -1.7396127698014106
Ni 0.7816062506461546 5.651752200384015 4.675638732123593 2.0157716179210188 2.507805429668513 0.5607956518032406
Ni 4.888552649015572 0.17467389791369253 4.93371012913337 1.5884509300811933 0.4493470715122455 0.95748858745488
Ni 3.229793304273515 5.490002636004193 0.7399705925623578 -0.9928417701431933 0.13845364812492927 2.351884735107072
Ni 0.3879221053998075 8.30447518944974 4.465915171662417 1.0939172347299806 0.8640351581897249 1.901582241660093
Ni 5.00223028429491 7.283966046960692 3.7590534728742595 0.7462431521792051 0.4691653917897533 1.470801877406441
Ni 8.418190491274897 9.113675009898666 2.869784934315933 -1.2294192564257538 1.5788432317881003 1.6508248643327246
Ni 0.6571945914722732 6.117828621702014 9.552469552080538 2.052926629704761 -0.9522144835401343 -1.3413324350579932
P 1.1740568165169556 0.7940512773844892 3.2808804403667446 -0.17491086251069876 -0.776586797468069 -0.3286214367946986
P 0.6364723412903884 6.800195765744592 7.419785019535617 -3.0282674148497137 -0.7542184570751979 -1.6920424762216149
P 2.1609579834997117 9.478032924234606 12.372542179225606 0.12779436863887023 -0.46555427739972727 1.9431389820559566
P 7.950324909030534 2.0050749836310757 7.563781399207672 -0.1447245687353056 3.0369649426237113 -2.2932437855354117
P 4.969422722887254 7.32395850198317 0.6698703258037443 -0.3906421014718691 0.7771311000073132 -0.5066669882796371
P 5.082780192527138 2.6440220169817197 8.688767181496319 1.4293682928520026 0.6000234869556117 0.011164244146935611
P 3.9303063067640136 3.711859174291341 1.8085968640068704 -2.3702568098563566 0.9451282661173144 1.6721310820096686
P 8.007436809127386 2.2606236637346786 12.125702946178817 -0.8207444658218898 1.5533461159582604 0.7681209260889029
