# total energy = -340892.4805421462 ev
CRYSTAL
PRIMVEC
9.03350670168758 0.00000000000000 0.00000000000000
0.00000000000000 9.03350670168758 0.00000000000000
0.00000000000000 0.00000000000000 13.22145017877510
PRIMCOORD
 96 1
Ni 6.4651814939398315 1.6464650280337711 11.504248679375012 -0.6457189321101976 1.1702309189910556 -0.5756597133992667
Ni 4.716881743028967 0.527984989078914 5.988775119001904 -0.8686934828973425 -0.9984161789071774 -1.0498652387160887
Ni 2.697829724392367 1.5227240510116455 4.5652082594328816 -0.08341147164812086 0.2339953273776809 0.9871537186194806
Ni 3.8084813262989416 4.545561285354518 5.152928216000225 0.29575733907682616 0.6928102291710456 -0.49244030315729387
Ni 5.177590593089443 4.528280186723819 2.7203005727163956 -0.9383660076928162 0.20721523107035925 0.3346401321849527
Ni 7.23283084022295 6.310744660594069 2.816750422151899 1.1181881914622032 -1.9541579588742797 -0.21469045640148188
Ni 5.0787730615049025 4.533438319143123 11.334392553163205 0.19695858633935756 -0.5360163879760317 0.2249969805338125
Ni 5.742031202468436 7.8643181375460385 12.511511795223896 -1.3500160788749203 0.4953636474516759 0.8903396004122085
Ni 1.8091404196394383 6.366156191697421 0.5640982394688505 0.2697372608639806 0.2423341862606794 -1.6883089773211117
Ni 2.731172398227136 1.551992613250782 0.3393048412640488 -1.2380705043428484 -0.3638555774066443 -0.12340061044654878
Ni 0.6249922058879221 9.087527234977193 4.71379047698013 -0.3361377997764018 0.6268976856386365 -0.38435986800758315
Ni 8.60515603545701 2.1867410065517494 1.2500973306116434 0.06539292358351319 1.2008807826664287 0.9529855573782039
Ni 6.877579149292004 0.8069947854289697 4.752503570645506 -0.616117821414313 -0.6584052693286145 -0.2278719880887624
Ni 0.6699068020153865 7.355578131490042 2.3757752678356807 -0.049761387693843334 0.2634354870156689 0.8770027740939863
Ni 7.35031159698837 4.033171742525494 3.644637902255768 1.2241976030154982 -0.5915869261524843 0.5911277271278788
Ni 7.598371695471913 3.609491237100272 12.616939143780774 0.2834965194316021 0.5050754754228012 -0.3572838377263976
Ni 7.8966671256257746 8.992034033918578 6.664681976276313 1.1639548561743567 0.016907060167983785 1.5978164304564935
Ni 6.782853796316825 0.7925998922412958 0.47283362297324316 -0.12248169817670518 -0.7404753964574926 0.5079435409992155
Ni 1.8904058473873606 6.3935277174951315 9.426312649596564 0.1386868471816579 0.79587161383961 -0.7181952449030534
Ni 0.1542679067674069 4.845284009592881 1.1390764346046194 -0.9739642165124 -0.9184839240569085 1.2275199825205116
Ni 6.369859929511633 2.046269974817624 7.020867731816989 0.6563553287781212 0.09071597572933408 0.6520615864987738
Ni 3.1820527928196545 4.228024485580484 0.542513578168174 -0.008805256996455802 0.6437934329527105 0.18964019830107337
Ni 6.251891363375559 5.902439183851257 5.063894875700008 -0.8364055693979143 -1.0076443823736647 -0.8968879430536876
Ni 5.1436426742947905 2.750766074615002 9.622717349130777 1.29873362655086 0.05533991022288534 -0.9570815818244486
P 0.32356305220296283 5.551568743749318 12.306578561859448 -0.9952570644529053 -0.9175704111037036 0.18872334291375883
P 3.987064723491991 5.9379318323196415 12.510334729279528 0.3680086803430694 0.5999381263306571 0.735571788508288
P 2.273318136335663 8.419291631731634 1.108081569203786 0.7395698539240876 0.3852484412601236 0.9133023798559691
P 6.300627132906467 7.925673716165857 5.764433396140298 -0.25586281687473356 -0.3293943104049811 0.1771469509300691
P 4.706646779752133 1.0243635443423067 12.771021863657472 0.56878046978093 -1.5303434844155 -2.265590799704834
P 4.279714211855897 6.1155667112919785 8.173805179353625 -0.24967854244089255 1.5425251140833565 -0.1418765577635492
P 4.612174364969144 0.9945891057187904 3.6621041877771785 0.32403895963033874 -1.0339359690803418 1.2919037481132203
P 0.27389592811438446 5.520773518850177 3.4930809508982263 -1.0681817776370894 0.22378187717978879 0.40213390416155265
Ni 1.369362204982691 1.0329905433973605 2.456029846165529 0.08960474494302632 0.23256759379221884 0.16527848162725728
Ni 1.693755436466449 6.492760790395412 4.881134384933077 0.8586306993447019 0.5471657197246318 0.14462429571201543
Ni 6.179930447697486 5.532345441142872 9.317447148327275 0.43183014567440475 0.6522364215137412 0.3722787684733331
Ni 8.576203645958111 2.2641129928413175 10.216002849276988 0.9806089755224272 0.09308190485834937 -0.4884406950795976
Ni 2.5470875953539522 5.2859204074017025 7.1349157559741165 -1.3588588739775307 0.25971715762381725 -0.6464810070872027
Ni 0.6701705804158133 -0.004724524089835853 9.083308587271738 -0.000899886106450063 -0.27850755085744294 0.01407730402867253
Ni 1.4103381921174816 1.0484197731209546 11.297200702053715 0.8448884100579449 -0.6719092173523203 -0.04439986627161386
Ni 3.96286395860352 6.68221149634577 1.4302968221826506 0.8687629026826974 0.854104272229258 0.40982638770980384
Ni 5.590792230552505 7.99413866468759 7.904655455745549 -0.05488482496333773 -0.5550875456748698 0.9918084437826725
Ni 5.318865606934458 2.708028553641745 4.9115312321795175 -0.6854216500164583 0.5520541581651847 -0.5502371595611041
Ni 0.7490267718831253 7.501857708137675 6.998140331898026 0.11246905113570953 -0.09657551983390464 0.1579176703868119
Ni 5.143678808322246 4.345893683141054 7.506677084049583 1.6767991769092991 -0.14933172849001378 -1.375666946673805
Ni 8.120219319987473 7.21145756298289 9.38048657262653 -0.01176793916920554 -0.2965813776400183 -0.16223378126366256
Ni 4.564585850809957 0.4692355771893395 10.413889043936885 -0.19211179977001752 -1.2950669763325502 -0.1431906485892824
Ni 8.174022886869045 7.394991321937373 4.660151319923482 -0.06949820400113836 -0.6524138276318698 0.6559688919729799
Ni 7.47757564168743 6.433383549778795 7.188608210721263 -0.02424884524503566 -0.2610029663147763 -0.6106994786122193
Ni 2.3760200758716934 5.064202014933382 3.0162888452172085 0.48256135348068513 -0.2956308408012909 -1.4360631883736752
Ni 2.30059029355787 5.023316362867231 11.467611485586968 0.0559708589386649 0.7354782003532172 -0.2160847656458472
Ni 0.8995249962362137 3.343228622285909 3.880879463709229 -0.1318626251709729 -0.4609358047911094 -0.21541216505885485
Ni 3.717712649330164 2.5408183415903847 2.5949082706395434 -0.7486206512724463 2.0200666457519465 -0.5989549364817813
Ni 1.1661715350922937 3.3192536950690363 8.201014102027784 -0.42322980559990336 0.7919385973337909 -0.4314820183063665
Ni 3.7518502717689586 2.6729875805165575 6.975610765779382 0.07064800133486543 -0.3707844433159937 -0.34408585097888483
Ni 4.203399145869408 7.060760601478794 5.996509607578801 -0.8196100951071303 -0.21477787390896558 -0.4560715347202727
Ni 0.6310988565279394 7.405434055872077 11.39492066255429 1.3329521814140979 -0.018059428604872124 -0.12721278510378736
P 0.39869021203684407 5.607739089429239 8.029545494840766 -0.3587730206774144 0.014041565694730657 -0.7441469317718087
P 8.724615130225633 1.5555427814483065 8.017077448667168 -0.7670297499072531 1.0835981121921594 -0.7525336131736072
P 1.834398104830989 3.17997508624095 10.436114180874213 -1.4357603124212757 0.42508125698634536 -0.46214062373248793
P 4.112449798763351 6.229425031804962 3.666519765932268 -0.288363103495284 0.021163264341176456 0.987060901795358
P 7.016541585379852 3.6924910981660686 10.404011807531864 -1.1969333679829062 1.1789081350500794 -0.3928085129955686
P 6.231132364602246 7.786476408899547 10.44756324747356 0.4660013922394749 -0.3750527316740444 -2.157886516947619
P 2.333147052295477 8.496817187637888 5.748779232095792 1.0533506261615277 -0.03837114357903069 0.054545439346048
P 6.766692852537252 3.740856493915555 1.4683875072251014 0.89308168193372 -0.15820383416866302 -0.1766820954785086
Ni 5.029124907780738 2.8803697975918188 0.3524242032825356 1.3943704366205791 1.065841559539687 0.5883555636993802
Ni 1.688669572102056 1.3844391279385917 6.882783352596315 -0.7768927587442621 -0.4235643061211867 -0.29105402006388587
Ni 6.947733363597291 0.7300546007674975 9.148489856048428 -0.7391394512548883 -0.4274960370754251 -0.37979873099946204
Ni 2.890496358786285 1.9654742894266262 9.146057132649972 0.2851196568573219 -2.3792826675040506 -0.5619649895209935
Ni 6.316444803425209 1.9412554575244276 2.744998180482382 0.6302606885735983 0.3438696212030207 -1.5215788508489925
Ni 4.218259264660574 6.895501626910043 10.295186053692774 0.2754530803018353 -0.3041404209341988 -0.40650452242542245
Ni 8.065521435926371 7.102215364477374 0.3259894521466147 0.46976343038506846 -0.5774219475060121 0.23817054180129302
Ni 7.82054176328343 4.034969410391416 7.913897636618036 -0.44974173584750293 -0.5421289286316727 0.243672959676761
Ni 3.1274181433066004 7.989766447365446 12.13140802355959 -0.0666044273931111 0.3800064761348939 2.246318838849099
Ni 0.11370294419492527 4.7235033035602285 10.01871286607011 -0.5548134660778767 0.26062167171595757 1.3882139301008802
Ni 8.636195165041476 2.2995966078028376 5.821774484309786 -0.08015568371498454 0.4969070806793959 0.1538321874635286
Ni 3.568560417499801 2.5208000903799137 11.492812259685275 0.5700217983871989 0.4337325049034401 0.46642073916508064
Ni 1.249252697719866 3.0972371968742074 12.584572992037998 -1.3362519352112923 0.8576755345202842 0.46212236890004277
Ni 2.890595727361788 8.649293749994177 7.8492972223326944 1.1135478644767145 -0.951848101339651 1.1187772311964537
Ni 5.506889018800315 7.935213099414168 3.3867674153179967 -0.48788610812770816 0.7332706511789372 1.081499577791918
Ni 2.89657590890571 8.333870790826301 3.399869613673442 0.6150099330621149 -0.8859772096784548 0.180793803654037
Ni 3.416680066596531 4.40942633691508 9.209665667881655 0.007461598484367795 -0.4986016947729993 1.1507972357464762
Ni 7.185441063214769 6.061745077396678 11.665074008774946 0.8511457038215665 -0.9095596249840853 -1.8830813546424279
Ni 0.35388401799174685 8.902972689747084 0.32141488427072007 0.4120714749902388 0.9383896618419 -0.23827158615553157
Ni 4.301277192740099 0.48585361641622676 1.5626828652735578 0.9491777535963395 -2.4840741474898445 0.6709784780079348
Ni 6.004517811413676 5.5228602589357445 0.40715731802040644 -0.6187493454998892 -0.2973110567171912 0.5255702529420433
Ni 7.911482076882622 8.81588968357879 11.244433278409437 0.5248392883132896 0.41207687430687745 0.7551134580856415
Ni 8.940407542191213 4.859159476135879 5.624986764084542 -0.12940619321068036 0.23033536202759042 0.7145591908123629
Ni 7.795302145105607 8.821156218080462 2.5537498066661013 0.2475617532082059 0.2890189919117281 -0.029937925210012952
P 8.491315781957754 1.6343239948086479 3.5745514392519597 -0.0411438212281614 0.3785216640592513 -0.07080535284833613
P 1.715200981761421 3.16848446551003 1.7726658289749446 -0.11906984428167881 -0.2525898025504166 -0.5528969657814542
P 4.726547595373374 0.969042348307594 8.087680628263595 0.2825878915744036 1.1939148928715566 1.707498405765369
P 8.606935636309204 1.5721554005710754 12.368561065855623 -0.8019561294707931 -0.32402764677642903 0.44697034374995287
P 6.341991560836406 7.510782812919239 1.4449193597432954 -1.464327325425691 1.6027850873156784 -1.512828615460188
P 2.0549873089413175 3.4369873900266477 5.87115705293215 -1.2610068014240476 -0.4415771977588396 -0.22311313324753834
P 6.797524211463848 3.9530716371630192 5.915660624497306 0.6202310722517383 0.10150303904250907 0.43715412899047945
P 2.4162101479093216 8.406590521080945 10.207977481779071 -0.04669123340895184 0.29614531854386417 -0.9739508467759613
