# total energy = -340868.75872383424 ev
CRYSTAL
PRIMVEC
9.24651708402010 0.00000000000000 0.00000000000000

0.00000000000000 9.24651708402010 0.00000000000000

0.00000000000000 0.00000000000000 13.53321240472921

PRIMCOORD
 96 1
Ni 2.648803519558056 7.683245435639444 3.3165028408379844 -0.9326622724398196 -1.0297625544289426 -0.13650912280404875
Ni 6.9770426925251146 4.667161010559369 3.2563884592496484 1.3632752578776715 1.2483037520350824 -0.3523162093084771
Ni 7.261853912078733 0.6450915869831755 12.717240744945155 0.09025112027777361 -0.21373503446674802 0.357410593112249
Ni 3.721713884134529 3.5811668242937724 6.675784693014999 0.29505028570747255 -1.7271398341453803 1.1785101282807124
Ni 0.6392071035040532 5.332115040913855 11.457975150188641 -0.48535742816858346 -1.88340531364075 -1.6697798081686728
Ni 8.970499312990167 5.764297249924183 5.097960865264025 0.01870734660151617 0.8237207748413943 -0.818911526378209
Ni 2.5697827844660095 0.014598401189249153 13.16225342107621 -0.7427271686061466 0.3348100821039137 -0.7459824423186507
Ni 7.832576686720248 7.930025730382206 6.181984618736723 2.7979492792133036 0.4194466844083873 0.2455717193613706
Ni 5.372050748246239 3.1906401747954583 10.591714271511847 1.0669005969318204 -1.743591037722868 -1.4150909569973824
Ni 3.579872311900502 2.6215540336797196 4.458841603672373 0.9237258891821382 -0.059897704796896836 -1.295492493905743
Ni 2.5430418570278865 8.679335736192431 7.234611823414072 0.43256033897220986 1.2975987416154686 0.3493291016556952
Ni 3.554666306300114 8.901631253668196 1.635623806110485 1.2895771568625727 0.06052968195394092 -1.0084871899899341
Ni 4.898610579958973 1.9926244339265216 12.731220554140764 0.3987225644871585 -0.4398674141565844 0.6465838512136542
Ni 7.780694479301402 2.137452631182165 10.717289370872725 -0.11325169493800495 0.9766448486683567 -0.00885153685335895
Ni 5.979398977100205 1.0375424366889145 8.773013125531424 0.4090404014733987 0.9312450803773188 -1.1639520279608793
Ni 8.271860220859374 6.683188379252795 0.37552232620860354 0.03746225861151613 2.6097257587540987 -0.6219845646077352
Ni 3.4508833984282283 1.6053987910310465 8.383703317682784 -0.3512106349491242 -1.017006797425171 -1.2736928815321484
Ni 5.159649004061895 7.108167551446284 3.435487022813699 0.16454031790965212 -0.08003921274177829 -0.10061086624554286
Ni 7.693351878824046 2.1893348386010127 0.993291379828394 -2.6448280017738712 -1.0909969757593918 -1.0220608149093107
Ni 6.017744283492284 7.975056268633816 11.764380685765426 -1.785756101126692 0.9337081972058306 0.9847991023443747
Ni 1.4234828137082143 7.212856617993459 5.899898347770939 -0.13479985342242592 -0.8862237784716221 -0.5287015994821733
Ni 2.1834170676603493 4.469886568342096 5.149021981964856 -0.3952939984215837 2.6187318189074515 1.1800651314726578
Ni 0.4485836810330603 5.52091042695521 8.9042850040744 0.959206084366619 -1.976778781597589 1.6247651911311953
Ni 3.1102232156220992 2.236556801404088 1.2024855072325566 0.47488635343393054 -1.6122670586641847 -0.32847822634861495
P 6.548457378664659 3.517809689160294 12.562298707291234 -0.23351581663810106 -0.30927491394728673 -0.03852129600364979
P 8.001066721221452 2.007853447581635 3.0354863919000667 -0.13975796875864963 1.3712240804111029 0.22763981747329828
P 7.451102377457731 6.5267742960773845 11.224107616568752 0.5833547680506792 -0.5058282944284257 0.17995896645756748
P 3.0222241124310143 5.605432839718654 10.971524207697302 -1.2029235241280702 1.3549078597495827 -1.059471394347285
P 4.919452229490622 3.1073475488056204 8.475052434017309 1.439854022874675 0.5974780948259388 -0.6819246926067932
P 2.171026734753335 9.261773847993041 9.539981205037563 -1.0989604535808428 -1.3613435880725975 -0.4850411824797453
P 5.132926569657961 1.3135972045537696 1.431340503935364 -0.7272146747928443 -0.5971793326385973 -1.556586477272429
P 2.131682804515018 5.55075818413718 7.3894854368414915 -0.15556716787676433 -0.20435487880342867 -0.8469794882590188
Ni 8.496310176818223 0.05708429793637482 1.7320483356783394 -0.03875629483259132 -0.4396581263592557 -1.4241234995132959
Ni 7.679075256429695 4.467454734346167 0.6980001577995446 -4.473984324263069 2.183859286862297 1.7087371632684765
Ni 4.2874712790961444 8.514988141349694 9.06813236234231 0.6471723767272725 -0.4033958015931117 -0.04266411452742975
Ni 7.6073130372570565 8.886559430803693 10.36546586797806 -0.010662107699536476 2.3195024621216245 0.117552636306204
Ni 0.37676320880272396 3.9070973053679063 3.752882043957636 -1.510333102731844 -1.347398181636099 1.828797653598199
Ni 2.313432344530144 6.96422701983174 9.129599509381615 1.1665714678615973 0.14554989285007838 1.24551127689161
Ni 6.364192785999751 0.15096326134803414 2.79318695934144 -0.5103146123345533 1.7442885780105248 -2.039773637262571
Ni 8.49667079098492 0.2192913240716695 4.055037880277655 0.31780429157453655 -2.8226308411203838 -0.04575946562330184
Ni 1.304831506347912 7.813538108022083 1.3593841079037343 -0.7069587527572858 0.4361549983020037 -0.864387399322821
Ni 9.30865368966361 3.5702836736732086 6.556841195714502 -0.8050602223174135 0.8240079670645098 -0.053715487245584906
Ni 0.4384014164082812 5.768273252274942 2.4151505051347635 -0.06045897661700555 0.6203002349267769 1.115798093963472
Ni 6.0598529223419435 7.941861272263532 0.7836857824135135 -0.1288066119534685 1.0923630028689832 -0.4698518763338166
Ni 8.146107588370274 5.429878466157034 7.417703033059652 -1.639358515564338 0.8147553381179903 -1.627570007569842
Ni 1.4797941028154649 0.1411000015630252 4.541570192119429 1.533168869679437 -0.3383510053776366 0.17244954545439978
Ni 4.782686995141633 4.193563651481492 0.797471414750131 1.6607634636026753 -0.803249651471236 0.11381630919222334
Ni 0.7326690489947376 1.4807002614907538 0.5543851035867374 1.1160510905145424 -0.02501246288393757 -0.059065181593272474
Ni 3.8930888319693047 5.012971503387295 8.765989471146224 -0.7650065488296374 -0.19090081018105187 -0.0632725348064007
Ni 0.7323565167169339 0.9884526774326922 11.642473679736048 -0.5110563755965845 -1.3329935761749947 -1.2481047486503989
Ni 4.249070493601495 5.7829474749043674 6.261722883555325 -1.1199337133984002 0.9865094001672622 0.8240043675200842
Ni 4.1389814610709665 0.4993563064005337 3.691671025441858 0.25957960360468846 -0.029078148312878957 0.7563419311761038
Ni 1.4794519816829577 2.3646395562010727 5.260332479403608 -0.8432660439631735 -2.004373917607038 0.43569605638771414
Ni 3.4513457242829677 1.1650519074260222 10.72508418478363 1.075514820963393 -0.005452538474138996 1.7107133131582408
Ni 3.4399262756709064 7.9599382131838405 11.305605493590491 -0.24758232203349617 -0.7911161014324957 -0.47526584826053625
Ni 5.233926275884316 4.166563821564714 4.796928480771023 0.635120587769061 0.5612296540168656 0.22278917424921632
P 0.6075183647685098 1.5869704824611368 7.115207849562255 -0.10443538219795563 0.05110736019877649 0.16256159691672648
P 0.42917894025794096 7.565324603129631 3.649609543829383 0.32653678635152794 0.4019618973600626 0.6307006043244944
P -0.06543945078322402 8.807954788980913 13.189117327191692 0.6702166601412458 -0.47476731135756306 -0.0238382400701783
P 7.7280725505149706 9.222892243609463 7.8878865780261345 0.17595190218070345 -0.4188427322758012 0.9553818255245224
P 3.306841155125642 1.1908589366375717 6.053838987623494 0.4136709582668747 -0.932488980086749 0.4663523478209904
P 5.319142177429869 6.688079786795937 8.141905046350693 0.2921130574560195 -0.1523445471744086 -0.35786182171705466
P 4.097677269208554 7.5096883097703 13.323582952739208 -0.6326122195249105 0.49906706444519217 0.4825029894389238
P 3.3087459376471684 5.68447206784489 3.8638948035459353 1.414734087878596 0.714129302363796 -0.07706598904606728
Ni 2.6385306390657477 3.325851994272523 10.46877905278153 -0.5716544488946156 0.7602746905716068 0.7984380890152056
Ni 7.709450065086069 7.07736740300355 9.211028962176853 -1.7455116517843485 -2.232358262903949 -2.2229896772048554
Ni 2.4535818041358253 4.161468990645488 0.14531733800995741 -0.40344079589843423 0.9511839853930908 0.17343942017149486
Ni 1.938874430054527 6.472451008145513 12.798494513915594 1.7542438894510242 1.2319631058935299 1.2603334295061068
Ni 6.3882984560658596 6.380290972261775 5.575980833468339 -0.502252147041393 -1.2349016196965634 -0.8049828321122587
Ni 5.1559966298094535 6.222184776458017 10.35022760780585 -0.14435407276976428 0.765581704606817 0.7177602142481638
Ni 6.763956706075756 3.2624301335193815 7.187637667269137 -0.36771814568584416 -0.48544304590385423 0.2209698616522904
Ni -0.0069284152591236325 0.9205628996193497 9.187928388518946 1.3683840398591465 0.33338414829066454 -0.5281966348212968
Ni 7.762432608039197 1.8276850619897176 5.226919265229887 0.0965572650014595 2.7426479355378377 1.5243384158720006
Ni 0.09540186477717066 3.5232743807633127 1.6149855799549213 3.176260884144278 -1.1935523673258155 0.795767741271894
Ni 0.35998262957910515 7.659713049633213 8.116314385639162 -0.4201969323108505 1.7396467083631395 -1.4824394616453695
Ni 6.541633449048707 4.801605369117566 9.11559288528643 0.19968549835221738 -0.13980759104966242 -0.419250252126865
Ni 1.7552848331375381 3.231953613174965 8.3474745390537 -1.0696015408027515 0.8471466099645023 -0.9308334467611968
Ni 7.656393549996185 7.381494596768177 2.7110815861465727 -0.1971961562714604 -1.6010678475142555 0.820531064259503
Ni 5.630897747797697 2.9027313720150865 2.6957074021730705 -0.04340356379661557 -0.8754567697631052 0.882850491124015
Ni 3.6225449882929426 5.938705055366048 1.6202912314639097 -0.9068093159324575 1.9114007704124116 -0.08017496698869418
Ni 0.16411180865682073 7.487367217503484 10.864449539739674 1.1693451739519924 1.1829429672410854 0.48553997649303476
Ni 5.705258238273971 8.59026403701835 6.914944008368237 -0.8865158557907442 -0.8899899303822738 0.3427254802962485
Ni 6.224616610453947 5.749465836504145 12.826927553982062 -1.0082961570250504 0.20246228976640615 0.00881708407099772
Ni 2.5122047225167727 3.9738201727238867 2.6926763938694 0.31761094461680783 0.5394722077351161 -0.09727254590092924
Ni 4.223429901697653 4.310726269589533 11.997666613460055 -0.15945776118042213 0.7321321666991197 2.0321030080911906
Ni 5.5566574620436535 1.4467008181332233 5.901888198249736 -0.9365258691602839 0.32754774411454557 -0.40179914652995313
Ni 3.7957137604441065 7.859585763154121 5.206795145424793 0.5015075555658847 0.7848451808221193 1.788613368069829
Ni 8.802055511074439 3.5700710037800283 12.63834206387876 1.632152741844518 -2.094078935573355 -1.7994472254605396
P 1.897265103127987 1.8485452045555564 3.0264997019356437 -0.17447968851055112 -0.3141155298690397 -0.12357827367499363
P 1.6993711442653632 2.645012447549193 12.427345790292824 0.8902858643561378 -0.16483548055256775 -0.27516588807871967
P 6.495428603126058 8.598909530501976 4.6008588597312015 -1.144660783831435 -1.1463916504796128 3.086922248378445
P 9.288681212738869 3.4454834324448727 9.761857855288936 0.1650213713111287 0.31536431467447623 0.7295749474949048
P 5.851306975786126 0.8488219474360285 10.840089590453458 -1.1449114663896605 -0.2923948503624964 2.267655652653662
P 5.935357816177736 6.076552132215128 1.6903252765915333 0.7406450892661374 -2.429073622884249 -0.18246939158424705
P 7.443973312777651 4.323107355979452 5.461056797148946 -0.7605192024822451 -0.13063929428683307 -0.5336352893383648
P 0.49740898990037163 5.231124581204596 0.4141524253272032 1.3781848279996523 0.13399638368452407 -1.9467385264817572
