# total energy = -340872.3007725281 ev
CRYSTAL
PRIMVEC
9.26864522547194 0.00000000000000 0.00000000000000

0.00000000000000 9.26864522547194 0.00000000000000

0.00000000000000 0.00000000000000 13.56559917649518

PRIMCOORD
 96 1
Ni 0.17733142683005845 7.875827322105534 3.4007465496938107 -0.38789667751624807 0.5118426189433056 -0.12787767238129588
Ni 4.667726781654406 5.045887504546798 9.651231669891713 1.0158996804039215 -0.19478266173396133 -1.7192941128487165
Ni 2.337320595475214 7.5246198193643945 4.38056283643703 1.239059350618679 -0.1977584565328336 1.7721940461715413
Ni 7.597888459424795 0.8217024688064227 3.1560774888469507 -0.4119539755757679 -1.3053393047928359 0.8724606632492587
Ni 7.494848931081788 4.90894327217584 7.709886133323574 0.329262155702491 -1.0309180081896245 0.5226811043197063
Ni 8.586306048884783 3.3695881452294154 9.549422090762622 -0.33315480588867785 -0.3125592411255133 -0.2789382106369583
Ni 4.102598948414336 1.2656798410433943 6.825259759329795 0.5740561163575727 -0.4862434303179626 -0.35589055692329674
Ni 4.34909856668206 2.890992383286486 8.514285895328637 -0.021318558972118123 0.08091313070629935 0.4409897006864857
Ni 0.23798173335747638 7.237922086999016 5.915740585005817 -1.455903877248686 0.7871851418092055 -1.7226612295487362
Ni 5.867877301353457 8.287206869283374 12.50315486006212 -0.6353743556510799 1.1794778915106203 -0.4472089421233201
Ni 7.75723500716906 3.8073555252032025 11.791788197075686 0.9664532528473355 0.10913433033552172 1.4758908618935744
Ni 0.4117382437458781 6.5120574092393415 1.0994995212160767 0.1372881670619184 0.08729563719387547 -0.08348320542632075
Ni 1.3223298003159012 0.5168706321680304 12.965185699359136 -0.007359011468232488 0.7315791224091271 -0.32975066530313535
Ni 7.1455600378906174 5.243847228064829 5.407464767502937 -0.4551261400878678 0.4004899408002264 0.1371521557046864
Ni 4.007419231174581 7.002859976869752 8.367438115594677 0.9687962991582155 -0.7385725230078248 0.7729887957041656
Ni 5.333669668396941 1.4611462990109834 4.294054863617328 1.0904493307860381 0.476998771791243 1.7450141433226396
Ni 2.3542636788440205 6.899190180655258 12.925506629390942 0.5487803725099194 1.3876930246004038 -0.6822298825520379
Ni 4.587469583136631 8.274416138950249 10.383122820740226 1.5733235875214515 -0.9597146485719212 0.30297134032676204
Ni 8.735447818298054 2.4325373872956444 2.2127259059273405 1.7677468090334651 1.637969605636611 -0.6107012783844321
Ni 7.887172143792306 7.726667015401925 10.660756744994908 -0.11530652058450465 -0.09933714173944183 0.0269364193795278
Ni 3.062777452847456 4.801269421248366 7.785392224327755 0.28998701225195217 -0.11484140802262803 -1.5368087804248696
Ni 9.239328444261828 1.966324535298407 4.990553692888278 -0.32420633844613844 0.36133949585300995 -0.36530156582455153
Ni 2.395509149845764 7.829428484389864 2.0910285948592744 0.6482036462052643 0.474391416075383 -1.2312457681115312
Ni 1.648604647552616 0.1741365248403279 5.421328806946623 -1.233014944196812 1.4795487703611356 -0.1143618972830482
P 1.247633788899485 0.06409268134315894 8.401867424939187 0.3049356631419845 0.7706398358560147 -0.09918467532197757
P 5.271300955055203 6.21203136512104 12.791016734260715 -0.45447847920153983 -0.0764340118890232 0.1245979731887596
P 1.3881742555959882 6.107323480647625 3.2267536888536017 -0.5702997346389339 -1.1994013699074249 -1.2027785139097737
P 3.032265072951335 2.773465962544439 5.510834259613958 0.35242985206820593 0.11611693230094196 0.14527607036340143
P 7.349868783349366 3.843920330394636 0.5529784931526355 0.09266898569064685 -0.8763620551861939 -0.22058008241303947
P 5.5341504634009215 8.99917784793482 8.599952275167 -0.3531240499217531 0.247845860107528 -1.3015101608547328
P 6.780097358879661 9.222728300764272 1.0029573131364897 -0.13589231515565628 1.13410152025835 -1.113306952110502
P 0.8115032516625309 0.8511925171404111 3.2157388309348436 0.048643986259948487 -0.16020955174478216 0.014346755639975292
Ni 0.39786400879250505 6.056271783057151 11.71428842049567 -0.883456243028814 0.4169074629263013 0.1829455598897172
Ni 4.766159793348455 0.49723222678409906 2.299667651340948 0.180525894704631 -2.224512798717601 -0.6568906324563009
Ni 9.248180000398156 9.07202939896262 1.3413815004606393 -0.8982639974656078 0.470984190166047 0.014381465532652652
Ni 8.044646425212445 0.0018629976789551624 12.353391164558014 1.5819727785560174 0.9675999648572691 0.5187614575503259
Ni 1.3061467458509475 4.348069747068308 2.0103404043411444 -0.0024726299102086446 0.5929102729495982 -2.527317531559512
Ni 3.079349790409505 1.2995567391358374 3.673754493144678 -0.48134342191318397 -0.37567853818350144 0.31277315690853236
Ni 7.417177684566144 6.801109377477628 13.345266885530528 0.9068949336677286 -0.499966693441326 0.5450183343643258
Ni 2.035765224904039 1.6270828534703579 1.4140235801076204 -0.1120126803245813 0.0908995524950499 0.9927718361372064
Ni 3.5342363580103084 0.026221924047423135 12.08365227225823 -0.35181098753728446 0.8473235018619988 -0.05252455226127728
Ni 4.974639429133224 7.306788120604174 1.0565921821355437 -0.735115931917792 0.669915326850743 0.43783649976948463
Ni 1.2391344412795753 8.381163125360828 10.764520154525608 0.5965797513813854 -0.20631483074327694 -0.20485161593418916
Ni 1.167422933607555 3.9344008445337417 11.19014097500551 -0.8422383740296076 0.2010972910980795 0.6734349099682273
Ni 3.4541181891700674 5.318626657287765 0.6414004411997218 1.007259231120104 -1.1601125996101311 0.25648939471513893
Ni 6.401120995212405 0.5150076344890753 10.476129040687866 0.21933798247582223 0.4433170632680817 0.5061957050701734
Ni 6.187015291810095 3.0252116339777784 10.250329087675915 -1.1476784876118362 0.34007775826075626 0.5618996835006967
Ni 5.819309600668258 8.669000901081986 6.200482633240551 0.0399963378872795 0.263263737324495 1.6979326164538049
Ni 3.941407940281454 5.953083956391441 5.531861108044196 1.4693790289169855 0.5621483091763931 0.8932050948854616
Ni 7.550034444417604 8.35522945617816 4.643409564189199 -0.574288801193669 -1.107314739082809 1.3371060556814713
Ni 5.356692982996566 4.103396051898864 12.9949213667901 0.3506994996406606 -1.3951301976047392 -1.1717226730452335
Ni 3.882709610426613 5.860536534379664 2.9321637051268783 -1.2120077458175254 0.6893567234048062 0.4133236022297849
Ni 1.730975097168907 3.199193372443785 3.7606415535517894 0.2626595280815928 -2.0793799388002836 0.6401861752174265
Ni 5.9307928647601615 3.130874188903593 6.456221237012667 0.42671827836913606 -0.7462454661720503 -1.1845118543901019
Ni 1.8135401883337459 1.731920498976138 10.94837485382556 1.3497715669642818 -1.1072257789134285 -1.287646515498763
Ni 7.041955122192305 3.4560089927845294 3.5828105467471256 0.17260638274723822 -0.8637204551627834 0.698019798396443
P 7.228273427378158 1.32910517993439 5.57232801285175 -0.40456976729655486 -0.45670222632573604 -0.08342509849487569
P 5.132781053005527 4.94639786730349 7.1480264243700695 0.5449913377811324 0.7606333594626061 0.8609788878619044
P 0.1377978745910164 3.8810968661672187 6.303418352757667 -0.6360940074259239 0.2878303709202656 -0.31527818271857316
P 3.822806356699811 8.99502549489914 5.228792167716934 -1.533896491874081 2.0139772450247575 1.4135866045377137
P 4.517055685788261 2.099885712182705 11.525047711488051 0.44691326525977226 -0.12048086569659251 0.6723049101288422
P 7.621236176605333 7.040555556771796 7.125194970725442 -0.4633022481407569 0.761846663044417 -1.61442112889271
P 9.091836493688627 2.075666742356288 11.45637910002499 -1.1701782113762493 -0.8616270629688645 0.2585943568732837
P 0.39240292305897084 7.867948973711942 12.942056722204583 -1.0446708389993429 0.22334196142889282 0.0011626528495334815
Ni 9.265169426992808 7.487786223463061 8.544373771276021 0.31831542688300013 -0.509789850179335 0.08999066752753533
Ni 4.862970792137942 7.837983443880788 4.035223312952342 1.3369903560392136 -0.4290317569936611 -2.3101798991691185
Ni 7.038442305673279 7.59741575852118 2.339048270934703 1.0127063702776042 -0.14761243180606193 0.18697962074977476
Ni 7.906960701227974 5.257963374657112 2.1464300676275263 0.21518950752508745 0.4328855835221125 -0.5636269506044487
Ni 1.9097672624775892 5.038454051121315 5.074429370480003 -0.4544874780626044 -0.024730412867144506 1.6537027001011517
Ni 3.4318456348291257 4.923708223929946 11.469740778900523 -0.7148168153491237 -0.32378981973401005 2.3230505844841995
Ni 1.0253902150388539 5.090729209874087 8.711786820910806 -2.0676343682285814 -0.37134622935673467 1.180780412372128
Ni 4.97032950912967 4.158127401621402 4.0766791821994195 -1.0432783295271904 -0.9052604833880991 0.9153528346270945
Ni 6.517321999695294 5.543502526376373 11.00191796323744 -0.7426544063866822 0.4835427435573478 0.8304943461198019
Ni 6.342904634906347 6.7297130037413515 8.942049626571597 0.34867475590114794 0.8862592596952479 -0.6451715442471598
Ni 6.653608158259257 1.8250055024077136 12.727597883421337 -0.0256161579062075 0.23092825841658296 -0.11232044137298719
Ni 0.11295141748666264 3.0221993242978753 -0.011186327854383012 0.4352875080953858 -0.005531728451506603 -0.45487622886059076
Ni 8.516151673601142 2.176787661149327 7.365537428007444 0.5466712965867165 1.8592238312985399 -0.4035891485508404
Ni 5.672744514611949 4.79630142743782 1.703011594694242 -0.4502945230271793 -0.32937399869000694 0.5972204702891779
Ni 2.030018664899302 2.15187354293524 7.703659457499087 -0.7441150500926088 0.13611137314499783 -0.26871858979147917
Ni 3.253683737391931 0.4899303881200151 9.215681349842333 -0.06255365436250518 0.41509689208012385 -0.5610072535934144
Ni 2.7149808115284833 2.8672924575895293 13.014401278341643 -0.4360927776055006 1.1064950713949913 -0.8726825494520777
Ni 8.597465497668177 0.6633421049081326 9.243110978355269 0.21956295400243475 0.1646462473598971 1.5499735999416016
Ni 4.552054089946146 1.676215941510862 0.18149675596897613 -0.7240612167655273 0.22719218841291838 0.24755815366378012
Ni 6.47096950520547 1.7914993501220275 8.354347081158078 -0.2850209264959285 -1.4128618105565474 -0.05875742054486655
Ni 9.020718179307417 4.641728231955554 3.9917858073681454 1.0055317069060359 -0.22860089583498694 1.3570537024479918
Ni 2.76175039505091 8.205624254506443 7.0706341640740105 -0.9678141377506042 0.7718531394378255 -0.4276207355787474
Ni 6.252479732638255 2.095649941340503 1.7698088666976948 0.9045706564099258 1.6137027626694467 -0.8602355819379767
Ni 8.53021220832241 9.227788981026508 6.910763937877702 0.051313048451679374 -0.7051371261675147 -0.6995416343576082
P 8.394018736210137 5.78268918360581 9.897433764649513 0.6935743610305797 -1.37739267111566 -0.7538435902342824
P 6.168783866762807 6.2020490342741015 3.7285321860930614 0.2106304273994953 -1.7968797218436796 -0.4314833038579472
P 2.6663574989722707 3.660558723017671 9.725666305514366 -0.05881321348346646 -0.06848261825243045 -1.0777758490834277
P 3.1876446405632963 6.78106129797723 10.479344333696968 -1.5886352781778577 0.38530114887492994 -0.1201101126207351
P 1.537890681009733 4.831985711338204 13.368545087872299 -0.802535913233663 -0.35042824825714486 -0.8710457851796031
P 1.639558449867739 6.296190663254935 6.964171725070117 2.2920813897961945 -0.9108513472123153 1.5320692088573549
P 3.444858812646305 9.130060386365297 0.6799283454379349 -0.6527375295198758 -0.6571806528928941 -0.5335080197318812
P 3.6316220128002676 3.3739351398136437 2.0203792739236137 0.11358336724581083 0.21993627818145348 -0.03883677036153957
