# total energy = -381167.5948872314 ev
CRYSTAL
PRIMVEC
9.26169933524845 0.00000000000000 0.00000000000000

0.00000000000000 9.26169933524845 0.00000000000000

0.00000000000000 0.00000000000000 13.55543316404714

PRIMCOORD
 96 1
Ni 8.879635573954038 9.1738890188844 2.115704589744341 -1.1078253601706405 0.739668841395797 0.5051235550519172
Ni 2.109565009352023 0.2596054282647074 1.975921468566035 0.7573271779075087 -0.6942055668566754 0.5460490896216853
Ni 8.252349949589416 8.737922314664766 6.538829090103297 -0.22255468964090705 -0.07948822533431472 0.7019276180912815
Ni -0.08667839036902404 2.6967845230254883 12.013325937496914 0.8432562737711605 -0.21682035826029109 -1.1193485303188915
Ni 4.742591995161163 1.8021043813782986 11.813559421521733 -1.803521138419597 0.31331771655809265 0.7158496274890124
Ni 1.5441567972684034 7.5771906021173985 9.873113039358921 0.6072225758072124 0.2026911179477606 -3.1269846636169696
Ni 8.318747071074599 2.7447693865231497 4.960081698704211 2.0781784622930144 1.5403854420325342 0.5133053195317612
Ni 6.697736693936751 0.5550582632400303 10.987763167591945 -0.47292485883218555 -0.47483595981196935 -2.712230499588245
Ni 2.2054884278514013 1.264221939284073 10.266993656294298 0.10029847721144662 0.8926206831369013 1.9784777665665667
Ni 0.3334332110091406 4.733422912964158 3.7107729474540965 -1.13144634202369 -0.735261713467037 0.8330646779501396
Ni 2.5791979901232867 3.5991796600970276 11.126434884867585 0.7098828683826162 -1.2557596940924953 -1.4007969089722134
Ni 6.705044174596789 7.426141550045721 11.5227689259181 0.7635849858917624 0.6487921717188827 1.4942948183220588
Ni 6.960305865941905 1.02175065451882 5.248554917170784 -0.5211399850848316 -0.6744175855964708 0.21241580143469224
Ni 9.051532710899917 5.4962998134541925 0.6925148455820862 0.5808697968452964 -0.452357319093479 -0.16585055208064342
Ni 4.761254319026785 6.314172683727882 12.887000545383692 1.3820913621429098 2.6271074445656564 -0.19243190211359762
Ni 7.767731539530522 4.66622928534873 12.324450493669763 -2.7242483499847276 1.3952078449202099 2.1201195826114905
Ni 4.64192658667707 8.469157065902243 11.381480778621597 -1.3020511209598675 -0.44041300224740926 -1.7371463105387888
Ni 3.268777803232412 7.64720904798544 5.630235097764632 1.3290225073423885 -0.7808324601183003 -0.20015935266484236
Ni 8.210088816190492 3.0814691988362135 0.617539538308149 0.8753744944619439 -1.0489635528374255 0.06346099666812297
Ni 0.6633997680118782 1.8852003465010583 3.161384696457507 0.49988338969890034 -0.1294830691952028 0.29058633639884796
Ni 3.870334427250286 5.456696787722481 10.83068289700846 0.1798584363239612 0.895607019458735 -0.708972954973837
Ni 3.125508578479406 4.044102427432321 8.693193864601922 1.2248159533257874 -1.2193834694563064 1.0916963158192619
Ni 7.025962051491976 6.822019435352524 0.6033228300531962 0.5615512990223425 0.6440554283648456 -0.5914069489311944
Ni 2.6634794527422248 6.095596582869977 0.10187961724775627 -2.1903937455467055 -1.9229460520478496 -0.7743604792407116
P 8.711896939943973 7.4661891373385005 12.660001855283404 -0.8972370988629902 -0.7184958068626078 -0.6811965561915172
Ni 0.962772154083941 3.6685034785259014 1.7555773093329692 0.6777834167449102 -0.37424926193614255 -0.40852001019355455
P 7.04310545669062 6.330510321097091 2.895603567173645 0.15940865311004157 1.3445702252690006 0.5168454714745357
Ni 0.7774048018377347 7.720144929097982 0.7768426166969689 1.4278855376588893 0.6192298846807336 -1.2619069446408138
P 7.075289861372028 1.0450716130764557 1.3831968008946902 -0.13613605573534618 -0.04346989825817675 -0.461298844557483
P 4.967614238654539 0.24186556963829928 4.885663019551527 -0.1348402197420581 -0.1092006647970829 0.40372798812154986
P 5.1880426793502235 3.5533342491120004 7.989247303710982 -0.9010991529215577 -0.2289230550610961 -0.03065500588169559
Ni 6.910848392273209 2.7259681371696947 11.706810929010375 -0.6468574165900149 -1.2503097267215177 0.7212736267180611
Ni 2.2627905607330905 3.4117321302129953 4.76237591079856 -0.15775723354954768 -0.19055551102649118 -1.1122538282556393
Ni 6.855769067196855 4.548577920552205 1.7731587929032473 -0.6801462605501319 0.2814643194929217 0.295387100221601
Ni 0.9408867589005837 8.725372712263816 11.514432470478177 -0.6590508733324133 0.8420450270718789 3.092645009794835
Ni 4.47365077411405 7.293476970863999 8.772208198892134 -0.24235218398280844 -0.6676208743896115 0.9341679104510686
Ni 8.932936652786125 0.9584376788635385 10.302318703170661 0.30037889700923753 1.8863273723835512 -0.052342518157458245
Ni 6.975624716400335 2.3928989109386776 3.158253315961742 -0.6836964397952354 0.0015614309498489238 -1.4439400200185908
Ni 8.159788527895605 3.9172727187396026 8.201985755570128 -0.7739735282149379 0.2601107935178101 -4.78881770613474
Ni 1.2481065826953968 8.45594988285888 4.3137586516568165 -0.6048661597598938 -1.7100206579665904 -2.910223697839704
Ni 0.7454463826165361 1.2618231591941493 0.36834703844151545 0.9582810014491883 0.8423268199783558 0.11702093217245006
Ni 3.5536769319819896 4.190205732137129 6.512735178808507 0.5091162211510781 1.8521522691637393 -1.6341049804748826
Ni 1.122073380132923 3.9802985817200285 7.360342734328141 1.2805263595142142 0.14330583401090802 -1.2962473697938968
Ni 4.49626784353333 1.5946701046446328 3.0231464267039083 2.4443876275335 -2.215958738500003 1.971515733426437
Ni 4.671369528398566 4.638823917448791 3.3894142136775174 -0.4510105752575975 -0.06361911951254205 0.44573827111506464
Ni 6.967641131699509 4.757753396733383 4.449177660177316 -0.00895335253854587 -0.26506685197150476 -0.07110745746978722
Ni 6.225001043937208 8.872994935635601 3.0743450998201163 1.364473906171463 0.660887669430836 -0.01545335844059274
Ni 2.9166294766722727 8.889943845151278 13.023897721094738 0.07259432642795885 0.2964039715218895 0.5175545817264183
Ni 6.14658223690484 5.578765983032108 10.364402651343577 -0.009508710821383623 -0.22529831382431523 1.1882453532906052
Ni 3.9121695224865216 1.6652998226591407 0.916576650869574 -0.5814778627429406 -0.3879635261984415 -3.174139209815585
Ni 6.826798472133993 6.784685525922091 8.718868220923454 -0.5327847684126115 1.1531827052595174 -3.0811321240592293
Ni 1.3815861914057415 8.38165253196557 6.661830938521246 -1.6923494659390728 0.3928321671446525 1.6491911853840437
Ni 5.534198686535148 6.857158322075189 4.608494631114919 0.41659918765726317 -0.05757188487719762 -0.4948674245415477
Ni 3.9323692884175006 8.363731144035059 3.4100585411695623 -1.5315385331648657 -0.2699761163476641 -0.3954590632445383
Ni 5.034150285627556 4.265355159355817 12.45894796312097 0.17889787218290482 -1.609854335457634 -1.6411114936997027
Ni 5.854366365796036 0.16192599159911472 13.039011888001095 1.407311055941647 1.135831101354947 0.5871090928867889
P 5.884179775485086 8.921461407491085 9.07885935435675 0.18868477636633957 0.4280488242551015 -0.35664080482576
Ni 7.597427414845133 6.428989968572605 6.258082907270019 -0.8781278888373651 0.32767758482419046 -0.7526832513775941
P 2.195874784093329 1.7916016144980924 12.345149465187026 0.33800133534770177 -0.2671443033258238 1.4654141307319664
Ni 0.09758959818346041 6.391924648418651 7.76945884642925 0.33001188938432197 0.2153697418566936 0.893351647765655
P 2.9969932405343087 2.737924990822557 2.5084061923729726 -3.3181029891254665 2.5556413182048696 -0.033173144317859
P 2.6613122151320234 7.049125561163401 11.695505172810492 0.5817316306249595 0.5573976818652852 -0.4885211706085458
P 1.3995446261330076 0.44694089158855366 8.677903725410976 -1.7089148264969214 -1.7295029350609181 -3.1656203737112967
Ni 5.18941341083018 1.3414645105194514 6.7953522248779406 -0.4231143630679617 0.6058061550756599 1.5909207317779246
Ni 2.284981591989681 0.8831641448757188 5.153613238785428 3.0729557588960237 1.4915118562602827 0.29303094128459856
Ni 5.474256969384625 8.28991540149957 6.790486128124095 1.0975224355827358 -0.8329021842303461 -0.28005638340180156
Ni 0.9146122444716094 6.385321056896968 5.303413813806442 -0.3301877528405539 -0.1914872788121412 0.9272287601290741
Ni 4.978320762916901 2.757198586834646 4.9477469677244414 -0.4463820753466506 0.29551179872492334 -0.3939014889494313
Ni 5.016488225274334 8.557328442180516 1.196053980913973 -0.831229938734246 2.378316446936039 -0.008947439001274912
Ni 2.8900298766017682 2.1440370537330877 7.022161976314773 -0.6714466758936048 -0.9743305987128832 0.9370925402970314
Ni 7.161034672462811 1.641543564239627 8.518152380781412 -1.1646626808746587 -0.36190848098260253 0.3463638483797841
Ni 5.93114585207197 2.883417023380898 0.3564790971008663 0.05200801763617495 -1.761932259234217 0.8569476552153241
Ni 8.249441776044103 0.5556667568767406 12.691423095951649 -0.6035014182018832 -0.8984156925521236 0.6399010398768399
Ni -0.047656999346374546 1.6419140322071826 7.268314786507611 0.7328854999253764 -0.18930441222820946 0.003568691187864822
Ni 5.482916658126241 3.4947725251406223 10.062984355920687 -1.064268301515296 -0.9312152555806479 -0.26940147479111665
Ni 4.969040540329629 6.48967262165824 1.6799786897036193 0.3298486243335803 -3.4971067907586155 1.9411569186289215
Ni 8.448253410832908 8.60210875775882 8.878388023073295 0.1713894796210016 -0.5584207238131608 -0.5709054865437329
Ni 2.5607486853390093 6.260436305033918 7.587816549596817 0.14209818685605202 0.15293847200466562 -0.38714000185588165
Ni 6.572713016585867 3.356838039120419 6.5044524412238784 1.2937500572933396 0.22496355619271577 -0.44638824599423765
Ni 0.4156048585528486 5.425318150870506 11.827453822644912 2.366669092505098 1.663385988827187 -0.3838667304212486
Ni 2.3409778252857363 5.371637342371676 2.5736205948717346 0.48507075016610013 0.8389404200046261 -0.2850620641465091
Ni 8.415930080663667 6.584956982913585 10.182542704580204 1.7850536757430289 -0.6143882403177161 0.966521901301742
Ni 1.5418043256744243 3.8467448794161725 13.055766301833804 0.5867139143308991 0.03274454142087264 2.5611702184428986
Ni 8.056937358402935 4.037378433821184 10.190282706592363 -0.36587569316046664 0.24274427721490452 3.6382230733173726
Ni 4.27847898710648 1.316958054465637 9.551157852154576 2.1341313235095503 -0.08937771653388478 -1.6216299879363234
Ni 8.08839935054761 8.319182370936478 4.328561625470426 0.37760455156162065 -1.082377352411181 -0.4454541642157425
Ni 5.37218378262382 5.685219953509259 6.725908004359611 0.06305321970674302 0.13163482543088295 0.8033190712565907
Ni 3.354300333542662 9.07655782210831 7.591273015734113 -0.16639511173020377 0.3682454789442239 0.7898786294809687
P 2.8599478776362393 5.697695462316699 4.663231273321284 1.1373830192230991 -0.8080758692152858 0.23173867013302027
Ni 1.793398384140738 5.387252567204151 9.79328552787992 -1.56939339922911 0.8624886396382114 0.06816637256359227
P 8.830178100285343 4.664423254006895 6.057055874035231 -0.8602553794323184 0.09362517895632907 -0.8487226962023706
Ni 0.013323880453143349 6.84776695909765 2.680898856576697 -0.8074001833044998 -0.4222345315661696 1.4320882628863272
P 0.2606316245348369 0.9155689779978222 5.090607751543218 -2.451799860837171 -0.1539435162304123 0.9924946712164198
P 3.177262953546948 7.557148285072632 1.3880490050997518 -1.7776697245741322 1.8242902526461486 1.558276463380342
P 0.6704155051474655 3.6400237535200515 9.36475689427889 1.5464920691509043 -1.0544379456884356 1.2777040595740705
Ni 3.99301489470638 4.188418224193672 0.9925207318786694 -0.26345142785526887 0.028861404316382552 0.7012300778036247
