# total energy = -381174.35151670314 ev
CRYSTAL
PRIMVEC
9.21759818319160 0.00000000000000 0.00000000000000

0.00000000000000 9.21759818319160 0.00000000000000

0.00000000000000 0.00000000000000 13.49088667019961

PRIMCOORD
 96 1
Ni 0.6451645778008596 7.4864962979217395 13.008951961157635 0.4662968119927066 0.3496378911453656 0.6418903023927268
Ni 4.355803630000408 5.509266202129591 6.568469616195266 -1.2590761600602383 -1.8097691762118382 0.3262053711540382
Ni 8.933613109987084 5.561317978541151 9.189222635568528 -0.44086834461727303 -0.6682034863659588 1.2596777981999792
Ni 9.114416296513161 4.849802364412446 2.6906629703234755 -0.1384384786162777 -0.1271276815891488 -2.2692199118169887
Ni 1.14315729746509 9.005657856654828 4.482144638214515 0.7045863958703672 -0.10111891623021294 0.09100111106992069
Ni 8.905858922139517 1.6585869474352792 7.865133105204107 -0.8928855067625138 0.2409905277485914 -1.1155569244869432
Ni 8.24643195481473 8.780232277777348 11.391664461962481 -0.8720744835544335 -1.8820140897201783 -0.06481982468886256
Ni 3.7525394878351137 7.808218124040512 12.233292925443527 -1.299622971134349 0.967032265279257 0.5543311271248196
Ni 4.030026060722244 7.739371883909832 10.029111738290082 -0.6443595898688258 -0.34136202428981854 -1.22983191848314
Ni 1.6356259105942665 7.062560526588198 3.1725442502870207 -0.6024575503184012 -1.015988640573302 -0.6119639471469396
Ni 4.481513232745382 1.6241868713651633 7.572420903792695 -0.6080165324634174 -1.0628161424498017 -0.4540815008734373
Ni 3.7852988314452936 8.105116958504187 3.479138154421261 0.8395088909135865 0.6312924722722225 -1.909268297450441
Ni 6.306016945792153 1.5196040034413862 4.548007141843614 -1.4307435759329745 -0.3427609615198742 -2.573708974339858
Ni 7.1744529497969705 1.2179212355692461 12.644090854220064 -1.8778782131749336 -1.0851181483811119 -0.24646620615118203
Ni 2.523382000194733 0.9068107083711375 10.900069677132192 -0.028569584107576602 -1.5504564531152911 -1.3860284924137871
Ni 3.0426738237644346 4.588870597694107 4.940457441622948 -2.009615625621952 0.008370740562198487 -1.028491658136319
Ni 5.328168052464647 3.0350324349482163 0.7427448364560227 -0.09930860249435154 -0.9023944746942136 -0.19168139710081827
Ni 7.894328925392876 3.7055850431670607 7.981545838515983 -1.454920173179178 1.4703169673502225 -0.011408241836941642
Ni 4.883612514204833 0.842352044931073 2.3972769624917185 -1.3201303470590813 0.842737425153213 1.2864938899515586
Ni 8.177659455468767 6.25635252728578 0.7654404064720569 0.08202410438229099 -0.28385493121228533 0.5502014212271621
Ni 8.09200031642279 3.4404777045141657 0.9724989993963452 -0.481607474207848 -0.2803769999660139 -0.08947567556432978
Ni 6.486755609131605 4.622560918711329 12.925415634951674 -0.7199281684337602 1.445084418035679 -0.33781904413356656
Ni 3.053753376668046 3.793447188156436 1.0039042778471736 0.3949219597941457 0.24217066409962168 -0.9799497446718737
Ni 0.34241809910918813 8.828209875833338 7.007085334246187 0.12934474384512562 -1.6538402541202808 -1.4558791946583378
P 4.302682612210463 0.53319933556718 9.402567630389875 0.9559603237358117 0.4893652637763959 0.6928202564733745
Ni 1.8943362361730303 5.932796399147192 6.981237345683534 0.37962415309481073 0.7436669068115968 0.3876642497904678
P 0.5433562069020302 3.7526132286198295 13.061673856950305 -0.15575460129722207 1.7186269115783628 -0.09065144103998582
Ni 6.604860693452719 4.903706878040002 1.9468829976019988 -1.1336932290763377 -0.4816504116306415 0.3709592783309611
P 6.3958608743707765 2.797789895319962 2.7914666230305465 -0.13666467454530656 -0.9143051100888705 -1.349797535106211
P 4.453335035385697 5.6032580498485 8.73132831111336 -0.5198876007349691 -0.04686658264455154 0.5941392602606929
P 2.613585415098848 8.947826646241133 6.334241231142285 0.6301884405747663 -0.2986241191016599 -0.7694797541096425
Ni 0.9806694783429022 4.0777086956393696 7.904796429783343 -2.0723001491353665 0.5481671644059527 -1.4683878686483098
Ni 1.9965962693782464 1.7375356750720807 6.6449904284952845 -0.2951803835274336 0.052440991408535496 0.04485340886926469
Ni 8.69710797820599 5.577033983283795 11.850030727439835 -0.39644482419657534 0.9624479883426843 0.3619501328538154
Ni 6.564506049016768 7.30259599843758 12.791870152070793 0.159517410773764 -0.5772553400211606 -0.9017830663624599
Ni 6.53443824404873 0.7117303841641901 8.621135612992298 -0.20509972738925325 0.8607616296447756 1.5402939107599924
Ni 1.5127000224723302 5.719123257833859 0.9178294251273585 -1.2851494601085223 -0.5940850099839897 0.46458137196349664
Ni 6.980385639620062 4.733559234905417 10.178981587387513 -0.8343247756094856 -0.398845720328584 -0.21376228816025766
Ni 1.4214089309936515 2.415231921810309 9.134787188291016 1.5984257819057182 -1.3962280586546083 1.6875412459171517
Ni 0.80629464472446 2.3500081977288136 4.552945009140174 1.4997031338218236 1.762709246609558 0.15130633571788138
Ni 2.8406425088381746 7.096674857117539 5.192237055198196 0.2968498008100565 -0.36905923309477084 1.1812990038797593
Ni 4.519637218443667 3.1353475549565424 5.596708024646081 1.7370529794940341 -0.42632027159976904 1.2858007205392759
Ni 4.498602659603366 5.966707942518563 13.35044645693825 0.13820322267702004 -1.0040916320253999 -0.07664741345140993
Ni 4.931885075399688 5.624255738296443 3.9561755865887602 0.3041915858871084 -0.04944077112963098 -0.6824936777363859
Ni 2.203724916048015 5.870752746406583 12.290669708271409 0.609821189772324 -0.3190281366793086 -1.3923356655787373
Ni 2.38908159603032 -0.3435537071938179 8.493376938192021 1.4127785068141216 0.034124195377218655 -0.2852386989336894
Ni 8.633405157809266 6.088785811616263 6.677772816100689 0.08316181753116 0.7924954982785255 -0.13133914856733508
Ni 8.477655402890523 0.9421860063191256 5.228271411409585 -1.4139200766177327 -1.125517635244081 0.9360211616097235
Ni 5.620753051022423 9.058327212138387 11.251898943890788 1.4604519016306847 -0.94173286728252 -1.067535402302342
Ni 2.543430276039455 7.979951194046495 1.1906380669840544 0.08044287593810018 0.9224102556945082 -0.8577428974231098
Ni 6.518842068081249 8.472641029529822 3.4766152978241576 -1.578714933740352 -0.40762320941089797 0.24529172622710657
Ni 6.423126529519599 5.9669752528631586 7.630202339176707 0.27187924690764786 0.42394740049221824 2.629352531846091
Ni 8.178203293756049 8.64642040631168 0.4904656290643224 -0.03769082968255444 0.3269841583015917 -0.2034735046397399
Ni 8.735112135129112 1.4306357466812685 2.8279194581952 -0.575392575780809 -0.7589426020237445 -0.45373774438077347
Ni 3.6319640872260064 5.936262216028854 1.9570417124564667 -1.4026434752626489 -0.42625033759378206 1.4261819247042213
Ni 2.2236717983137524 2.665738585089393 12.324518571975771 -0.16999311349410723 -0.18806771160763094 1.7385077096626895
P 8.106942042925914 7.7967790848114085 5.04034394332011 0.3121905449321849 0.5390310064326393 0.2730825231871297
Ni 1.0749931595930353 4.202081746661361 10.858099187751147 -0.7277772321645337 -0.9210984788616201 -0.3322145534625956
P 8.721341043583358 3.963004905013291 5.980078068547423 1.0323200307434737 -0.5775543593188183 1.0486969294396005
Ni 7.739943374991383 7.803885852938434 8.767201359358182 0.19902703883261208 -0.145979009967697 0.17475891031386676
P 7.808264212030959 2.439529510374303 9.751603964927343 -0.701040844610954 -0.24531460904524205 0.004515885592482545
P 1.9827883074401345 0.8420312725175574 2.7368154839577388 0.13886528174105117 -0.17921848874711716 0.5942343910776605
P 5.518299448257327 6.726182719507078 1.8604339103997485 1.268695685427873 1.951467299415994 0.2390254336024206
Ni 8.589197557371895 8.126022470971236 2.7076611429603727 1.6179921340734198 -0.3530620863355662 0.21588550515084756
Ni 7.514692930477604 6.0922792812921935 3.6839559492499854 -0.43248757675274546 0.9836102242425964 1.66048089936525
Ni 3.068003783314456 3.5924851146085603 7.618034187938721 1.9229223978987657 1.0042425557809673 0.35823874544049916
Ni 7.868731655498259 3.5813963441068597 4.1225854936980415 -0.17846386996927976 -0.8606325602660791 -0.8825578995842608
Ni 4.445112937889839 1.347373183138568 12.278581750136802 -1.0506491680699648 0.7609133525968702 2.140427440930907
Ni 6.7486920940417034 1.9935821148029709 6.53599693988567 0.1834888339876969 0.8404709977165397 2.1594512903315777
Ni 0.056514937406509966 1.6709846168656934 0.021364548851906445 1.0276226252678045 -1.3069680986455103 0.4266583716654781
Ni 4.793307705721733 5.761634820222759 10.895739249549733 0.23761081264308107 -0.9653409936197634 0.7447516552353431
Ni 0.7717940968351681 5.265857089379441 4.743746524313963 -0.03374650032282575 0.6568518087985655 1.32127937306186
Ni 6.826036959610927 1.0110138112536262 1.3864714689549162 0.5924176495838959 0.7186158773802398 0.45904038754060944
Ni 3.3354431742840016 3.480196334681939 10.501953319807226 0.25922607692001165 0.49540298533004357 -2.571279281852443
Ni 6.823603513715293 8.612029547839652 6.745497274543873 0.30641430457004004 0.244712713795185 -1.0580279770325391
Ni 4.718976994727785 9.073960258498225 5.38276941650777 0.2712220729396232 -0.32210780404589684 0.985300981681458
Ni 2.9821234219143298 1.2387345720553988 0.8544381595460612 -0.04364473327314419 -0.06868804939501719 -0.2737934332112252
Ni 5.034661294097917 8.57855123157849 0.5518354753845864 0.2646845289314216 -0.06888885255191361 0.5187146634727906
Ni 0.07868602609125006 1.521595004628724 11.08884792952533 1.0928767092806082 1.1386577721704647 -0.07113676804582587
Ni 3.4109721730295886 1.534250766805645 4.443101657986704 -1.4082898749151487 -0.7299590703072009 -0.8038839426211252
Ni 5.63796230665557 2.3525338196053442 10.628416922075925 1.000643011355167 0.3439629522477754 -1.1972300732877188
Ni 6.51376317153392 4.596143282586744 5.795442204735719 0.22754700064917582 -1.041756493566025 -0.28254006905560375
Ni 1.0173094307487733 7.533072821068121 10.757632899134153 0.5262721641050744 0.1941339724063689 0.081344304706447
Ni 1.1869408883903447 2.7633990368479355 1.8971558994286166 0.061686421266203446 0.6364534476478717 0.4063122039089583
Ni 5.81524437071145 6.81407251729072 5.643291921870935 1.202507005415942 2.6089734539691065 -1.8065714952101468
Ni 7.756092606844234 3.1745039116408544 11.89035495380209 1.3886985830467826 0.6511699279224399 -0.7379127779366388
Ni 4.379907649004522 3.3827110172870976 3.077392828728448 -0.49723026834676953 0.12724698077583246 0.13171710073204412
Ni 5.4987950106998875 3.646491021815101 8.119733303794751 -0.04924870972348293 0.5340962881351834 0.3024015838662211
P 0.7248092340934205 7.186721572854132 8.591171966882671 1.2821368985344435 1.3358513573387638 -1.3358757828187962
Ni 2.3186130586358837 5.909356047205524 9.737195937353603 1.0536625009749918 -0.7992600706958687 -1.2537467774275246
P 4.309909209112652 3.6659309361859145 12.279944111134435 1.4123969551049869 0.7117127225025033 1.6927050495062783
Ni 4.274006664553943 7.600398157514029 7.592239661444988 0.47380006234828725 0.8298993928482804 -0.4717038419408908
P 1.9579468805888582 4.7341215083888795 2.949687615997092 1.4827148267939432 -0.40773582372936235 -0.055329625810240195
P 1.6203615681580095 0.21810680599439566 12.813414444085447 0.4092897984800435 -0.2692124987087621 0.08940856977182021
P 7.1513444313865255 6.903446348366778 10.634528189609279 -0.32489745097589207 -0.3507545212483121 0.8024963182449792
Ni 0.4160971259182069 0.09434672524535699 9.282296410517723 -1.6430359644159251 0.3014109378181777 1.7545675913390297
