# total energy = -340853.32378703 ev
CRYSTAL
PRIMVEC
9.45358918189583 0.00000000000000 0.00000000000000
0.00000000000000 9.45358918189583 0.00000000000000
0.00000000000000 0.00000000000000 13.83628335113966
PRIMCOORD
 96 1
Ni 2.0097762783961874 3.18000768743797 0.6069516041598255 0.9145527073233024 1.6191272761191275 -1.4225165600374923
Ni 7.110252189901394 1.825128780020719 13.304000679298213 -0.6684729379772616 -0.5009252006998534 -0.11927964629963973
Ni 8.586231571114968 2.2365584224945443 5.956450173007202 0.1442121478752613 1.4292950164119063 0.28072821265784553
Ni 4.557395590023765 9.384473710569596 2.732056940329488 -1.0449243497710454 -1.9778635300213356 1.008900623378269
Ni 4.356024692885947 8.30309658358961 9.433314732257442 -1.7610773674330895 -1.8740292717424887 0.012882512389622973
Ni 5.4965623791959395 4.629611555623304 12.67573690432446 0.8821310964594872 0.4407860693161118 1.142031316628388
Ni 1.68270100966823 5.400230308315025 2.160480665829759 -0.48990442410931756 -0.8822192852979194 0.010840542258929718
Ni 6.716737098391194 1.1944136894454513 4.699770420278419 0.6865238819417016 -0.06301105361489794 -1.19727249648988
Ni 9.049958467378119 6.640966583365627 7.810678990376854 -0.6670212931323997 -0.8114890086618927 -1.6119251019437337
Ni 3.2734091457601915 1.514729642110616 4.488061078320644 0.10305110025591929 -1.7076004785608718 0.3224731578051156
Ni 1.0922676613916456 4.862642521983907 8.351013044283134 1.0610184271194307 -0.42396719798656013 0.026500360283373717
Ni 2.6424955298180453 7.579509435670467 7.218278350250385 -0.013429128921712356 -1.6812996358828138 1.2620169878561167
Ni 7.8065090123135 7.604523631897247 2.3295599940063374 -2.01512601391722 1.6737020260412143 1.3062322489207503
Ni 1.6322944736587077 0.6788537106079177 7.386029449186652 -1.3786046891458903 1.5207229306066004 -0.8434444785225667
Ni 6.453501915498253 8.075690502623917 0.2377227825311817 -0.7373954719805882 1.23811421309659 -0.11147634820513706
Ni 3.750361612893057 3.661403341353371 6.1840302000086345 -0.5705589018375916 -0.5600328054952871 3.0396082937838296
Ni 0.6569497451289109 8.311151041331566 6.08302522013494 -0.03310038209839461 -0.7762396985412954 0.15683806416938798
Ni 3.835651891939928 4.7118010575113 1.349189737617827 0.3770278531225442 0.5933067370570685 -1.7351609046776437
Ni 0.18043781523873914 8.454656520818544 3.653913262868685 0.5551482237094763 0.04824906481437497 -0.5571966215980726
Ni 6.291004175913166 4.0552871228306335 1.5877274195121036 1.3861218234585417 -0.3385942317366943 -0.20981770169021285
Ni 4.592477858427992 3.172482630674358 10.664453723857768 0.6199737048252937 0.13522588521625098 0.4539958831381665
Ni 2.299727303517731 5.761565383212996 13.547547817950074 1.1961795205360173 -1.242114849615551 0.2314170251275434
Ni 5.911849085940561 0.33370223454616316 9.290980552435055 1.6913979006590807 0.9297368712629085 0.2713064051233134
Ni 8.747188375709516 0.19202413379336608 0.1765278108701085 -1.2246038373149812 -0.9809946409966201 0.493700143706324
P 7.555232619377808 0.4982911079957116 2.5034682153925303 2.2084261775683833 -1.6792018728135212 -0.12446144761089535
P 8.838973270330007 5.0306989718416135 6.071097627021058 1.0793429364602314 0.22550914428354063 1.2812807211817352
P 4.9848679728592105 6.960403352263183 12.886076421250767 -0.2630513642033728 -1.0969917598902463 -0.473601573184236
P 0.6350835940055002 3.545209280195636 3.672259842844994 -1.0561744687635681 -0.33326330644208413 -0.17000879722339107
P 3.3901609686629683 3.799794429245982 12.405431382293948 -0.6727211717306544 -0.028352068780131814 1.2295305851926375
P 5.180292562579551 9.273526391250812 4.984769655534661 -2.0762655615410175 -1.268791587575789 0.03523028395720384
P 5.354474938043816 6.410525900363352 5.989436580752518 1.040987990831117 -0.13792528642528504 1.0992851839101132
P 3.0182095134314095 0.3214957605597611 10.751663081451138 1.141027815064538 2.670744207419 -1.7014020630596443
Ni 3.0861619104374958 1.360021659778313 12.788889745933382 1.9095997126479307 0.9233296821849841 -1.058026177260326
Ni 3.3193252270426843 8.261585874734056 13.75668294765065 -0.7755953800890771 -0.4158358271286774 0.2933109344188626
Ni 9.139758108329817 2.536482983904544 10.955679092762898 0.3763657940585131 1.2149722277624881 -0.7361130057237388
Ni 7.913476370705801 1.6368227427413333 9.313118966918756 -0.7583715600116231 -0.2750784705712359 -0.5221931089396943
Ni 3.1075175677603593 1.6593979130321699 1.9476784889952585 2.6345279053994433 -2.336102018351519 -1.1040304119045823
Ni 7.465054834870149 4.158917364341583 11.117910241141034 -0.7715479494925809 0.35437951959540903 -0.5138671055725021
Ni 6.40165843397608 2.84608802034713 6.294235412598847 -2.0678017470443804 0.29819268799119614 0.37213735779946233
Ni 1.6568738047961342 5.559844703285914 6.072122396057711 -2.663926927386851 0.12220581880749921 0.3511610126581114
Ni 0.6970641589040811 4.535595614022648 12.22735885499774 -1.5207427281009422 -0.7303815025566002 1.7568710426612257
Ni 8.463108029294258 7.062218504705523 12.757993526693637 1.9698596858802526 -1.0826586310970259 0.7701559542410608
Ni 8.575804262559359 5.091173580028582 2.7837075686381207 -0.44580460557662577 1.7071474501838535 1.5629908381368758
Ni 8.462087041693165 6.64284784755653 4.4505511282871515 1.2587653136880386 -0.9802230529379184 0.743737612148532
Ni 0.810127191418464 1.1345724717147163 4.6291918162761885 0.24500196290082968 -1.6153230718816889 -1.5524392878732747
Ni 4.917000658153216 2.7391773834882227 0.2835320382591157 -1.3917540820436547 -1.1756569751026333 -0.7883488231000035
Ni 8.88334841662196 7.102689318782187 10.105509334844896 -1.9976556250465982 1.7618607825663335 0.8037535876908479
Ni 7.088007895222024 8.252226821724037 11.677269642706573 -2.337688131891716 1.245321786588623 -1.4913989848315024
Ni 1.3419558513923044 5.858871173750508 10.678967818894419 -0.703520416499698 0.4375400515749884 0.7411371984112075
Ni 3.8268033327304543 4.793442251243152 8.462118238536531 -0.5719668379287117 -0.22602927845306878 0.3280159420002157
Ni 3.9274367865604183 1.6876546902513117 8.95107865428892 -1.3272705576482884 -0.2639692480319518 -0.004850900334398097
Ni 2.7730779532800733 7.542148852341577 2.24510257614147 0.4372230345552018 0.5507395531188193 0.13221203809059165
Ni 7.459987711220279 6.071567470389339 0.7089681180457148 -0.6662499621840138 -2.586017359393565 -0.07072976241539432
Ni 0.740772827178655 8.447169278410527 8.58937110798833 0.1898507716499827 -0.02338032659715328 0.5994614438045547
Ni 2.9608924039367106 8.16326855018435 4.8262064996493415 0.09065709746694064 0.8532167274179823 -0.03165336523922291
Ni 9.295146749062848 4.277446461957374 1.0152691251680968 0.40666650192458353 -0.6324217007806592 -2.649251584762863
P 1.593912902728726 9.359743122009785 2.2511216761934696 0.8489281273449573 -1.637436873061593 1.2391377692650982
P 8.037724889605494 8.993709613429008 8.693820975656823 -0.039656180939041386 -0.6402062298220845 0.5541809747002004
P 2.404841758485826 2.9213291343943526 7.876608319358551 -0.12729428907400012 0.3305135116110889 0.03705422453982006
P 8.58487970790241 0.21273411099442788 5.562337614678583 -0.6712011355417021 -0.9760776633109769 -0.31113253598131574
P 6.126814243915155 0.8185664102286104 11.555952681724463 1.0032472817472335 0.880595119430935 -0.5232901986586149
P 4.482041032909754 3.164314729865613 4.396077658333274 1.942535801254319 -2.244671275943347 -0.03833180570066302
P 4.879224116912772 0.3569457735721597 0.47357186374257954 -0.40478316885894156 0.8867919922702664 0.23634043057108975
P 5.4930267369477095 6.0352089674837455 1.8670819168367465 1.12026512859589 2.0278935979955333 -0.8260383672309773
Ni 5.900230625183677 1.5485640367801736 2.1253501841221474 -0.03806981028852798 2.5914948375683693 -0.3315378391105452
Ni 2.767093831507 3.549113612410927 2.9762119447475563 -0.7124406018074634 0.22841063420105176 2.1044353391070145
Ni 9.390675264887347 8.98268672877276 11.54327920044645 0.6094252398854859 -0.22015250795731764 0.04151688829686399
Ni 4.521178890951657 8.891903914575565 11.805240984914695 2.0130753020357783 -0.48751201261774113 1.2764619596368534
Ni 2.4233707927278862 7.911491117037009 11.188059652207249 -1.098404838187689 -2.1470421180339474 0.661561555569409
Ni 1.282549498750924 1.0128953289955553 9.862280782138932 -0.45147800181231923 0.3681503481272563 -0.8984110645664334
Ni 3.591768205523261 5.621255216773885 5.125609222952116 0.4514150097848677 1.3733701802198284 -0.4580409997418176
Ni 4.08922550697808 5.557717645783637 11.088853690301036 -0.5496020970802664 1.5102279446125475 -0.812377324804117
Ni 7.07437582002965 7.981958168690232 5.5508127444518 -0.7056359201808041 1.0941704883913672 -0.25698638895621545
Ni 0.2704114022261794 2.4920511160791956 8.123544569630708 0.13697217848339635 0.502303826214935 0.061841715897145114
Ni 3.6297432721305856 0.09480058947927489 7.184517693574239 3.665643117201539 -0.02854515862754439 -1.3449834015470192
Ni 7.562209367985277 3.81184775509222 8.047140664148907 1.9914410115954542 -2.173929172232779 0.8351542134893164
Ni 5.048830955349914 7.1488511933760535 3.881173758565332 0.7799464579689213 1.1984747443280974 -0.5398748424901735
Ni 0.16196172109451348 6.948529644606026 1.330661648734657 1.7941502387276584 0.6700325691548976 -1.6404255233762715
Ni 4.808728704492852 4.843962230319463 3.415569379546838 1.3746660162131163 0.3891822290968911 0.0722109749466111
Ni 2.074051229320558 3.5965611750950592 10.49519383213322 0.628686144997627 -0.9308079928399001 -0.4912275137961153
Ni 6.7913542755710825 5.74862342001025 7.916511918101273 -1.5092028457821427 1.8101874946961793 0.008311348079172784
Ni 5.896505911157467 7.81463909876665 7.595372557843005 -0.4542735622795854 1.1589283494940428 0.7304581214308065
Ni 1.508537541381764 0.6751601934250744 0.3349926494308781 0.10488609658212905 -0.9162241814884543 -0.6356996002009826
Ni 7.738821315796587 3.248082981099743 3.6306130023092944 -0.21708415344463902 -1.6143365395987037 0.3813907580769303
Ni 1.4962384222241518 2.8768972665690042 5.625057450229067 0.6086166279412615 2.518245136944598 1.530891900719802
Ni 0.13485544564438134 2.4983661134637343 13.262810447106336 -2.095363458712733 0.6685724396696034 3.115997054257214
Ni 0.9087716101440765 1.8392808026025373 2.226589613000538 -3.070486728530241 2.35796693674541 0.9969143975506701
Ni 6.898123108596503 4.914571085806171 5.332281692744499 -1.0401433834426346 0.4392117828504565 -0.5851589111389536
P 6.217143285845199 6.84228075897005 10.153410669796182 -0.45632170305786574 -0.06354764284465829 -1.142855612301896
P 1.78566949995625 6.5325339186939795 3.9652577596686887 -0.6573989395512873 0.22195382283211454 0.9916474927247759
P 5.867663011426587 2.7212061109912047 8.993473273706531 0.972982569325421 -0.24549021539115787 -0.7870753557042187
P 2.6743919387633057 6.557992433599013 9.390381258272587 2.318739872923987 0.8608655022124916 -2.7889537605829133
P 1.02001388143651 1.3163933470093807 12.00012482935001 1.594304560648493 -1.994725338773681 -1.0936506113321554
P 8.936676111601278 5.0669723924471155 9.778142895578851 -0.6155722333234882 -1.7514789251113771 -0.4679006661447167
P 1.1120162086016778 7.302594909640658 12.96436159092347 -0.6740316630119616 1.428617016508275 -0.7006844897127997
P 7.801772764275096 3.8453890885059083 13.242927658933937 -0.30479399535779766 1.270581589596676 0.47985115363837366
