# total energy = -340891.8471907921 ev
CRYSTAL
PRIMVEC
9.02423815540054 0.00000000000000 0.00000000000000

0.00000000000000 9.02423815540054 0.00000000000000

0.00000000000000 0.00000000000000 13.20788472440055

PRIMCOORD
 96 1
Ni 6.355951537153148 2.2426495631305055 11.336763468032366 0.4947195861097738 -0.8805349556169608 0.8648067462484268
Ni 4.450564832947598 0.3122341339302169 5.954867459945232 1.2631667851898438 0.28282031930018386 -0.28967565165912046
Ni 2.6562123570944056 1.7085139209045883 4.905487516003219 0.7217341112942474 -0.9638042452602626 -0.40716452460692454
Ni 3.342325196953779 4.459823701469178 4.732318699510867 -0.036742092616039945 -0.04725996142822828 0.3732506454682991
Ni 4.842911642609127 4.759771334919735 2.671427222910569 -0.149724078832426 0.008098974958050568 -0.2949636395309372
Ni 7.040683668548778 5.765676108306619 2.7248128119943527 0.558053313171413 0.2569038565447382 -1.4273450917743868
Ni 5.1082152251295225 4.336868454289329 11.419444441991008 -0.10591788028075305 0.8991250599143225 0.24485541002063638
Ni 5.784211893826429 7.677072955236702 12.402864423167006 -2.4100718849707654 0.8604926922541051 0.7653245942906883
Ni 2.0366171779295406 6.348145571001914 0.32876924581334627 -0.42629533189910457 -0.3310812111891007 -0.017695103286917913
Ni 2.6636212567593347 1.7570823715704196 0.23123076587621574 0.0492358542076765 -0.7504373927662108 0.5078062440904029
Ni 0.2396702335578741 8.850115646643257 4.962823014201911 1.2868924109415578 1.0991476298909846 -0.3042234675663083
Ni 8.540972314339395 2.4004654429603187 1.5462996273151082 0.33632754718970465 -0.02476589409077025 -0.9155454102538749
Ni 6.841383365138356 0.6067094692604171 4.5748547649757345 0.19742215623933743 0.08489602661344733 1.7420368058618705
Ni 0.6263371876175674 7.128038295536003 2.2948565866890274 -0.2809202740639936 0.24560025860646087 0.7197011400246186
Ni 7.5829230767906575 3.7297176997748127 3.6930034885728675 1.5118791070627253 -0.9282006371240402 0.9456347734400875
Ni 7.4561505767992795 4.046666998229908 12.82418264754752 0.1933680407746218 -0.5360122742109736 -0.5634032646294167
Ni 7.931502330575322 8.776306401382046 7.001222479200663 -0.6436345387773431 0.707981280484529 0.013206214277628869
Ni 6.665194136078585 0.6423561130684996 0.3832440604629729 0.8105844945697523 0.1562410540153374 -0.2042183532255644
Ni 2.06441183197093 6.417623181867063 9.130663874966288 0.18138310049860373 0.5475051053419215 0.5560085148272423
Ni 9.030735776720665 4.832768398731684 1.4716619569756513 0.20683470780248897 0.10266389211982965 -0.5420762210168665
Ni 6.267902043814888 2.0614970029919144 6.5590095334021505 -0.24260132387913702 -1.413888709159165 1.0421580998798181
Ni 3.4936526494278266 4.240263983018848 0.46624088276299447 -0.40317005873555084 0.2717740887883513 -0.3118406177919339
Ni 5.91149877540234 5.790465690985742 4.814881455947451 -0.3097881061382794 -1.9627994365993615 0.6095062296350665
Ni 5.555952809630678 2.8509734686272874 9.176600857736512 -1.4289561450152488 0.28168620569574065 -0.34666775277344813
P 0.10026831203048135 5.877107403145282 12.487843870627058 0.6397467736871627 -1.5939201807258807 0.34793864906607175
P 4.0254780866425115 5.944220663569248 12.435540287718458 0.8344427892445888 1.4844873453133336 0.9762452992370929
P 2.2556083693653872 8.263061870878797 1.4389725560667128 0.923319654882655 0.6834393294791069 -0.16514478426287044
P 6.453196729344712 7.624109700506535 5.725076962505707 -0.008236271866863236 1.1112289865355507 0.9530464925231265
P 4.843110175852279 0.8213951965913459 12.499031218878718 -0.5338404633706355 -0.9676989523289785 0.2907498585599057
P 4.143018790827284 6.04991254283313 8.157110093551152 -0.5974390140578871 0.5125900386322914 -0.3742497761567748
P 4.7528858410776635 1.319271449226904 4.074434579556322 -0.22925421314826971 0.24358708483117403 -1.1716026025276016
P 9.223854476878373 5.363691412113856 3.68423373376851 -0.013322685250835119 -0.2577597767871303 -0.7603603083068775
Ni 1.4785582799037131 0.9135868153208389 2.6331635499882 -0.4121298390319999 0.6647618076742616 -0.6013244651552225
Ni 1.7109685137290227 6.582387725207224 4.66849838365174 0.5250832860032957 0.6316033186444219 0.3598724243891802
Ni 5.99712074863114 5.629789127606863 8.998585122839737 0.6556228214874708 0.2945270662141508 0.9451112968364496
Ni 8.677707573441714 2.3443707775313323 10.360661241714213 0.08813921614109337 1.8109292579582101 -2.3985353450860756
Ni 2.5490134300302274 5.229889030467204 7.030121700013049 -1.2873197282869635 -0.6989574797193641 -0.6232670308645847
Ni 0.3858836501730724 0.09562714625986876 9.149392779186256 1.3391421122748937 -0.1875923146331092 1.049955998657682
Ni 1.3224479811173486 1.0513057164005957 11.512309268899555 1.465075516445625 0.289508787063953 -1.701934024303714
Ni 4.189249963766908 7.06373157323115 1.6645505390560693 -0.4175718359831776 -0.3560047139036579 -0.40342845460326004
Ni 5.749513697466317 7.922649552778372 7.7956902510536645 0.09602967463276364 -0.031800689450364586 0.950104379175667
Ni 5.4278266738905305 3.389034654524634 4.562822748016843 -0.48607348039900156 -1.3708597550931487 0.16320103027293828
Ni 0.8794192441742447 7.5710471791547915 7.133908562566497 1.005799872965758 0.6467471162643958 -0.8574968428505748
Ni 4.998254881137854 4.258140999140925 6.9756920065550485 -0.2894949031068821 1.0549488238865832 0.12444344988876632
Ni 8.289187040830038 7.151772042331085 9.256548389906474 -1.0714648192637353 -0.45689660172472923 -0.20210516353730354
Ni 4.678111002315665 0.2239861073488041 10.160416100551153 0.10614825112400428 -0.33388165675237336 0.5404181165881532
Ni 8.001097256538698 7.080561777707511 4.294266830004071 0.6446336694658188 0.6078152150858888 0.651580018876665
Ni 7.36102608061412 5.965671278068074 7.078977121457619 0.05670979398721846 0.8030071964431268 -0.5067842305837916
Ni 2.3087069876704316 4.941844367367489 2.4975581255241877 -0.5734922734343026 1.7638109643141688 0.6678774704851078
Ni 2.4678313820573887 5.0864938834809434 11.244981549722835 -0.49417631201179407 0.31213783731737854 0.5102549627412116
Ni 1.1196101762834785 3.117829220139605 3.7751962512381203 -0.606688043459981 1.3816257353604011 -0.0029598539592723214
Ni 3.4827152725777735 2.8468313432360546 2.7596951028162975 0.3013577159827391 -1.6897446813263737 -0.29246812680259304
Ni 1.2042755802498162 3.3685676820032473 8.526020053858492 -0.26190362375217474 -0.04269213955188777 -1.4728181365055215
Ni 3.5178285839008407 2.4364180084476232 7.272234794885535 -0.34201688426499804 0.9358620103240398 -0.8966416313708364
Ni 4.1430909847338855 6.861390101505163 6.053609773274935 -0.2690296932739948 0.026904023479695602 -0.643584402265698
Ni 0.7424466476039759 7.63380173246772 11.339510446178535 1.390152798994806 -1.752639006857749 -0.18434012624439866
P 0.4369888142320967 5.7542604468253336 7.918311601415484 -1.0436562816918993 -2.431025347293981 0.9586034177856136
P 8.677761718871663 1.6588715858780672 8.000755237906176 -1.287042306255861 1.246619422354124 0.0036797628444323726
P 1.9551102573769974 3.1326740921844385 10.555609154980425 -0.43187873952415295 -0.8769675499806767 -0.2762313532287565
P 3.808066136913562 6.365751859974235 3.809986494829148 0.11723099130072713 0.3086125977729395 -0.284062162127085
P 6.9480227894263775 4.1596233893455175 10.270240178544109 1.218624736913411 0.07855388644550343 1.5750847931869325
P 6.404122921332673 7.839852166145336 10.26733437380342 -0.08283708720188959 0.02306048136388932 -1.1958396206980952
P 2.3923977738976556 8.574100293230934 5.753883233663344 -0.6443207662110902 -0.8671593056410033 -0.11645606080791557
P 6.65061096694518 3.6785683169479952 1.6847711498711804 0.007765245767715659 0.9495793599101323 -0.5958138197496384
Ni 5.024623705523875 2.585615740676941 0.6020313041126716 1.0085501820173857 0.5581584712907097 -0.27404077333534094
Ni 1.4401420973536494 1.018186761747381 6.985267625841839 0.2200182963722985 0.823850101330407 0.36905846176382245
Ni 6.918712063346366 0.9432855836488304 9.239087391171187 0.5190219103005642 -1.3947887551049205 -0.5157704932428021
Ni 2.7120001984203386 1.3284942207951835 9.189689613003276 -0.45350763064783833 0.051505624078459676 1.0738086369055635
Ni 6.309458661302096 1.700852342566556 2.5352271011409315 -0.722135460497724 1.2219453166462118 0.5469556605963548
Ni 4.197850062890754 6.751294393938618 10.267744074223378 0.4112291815946015 0.5438258567181216 0.8984084934632721
Ni 8.171429754925462 7.579295332983957 0.41617621338285726 -0.8958132219322701 -1.8209203077326508 -0.2826411134098422
Ni 7.511072091246 3.758577213938567 8.223532999743245 1.9674922140893407 -0.6695602575041694 -0.635984478431253
Ni 3.042810726942828 8.172052427369895 12.25634959699175 1.1390370098867546 0.6294186522882773 1.091191094048069
Ni 0.20245156743355458 4.990737690613025 10.172079026162544 -0.7548938858756676 -0.1687641261830126 0.50180606064291
Ni 8.657691812836582 2.4136588793916536 5.842574350346521 0.19342614770606686 -0.20892141512818857 -0.12248401216955034
Ni 3.8410677764685492 2.301370281912104 11.415138977886091 -0.5585011993421091 0.7691020590552495 -1.283191822161519
Ni 0.7917343300643198 3.4544333096668267 12.494250177414067 0.7428181856580562 0.441390278559014 0.18335899327805194
Ni 3.3725744438196035 8.353159866316862 7.81020573839963 -1.2014603093189824 -0.4272854637265157 1.5248024999926126
Ni 5.727981864822565 7.791509321437633 3.562470588471409 -1.5169439231801425 0.8076655211507445 0.25835601561023247
Ni 3.1415178457430626 8.630113740514995 3.6821599638013955 0.9235029745380547 -1.169219704117722 0.06529393611180367
Ni 3.5626429514234195 4.048092827885278 9.20745472857012 -0.41255278550203145 0.7524094288909171 0.16388494371384033
Ni 7.23199752104146 6.216951194231224 11.504397719159916 0.7308201327559155 -1.8612472894864718 -0.9079673407963008
Ni 0.5783228251848991 9.297221534461652 0.301336463728794 0.4659435424183459 0.29766381207091963 1.1426535235934192
Ni 4.354907906701256 0.5349676769994934 1.6539181814614052 -0.5566438344183962 -0.7673467669270398 0.09068949336677283
Ni 5.91475652543771 5.554472834545357 0.6372068826801823 -0.6763672531236739 0.3491542666407277 -1.4992940713088632
Ni 7.9680143988387835 8.835361016981674 11.52438189493091 -1.7800467094467407 0.7997341821188099 -0.7728088184828755
Ni 0.1347011957838343 4.854354376805387 5.911307461549846 0.4651655266017408 -0.43052119705499403 -0.3249714987469371
Ni 7.9738530810351405 9.110871013047788 2.404944172441079 0.7522909010351818 -2.2450883088761078 -0.45608978955271773
P 8.584839136837834 1.637186341182788 3.6536442731178282 -0.17517902857042086 -0.24712543700173564 1.141607598827408
P 1.6739420638810285 3.1718753834687887 1.456776475858355 -0.1905853358231621 -0.09938496425824174 -0.06862557158819795
P 4.92589853824699 1.0995583187250473 8.115149190186978 0.005626345047841923 -1.554975424031567 -0.11261868933969638
P 8.378310418528988 1.7606559699471698 12.269227185081704 -0.9751137567358109 -0.011574592211476841 3.2038264524673727
P 6.3850908027049815 7.570171828037254 1.5969129703854132 0.04170612148953462 0.40617207878666817 -1.2602614386175908
P 1.9221717874902853 3.3558344817264936 5.979380900931607 -1.0474126634105383 0.24242905996733086 0.9040955165457204
P 6.9202100869083365 3.978642289735104 6.073712166567987 0.9955956787392467 1.5607012707717507 -1.5262099218631007
P 2.462371717870687 8.338224751888777 10.199683268775274 -0.07070302294251694 0.9050990181095702 -1.2170332240565749
