# total energy = -381162.79644812737 ev
CRYSTAL
PRIMVEC
9.33391452090318 0.00000000000000 0.00000000000000
0.00000000000000 9.33391452090318 0.00000000000000
0.00000000000000 0.00000000000000 13.66112738788923
PRIMCOORD
 96 1
Ni 6.9459724206285705 4.957773978921085 9.217381426907023 -0.1345949365004714 -3.153229199135795 -0.4444429493424087
Ni 4.731874582249578 8.413730462385228 8.350992556644895 -0.4669005070149765 0.2466487544756333 -0.751281743044377
Ni 8.542445142167894 1.963080878016756 8.010051731417233 -0.45894525672364184 0.1255189423411322 1.5774003286939866
Ni 7.633144533774305 6.852147912929125 12.864656087526589 -0.5370828815673331 -0.3743456783046908 -0.2596757628629205
Ni 2.5172353768345155 8.576569933269086 7.135356610717209 1.9671587420093217 0.3973387967657544 2.5932994948772756
Ni 6.180414094225777 7.6238572889313945 1.2164218615214273 0.6116656991802304 -0.13776690647054984 -0.21844015325190122
Ni 8.990155680997146 8.385038009473558 10.810541542220468 -0.4205748844755595 -0.5498769480082079 0.8197815876879881
Ni 5.529009541118271 6.141006307565703 7.533947424937594 1.6177771898491362 1.1389043409636321 2.1793871100235562
Ni 9.115612824648982 1.988823813973289 5.937563375585212 0.30507450271269393 1.4754730576298654 -1.761984195518075
Ni 7.989205366962803 1.652970905493238 3.6828210068861598 -0.034436584411314884 -0.5355759580045034 0.7734806477389196
Ni 2.0788214167625907 9.156542039358698 12.579425663876219 -0.09218510407569286 0.04050644475447862 -0.04000945051340206
Ni 6.702282583082098 -0.07726147657005233 9.410549585899497 1.1207235562895475 0.7091120516548626 0.07510706554748356
Ni 8.495476884831682 3.8612817169349394 4.660752954581703 -0.5519752252981331 0.45943093811080876 -0.4643391740457036
Ni 6.025527118423488 8.63576561848893 11.95688810787994 0.4170280476645657 -0.387452648000294 -0.6125959243039837
Ni 4.667349231898775 1.071505373097227 10.265202925567662 0.39779593890783105 0.588389245150793 -1.8495760237961307
Ni 1.2725205539383806 3.964318798161977 12.42867454555121 -0.6709188284145929 -1.2387870707938988 -0.7271622242883541
Ni 4.85290745046871 3.252654493591317 13.450473090822868 -0.1421192699019746 0.7105359285855827 1.364601689998579
Ni 4.614099250161276 5.639392412989904 1.2445421454794579 -0.5876420825721235 2.763067893955087 -1.681903330905084
Ni 8.112459706812702 5.141717430297229 11.335798242009428 1.4658383627535787 -0.18253546893549208 -0.36058796239896607
Ni 3.24004437521667 6.29766672710684 4.035319084942456 -1.0388645167302109 -1.708164321484142 0.5261816612737971
Ni 0.7889939187159419 8.084243283536198 8.726127243940418 -0.6525992041697987 -0.6298218012639669 0.6030375911915872
Ni 0.428536811837986 3.81518151363932 8.651427926877279 -0.9968238947193928 0.5854247632058304 0.2981754616000155
Ni 1.261637209730506 6.292057044543433 12.741979516978978 -0.33002500201044455 1.6202477628768162 -0.05398442463625542
Ni 1.952328208610691 5.706335247174188 8.1252014333806 0.2306652345631834 -0.03372670282848385 2.0287418049284414
P 0.168657299738719 4.241013357079843 6.562696693180296 -0.02564084049655584 0.13456176926969082 -0.006763543976078675
Ni 8.091477067207812 3.088424269459626 13.429311240061208 -0.6198855159868615 -1.1289143196304559 -1.3000865410343285
P 2.645567366126168 4.083456881754867 3.177523949682206 1.7346363996327416 -0.2521275182020174 0.4640614949042846
Ni 3.4099776210559174 1.1061995329777325 5.637537764195646 -1.0965413026163888 1.1091883019564381 2.1413954612711312
P 7.796572041266308 0.8610172025163038 11.537532134260537 -0.1216023808955454 -0.5391112248512716 0.26268446778225724
P 6.503395534727561 2.367883412280314 1.13574417227549 -0.2338660008886682 2.0325064141771962 1.7376767291209625
P 2.625854138881716 2.2249998504156974 11.21003401257334 -0.5729623690727615 -0.44096064722076317 0.21676765064548473
Ni 0.6730667016818073 4.367245215628122 2.833946293632312 -0.018072027010362424 1.6787457591127088 0.5041709613306607
Ni 7.977323293912525 6.740570300012373 2.9985358734689793 0.9318184363822855 -0.7973597683493623 -2.299558157789214
Ni 2.492285823603256 0.617154687553154 3.128794382695885 -1.8073829353678488 -0.8149034336600804 -0.08450367627103511
Ni 3.8628591484710717 1.8182371941249924 8.04088445090426 0.44285503602999865 -0.1616390851024571 -0.22196282169317902
Ni 0.4695920343923049 1.1503582820750347 9.934235387892416 1.031846690651481 -0.3436161104313179 -0.32370085956462963
Ni 5.809820356293146 2.802507803099754 5.110190267577727 1.4930084954104674 -0.781771426992802 -0.7754938215142063
Ni 1.6178660533784732 2.294500177149688 4.398896519409343 0.32990236038965115 2.546780268269814 -0.4559188111924922
Ni 8.950813231737976 6.046360415397738 9.11546908236699 -0.4019701248901787 0.09340303564319397 -0.3242629027156867
Ni 6.173955025450606 2.5791658989779522 11.660018292954083 0.9087530699223897 -0.9909980320662353 -0.7662741026881513
Ni 3.260130959037721 5.2043573299362045 12.07206487819511 1.704277584835226 0.7226021157214975 -0.8354874284590192
Ni 8.11075160047476 0.4306136077953205 1.69559142549495 0.283858273646395 0.30546042529720296 -0.2300887932344231
Ni 8.452400869806517 2.817871426226822 10.54990131609638 -1.6138331175997238 1.2941838023966483 -0.14535191790665936
Ni 4.101116647828022 8.0650620894134 10.592824254925137 0.28946893496495313 0.13764555040133714 1.6332593446451356
Ni 2.6247900726384072 2.2774937850855825 -0.10526882016366139 -0.025481174990239986 -0.8068648796263201 -0.43582975375210103
Ni 9.24419682962984 4.876634260911606 0.4787579383478218 0.18063310970645663 1.9994489695015951 0.6486541034791216
Ni 7.98412771752105 3.5569494374342976 2.1454664990770373 -0.4485772832257565 -0.6404116609646713 1.1309506333341943
Ni 8.82556143420327 8.882367637332878 13.353738268608828 0.30203237345226047 0.5349167271539497 -0.9329499788835676
Ni 0.6251883876901331 6.068295114272957 4.609332420069542 -0.6341299417210176 -0.3697439178666213 -1.9678627100548818
Ni 4.451269113191833 0.7462511244353933 3.7831755211103304 2.2240937089023114 1.6216384725767554 -0.05171311210357546
Ni 5.18552149064676 5.179463780191434 5.639531488314686 -0.1884448924413916 -0.5303517334910866 -2.2995815548279817
Ni 3.706777431623664 3.441918276184002 5.099275188060842 -1.5378359361378031 -0.03140293979131366 -0.4558468203039762
Ni 4.093789525012258 2.047851488733665 2.0103300861768596 0.10167684561621199 0.8674678380203577 -1.5301010293873907
Ni 2.4810104549899523 3.5093464739178657 9.375030307984707 1.5918792390364518 -0.8573842285321104 1.1641510313455627
Ni 4.1223046335500415 6.201984770438811 9.345959831539231 -1.2821366414241273 -0.6321177963869953 0.36100705221425566
Ni 1.3214302654729109 5.318389762344096 10.427264881380752 0.6337795003601343 0.8730101079948256 0.9132494151308466
P 5.274763046368449 6.727008122367398 12.988931557613489 -0.5195775256937181 1.5291661762779472 0.6543277568251312
Ni 5.67741878031656 6.640137380907117 3.510800697783721 -0.9632581429488057 0.3363445164705691 -0.12144425805112634
P -0.451967737193927 7.136608288640258 0.931594662973784 0.8440651428257012 -0.3046965505479849 0.8630427123694686
Ni 6.106125469396898 7.440016510613816 5.719626741301129 1.5888967593693604 -0.18387244257936075 0.6039320779813986
P 9.845412924927961 0.5615870948664137 4.494155649754372 -1.3737859276010085 -1.6954350468429316 -1.0272603568323793
P 6.735175297480511 2.220668914127143 8.9997182763153 -1.8405761342903657 0.6808535710298016 1.3991046088714552
P 3.4845089276595864 6.594279859386287 6.891109538480162 0.780757898126623 0.12625119252146644 -0.5305371100290154
Ni 2.522639713280793 0.09918217457364857 9.446532759360712 1.1670134404950225 0.7530475766955483 0.3398957241569372
Ni 0.6082874688589166 6.8242021731706535 6.674279906445697 -1.735291002497605 0.9282975677132207 0.6255126323656518
Ni 8.318281853577574 7.912377917413047 4.782296387919335 0.2962234800799673 1.1129644811694186 0.8983365025747561
Ni 0.9606931411625051 8.02255544316755 3.2130693625573583 -1.1873588369205936 0.026396744825973893 -1.5331074203138824
Ni 6.099106365756828 0.7795956002914918 0.08519343703990802 0.7627614615492025 -1.6197384273405655 -0.14492742877473105
Ni 2.6961945179130553 4.6580993227135234 0.5496788868557737 -1.1310817595954197 -0.8071577282763905 1.3573594066138688
Ni 2.106029777282277 5.008102445446694 5.965868471048658 1.3030314825952656 -0.48880090663249365 -0.9539666903445507
Ni 0.9255145511238617 2.797430153658001 1.2551650734751543 -0.7215330510270347 -0.8744167585343651 -0.40992177563708754
Ni 3.8320572309016154 7.919406354967532 2.6393705803460583 0.8847492508086247 1.356484203097767 -0.6708944029345608
Ni 4.085594348155899 8.329547888276462 5.080613892970959 0.40693312532240883 -2.0724302469553275 1.0311535212391982
Ni 6.269487639487995 3.6044123922345053 7.268566503682133 -0.266756838079418 -0.36514370009044855 0.7155742623404386
Ni 1.2830025398264104 0.3321286766284714 1.3252030336794483 -0.21905207580428726 -0.2797247110939957 -1.8381832085781569
Ni 1.8477883671628401 8.345835568930614 5.205203915973644 -1.6171814652466665 -0.6513072248312525 -2.37637320716674
Ni 0.31090802220599917 1.7202310927676319 12.328470307349122 1.5004847491828546 -0.7431699125705201 0.6907587459586555
Ni 1.8976128023100391 2.7029429380350907 6.866000375312406 0.3794709153463981 -0.03723394465079394 0.6172876733526982
Ni 6.378377085053231 6.907367350608186 9.827828763561568 -0.15789890133373452 1.705445122780766 0.8867397988760923
Ni 6.272717173875581 9.247277021386784 3.0156393382430013 1.35933375673142 -1.067233040570575 -0.7115977941911938
Ni 6.0280286074867035 4.962664950074538 12.249222573791558 -0.13092880050279387 -0.19122425495874162 -1.4031121873689512
Ni 4.154282624335787 8.756051773554864 0.41927663534687765 -0.6554094199250841 -0.46940270461154 -0.2742456902572954
Ni 8.379138975563286 9.374703620980181 6.602149282629562 -0.13873004171476752 -2.7496364510405287 1.2454094612064228
Ni 6.332510229617985 1.2067351251415543 6.959483261744264 -0.6394724369798536 -0.043603595622563614 0.37194786749647557
Ni 4.806797913258676 4.263424085590225 2.8319516361218295 0.6161939260678871 -1.366325614668221 1.9295548156136189
Ni 6.744033182260334 4.826623147476107 0.6709637707641107 0.08690945749905032 0.75206721506015 1.1860930828342928
Ni 4.304670653390052 1.1774919712794008 12.423825577012625 -1.157811205170464 -0.5721784397188855 0.06207054407849955
Ni 2.1196106227560825 6.926473873415663 1.5043637873093518 -0.6152747566877275 -0.3904042744294502 -0.9666005770584771
P 1.0007823035748729 0.6759779495878416 7.727279860823771 0.2971421352394947 1.0240115108777783 0.19169733794041824
Ni 7.618443618570701 5.356378794013092 6.486918375610785 0.5363274914585473 1.0837999437903205 -0.02773448980079094
P 7.854825001130239 7.5949781577314255 8.1572503619159 -0.4535148297366899 0.43608197897222317 -0.3893966591005423
Ni 4.914063257715703 4.282987970204038 10.436431718727711 -0.7065052101596349 -0.9563027946768949 -1.168234200276001
P 6.131597721835397 0.1215294324660097 5.136091880079316 0.46625130346675187 0.9937763661423208 -0.09169119515840983
P 6.884545929863544 4.928120132824673 3.6341194416430835 -0.08257072091438038 -1.1427941629363416 0.49482654400128323
P 1.9997538277532383 7.638632875450318 10.963737212730761 -0.8851066341480434 -0.5673841036540358 -0.18676519074612352
Ni 4.041986300009081 4.361010160798911 7.778467980866999 -0.6520675000360447 -0.9665679240483289 -0.6865326236924499
