# total energy = -381169.2825680076 ev
CRYSTAL
PRIMVEC
9.26720570736112 0.00000000000000 0.00000000000000

0.00000000000000 9.26720570736112 0.00000000000000

0.00000000000000 0.00000000000000 13.56349229622783

PRIMCOORD
 96 1
Ni 9.381192438349604 1.8022954525364707 0.8512530902037542 -0.4502562135900761 0.36942664373651857 -0.1401724305882489
Ni 2.673264523094457 0.386963299115098 11.508853926443708 0.06775011096178009 -0.19872750531432226 -0.3509738363479697
Ni 1.555055668813534 5.862119308462961 9.752178147932984 1.311486298230838 0.7914516303950434 -0.3242485045379835
Ni 6.760167154388781 5.154447671428791 8.783175014025867 0.43312083946137026 -0.5395164307094901 -0.011839415837089286
Ni 4.118151649275273 3.0249179146440115 7.45643456795695 0.4900568905267818 -0.6041886740768949 1.4240134562979927
Ni 7.0642056425023565 2.410316825528783 1.8532345026953925 0.37736569607793713 -0.26067849309582203 0.12452623941055972
Ni 9.267298478982504 5.913218681282342 7.906092367797053 -1.7363202150930679 -2.107257896157474 -1.7490569459334457
Ni 2.42807279185485 4.914584583528166 6.391985701282577 0.8154719045690406 0.07823044166781365 -0.559836630324081
Ni 2.353620060402019 2.587644808644282 1.6904588128585067 -1.9072826344789797 -1.1193865826456786 0.8848834623936438
Ni 5.3267806306143575 8.63155889342168 5.686887567300989 1.3114158500042188 2.042118483345664 1.2145629081392115
Ni -0.17486475981201852 8.950415643620529 13.082422692297733 1.2984009258017897 -1.4624277944101332 1.4257929167959187
Ni 3.730680507281955 2.0225954689786785 3.4339371635795897 -0.37885899279401203 -0.5330989572189205 0.6835025786168745
Ni 2.8332350297335864 0.35326032503647525 7.3226717193398025 0.6576519361023577 -0.44564288318778095 -0.27341136728145815
Ni 4.69265353886394 6.535947109890244 5.93386508909959 -2.385785501619575 0.4663029826402937 0.24986957540577612
Ni 6.281766189017921 1.0980156128276346 3.9311616773854743 -0.15063244957930833 0.9931117359751283 0.41403682624672566
Ni 1.7737246570337228 1.1437492734848067 4.092431446278734 1.2231910161278547 2.1345257307344916 -0.9052327154739572
Ni 6.62255841536176 3.8420537866695734 -0.06315878773593209 -0.008388738284327488 0.8769683213116253 -0.26563506577014895
Ni 4.094409067997932 3.7283451714186104 0.84628216100892 1.4448530187511632 0.6790962220190627 -1.4389029718153155
Ni 4.77596571906819 9.233389772934967 12.944834341123489 -0.5615248166597813 1.7188295145074721 -0.943496386940846
Ni 5.261836052319431 5.703372072990345 11.95651742359416 -0.981767771717219 -1.6189179883217988 0.0224434166051807
Ni 2.2143895603587866 7.013782775706882 3.1798248200302375 -1.173041134746341 0.6279832053933314 0.13885525443872215
Ni 0.9547909470816174 5.820213003804049 12.09666815717402 -0.3653357614965966 -0.8404494004499848 -0.7350575678760308
Ni 7.737366205111541 4.060871050182673 4.321721579074239 3.024475037686817 -1.6511979314014271 -1.6507104502420473
Ni 1.2437238897299074 6.8040844427077944 0.5444613152449402 0.14081854881268005 0.48683581248632285 0.8675894511998865
P 4.318999800728746 7.670660857713299 7.855119955697226 -0.7714129665766133 0.638423684000365 -0.35088873283333116
Ni 2.582520043833053 8.868586216345387 13.949916560678124 -1.7404735751398088 1.570824989469314 -1.3922071104206732
P 1.8035557925262127 1.5172918051503168 13.054128986248612 -0.5372204355864619 0.8465637408778387 0.8137451516859211
Ni 3.9135224778525743 7.422086596354165 1.2822207893724522 1.9258714532247607 -2.0967780796720725 -0.10445697946451042
P 8.672816493674107 2.5393348647727847 9.738926970349661 0.190175244868937 0.13646644249157144 -0.0031532009170010212
P -0.06968660750632966 3.0133339073853556 2.9803741632124483 0.33771928533090867 0.1734687307475335 -0.9728519572848277
P 3.101798654018256 5.768168375992361 13.567832445420372 0.7758316644695993 -0.23491783919195025 -1.042980081560481
Ni 4.306970967591358 1.2925249955091715 1.274863554682335 1.4860037819578602 -0.10741349098967308 -0.2488539896570682
Ni 3.2965304496391594 2.6793160084863783 11.870307388134083 1.322861115726683 -1.6244232344107443 1.0575677495666689
Ni 2.241060578671115 4.9964696140381495 1.920848036262713 0.15949812750005435 0.09599265074724114 -0.1560829311709183
Ni 2.6684919121038906 8.349150063661465 9.499042567875682 0.459867254317279 -0.7476055797443706 -0.25499918332285765
Ni 8.669081809733918 4.315005635025962 1.0104229102611657 0.8390666611698452 0.2534945737528731 0.8514251827351982
Ni 4.749415174431351 6.655169712596326 9.736498962428248 -0.7046195631011478 -1.221643983355709 -0.440172604101829
Ni 1.943694478738524 4.054393273323633 4.134450810848492 -2.542799172134879 -2.9572838845523006 -0.1628847845841001
Ni 7.643684021609342 9.075958480686934 1.2931403379747515 -1.888526436917399 1.3275076133597588 -0.173763636280133
Ni 8.649435333423238 0.823273542431488 3.0779494998741366 -0.7973517979295622 1.0722850011721856 0.4966592263346478
Ni 6.6316495442583525 7.594493693186187 8.150953259789352 -1.274784057713798 0.43017332679727205 0.2809066472172388
Ni 1.560300907300253 3.3531345427078536 8.15479173643458 0.19217144936335934 1.5099165840197157 2.8570473709270408
Ni 0.658453506993595 8.748094006443756 1.898061830624647 1.2723373959455184 -0.8104610816180107 0.06777813598623811
Ni 2.140529930077599 2.618791887361355 6.278092668636055 -0.132022804897921 -2.4850233987769914 -2.894706061820079
Ni 5.56677345939628 1.6996055449899412 10.721941192716269 -0.7088109754746761 1.1372413514389124 0.5192833914920669
Ni 8.833065016487446 7.56980585691654 9.316993870122134 0.2990776616993107 0.8572885834945106 -0.04004056086165362
Ni 3.565529632596755 5.341654495934471 3.917448992952968 2.7426366226839285 1.9080773624661334 -0.3714958675607215
Ni 1.3663197553497108 3.168902491266196 10.604751814964224 -0.015201133220470594 0.524466221244587 -0.22673273227799662
Ni 1.115882785623385 6.318325315926238 5.364863286157333 -0.6082260773710622 1.578812892770797 -1.0227033335893159
Ni 6.699003596063079 2.5914350958193144 8.696260670924465 0.5719897207468472 0.7499288285609085 -0.7678399045133744
Ni 1.798570035802087 3.91049210155371 13.409302989284217 -0.5559897457741652 -0.07628951589135895 -1.0299438172018134
Ni 8.85938388097911 3.664938949287633 12.267161576006913 0.1780838609220417 0.15283511365758196 0.18309725497623308
Ni 6.0286973328424285 7.484427089817346 12.959550663944885 2.1961617583787336 0.27205356770198313 0.7868172169468256
Ni 7.427415239693146 0.43817480512474316 9.61486132588888 0.5591771423632111 -0.1825519239957243 0.14781143519074544
Ni 1.7033587633417455 7.174003496902798 7.568957907585207 1.8236279364718015 1.3656681835898803 -0.3520449579249615
Ni 8.199086200029937 6.940701590713475 1.3497870601901576 -0.0346993511543983 -1.6489674994090118 -0.7241180381453917
P 5.081598166580558 3.7886746812216887 9.454689720883742 -1.1650162075593355 0.326592836400444 0.6025110292641559
Ni 5.300341292447202 8.692991200715783 10.463786493993936 0.14813667974064812 0.13862668336768383 0.5989299967811169
P 6.841060593877423 0.7306719151263762 6.660759691139063 -0.5222630429456812 -0.26846405057851186 0.32224870049913534
Ni 0.7050694056435862 8.73475849728759 4.658056279424948 -2.1935680295096285 -2.648039566732633 0.8985712442933815
P 4.287648843483921 3.9294435374288708 5.289965728825769 -0.21173600175884824 -0.5498358103576273 0.6958225336348082
P 7.767697769717605 4.364622254916235 6.893360069848802 -0.8963315563295853 0.7491613542672646 1.043351605967287
P 5.409620183322454 2.2465096956855866 12.901891962855363 -1.3385515298787465 -0.665222549360764 0.12241124995008597
Ni 5.241364794691935 3.4678625505975784 3.004272433547345 1.0727686256768234 0.7334228604860853 -0.16721092276327976
Ni 3.3100235012940415 1.3917304336722975 9.408343497922731 -0.4385684928395027 1.2652838315328467 0.948798772990366
Ni 5.645452036697068 5.418118211047405 1.6845861845386587 0.693912718206605 0.7088698537370695 0.461756758030508
Ni 0.17754112884905832 5.487149627103184 3.202530400977783 1.0504982443143973 -0.5093103394397551 -0.4292307603783447
Ni 3.677625754037313 5.1029127399364835 8.160379861536155 -0.2440550256065281 1.8004617827679832 2.4416607155206402
Ni 7.265313275718425 8.165075554718523 3.9746591612814353 0.21108319866619776 1.5583325134292583 0.8293419776829135
Ni 0.2228531316420153 4.218246739195863 5.877644658351302 1.4243764960643663 0.2685365556876601 -0.37971208482292673
Ni 8.369741794964451 8.537413349629135 6.8872427872956505 1.386803937127231 0.147018764086121 -0.07944554502183737
Ni 8.779519101335035 4.9145660491165515 9.984886952950664 1.028797362302196 -0.7261430389952204 0.5258391903327138
Ni 3.169532661261067 -0.2197291565645011 2.7013589842187287 -0.22821703013300698 1.1427100878629675 0.9617800157413823
Ni 7.041028360779239 6.549977659481927 10.433377084859094 0.36724711958669654 1.6687210278868552 2.7540986005769406
Ni 0.055222352682882 1.3041553387968616 11.500214110469912 1.1515953061677393 0.24891029681630034 -1.1941277802133112
Ni 3.2873373814786904 7.396750055678034 11.698688930516232 0.029220073207381937 -1.2685861564332024 0.7479706763932731
Ni 6.014064414873294 5.107768755779313 4.518393000870533 -2.856880249221557 2.4475763096741265 -0.569567741568916
Ni 3.420368120837091 4.546796986668755 10.783396668024888 0.17155351600269167 1.752618438032459 -1.1682570830941366
Ni 5.685634641075892 4.924324416831244 6.932803151204233 -0.16979359588879148 -2.161815676798696 -1.3075082874196964
Ni 5.1597670475619655 0.8800286909548353 8.109978309314036 0.6034078300468124 -1.7446937838687437 -0.39288667453167175
Ni 6.9207956326402025 3.936514415459554 10.942333881216545 -1.3260865646425162 -0.5420865054295116 -0.020012438566184888
Ni 8.843231141257641 2.4034590932316586 7.4133578152046224 -0.6783616578458833 -1.0105479291737047 0.48748450181391517
Ni 0.7550632008102014 7.988794765859208 11.178162027708836 0.7004554044211291 0.33683045496805214 -0.14120498561782135
Ni 0.8111566708389344 0.7732723335002272 9.1141375151703 0.1437238953849331 -0.10326553025957054 -0.6015062421487254
Ni 4.788281835585592 7.57601488480718 3.7454774547938716 0.12325765711078127 -0.7833104893451477 -1.6985000589215007
Ni 7.253886810958487 6.57305300194117 5.982069386824887 0.6322090705492209 -0.3482438390113164 -0.37062837735410364
Ni 7.4475714123232075 1.3720654229500038 12.748448349266049 -1.951129199350285 0.3280341968326609 0.6442991689445355
Ni 4.508931183741662 1.8192081031341079 5.592186917880609 -0.14970222445555506 -1.6291779754869102 -0.12891974049256508
P 7.574634071141948 5.841286629808995 12.628248983067918 0.20911759029939472 -1.3249023145264278 0.4946979888432191
Ni 6.741317657777496 2.671225737816933 5.863185963851338 -0.3813552768533045 0.32645193994720556 0.7146887744116918
P 5.752061972299926 9.031244212668524 2.3618511925997296 -0.9959255512748397 -0.17006536149293935 -0.49624450739473247
Ni 2.972104108750349 8.255328872072162 5.1490272827523205 -0.3237707935706166 0.125638498638132 0.42833781625043005
P 7.5590095621514735 6.298743710056206 3.320464862076703 -1.3750413972746642 -1.9936555027482699 -0.32034248461535797
P 0.8760780811193435 0.6842515545189111 6.585332976355925 -0.23365131377470083 -0.2030536434935019 -0.34770750689187213
P 7.6017591825388156 8.659202968343735 11.600109028745072 -0.6020068359342277 0.005483648822390556 -1.042382042965166
Ni 9.066580068410326 1.983543463708299 4.989425610904307 -0.3830372925414178 0.2796190387540668 0.7000735956016783
