# total energy = -381173.2399221483 ev
CRYSTAL
PRIMVEC
9.16370867268547 0.00000000000000 0.00000000000000

0.00000000000000 9.16370867268547 0.00000000000000

0.00000000000000 0.00000000000000 13.41201392434164

PRIMCOORD
 96 1
Ni 8.223704714410205 4.569446737954417 4.413370449684102 0.728663748534545 -0.6142609707112324 -1.5169945739124198
Ni 5.601298676177412 0.8879991211201154 6.623885188433396 0.00811671556986344 -0.4366789891262738 0.9735757228247299
Ni 0.5879609676122088 7.584948392552389 1.0669535247788564 -0.3189772288367152 -0.39624659214284014 -0.3744832323238196
Ni 5.9440946949430264 5.048048921126213 5.606798734198773 1.3213783605335694 0.831024507591659 -1.0368143190694015
Ni 4.86649752239374 7.997388598192969 7.581462517725121 -0.665226406015506 0.9573479481119578 3.1311812181968204
Ni 8.030460423249778 4.754736929877021 6.630510549895317 0.9753888647740685 0.14520973590184022 1.0672001304501104
Ni 5.057432558936735 5.554966964487961 7.479048908183725 1.4519711178531831 2.8493803413000864 1.1595081332569128
Ni 0.3405802339779352 4.9076975571555606 10.4704243502548 1.601800869025538 -1.440477515391287 1.0072697726430653
Ni 5.315308488258889 9.171131403464903 10.02592307663798 -0.25039176645783323 -1.351075630487686 -1.3061021511007893
Ni 2.801767310562225 3.2198065422791995 11.447301366648812 0.5542287972190003 -0.0623929604149248 -0.060124218985406125
Ni -0.005138091523788503 7.930502687666604 7.689362439724679 -0.7292838986170471 0.385573171589394 -1.2114554728584814
Ni 7.810183191131304 2.8557598828079214 1.3801498477517318 0.7935941306593429 0.712643718957205 1.0486295665367749
Ni 5.4731900271626746 3.237877376031493 1.4725585200260103 -1.8248402116123477 -0.15327477229816183 0.26906440316667213
Ni 3.601557487150798 8.953502483189439 4.249932037764399 -1.1270641537955943 -1.5730081131635618 -0.2478913686334827
Ni 4.377146308800321 1.1880290272901026 2.4724373618772364 -0.6911711509057258 0.5728775226684392 -0.03761318236708361
Ni 4.1803556623345495 2.0161442277774273 13.29302260365968 -0.06632880513422125 1.142635268760974 0.2777431618875926
Ni 3.8685054881842973 5.156272322046388 1.7911880059460126 1.20498632019437 1.2591052135259606 -0.28971936041286234
Ni 4.451189075898967 4.0258005497249245 9.699287258339996 0.07307846515322897 -0.4653311056453276 0.05840955028714457
Ni 3.990566089391472 7.94219558009456 11.920115751342946 -3.6458877889514825 0.2717391217853578 -1.5289656302313668
Ni 8.859913525221806 4.2279244747119105 13.202250569776963 0.36144311131040974 -0.9437671241037295 -1.0170091114180162
Ni 2.006650625461314 5.630805818511279 3.467636297644641 0.20159197134631085 0.00986300883700882 1.1662665350266688
Ni 1.4509083416166957 3.6498777236497046 5.040409137100206 -0.36352647620199974 0.5453386938182222 0.5451988258062481
Ni 6.172298535172927 2.827077474265995 5.455792726007132 2.3026411675899117 -0.09466339041285633 -1.782707801218672
Ni 7.9603855420612435 8.461493794044213 5.204907790127992 0.6188719871206826 0.6877107031609511 0.7738362313061253
P 1.1558002634428326 5.391596364013374 6.626004754278683 0.10870521321790312 0.22400556315482067 -0.05119683458878924
Ni 5.106000215573223 7.87952497561589 2.719513860379372 2.923344294382062 -0.3597268999502514 0.02207523463248456
P 8.856083094943683 1.8677104726457596 12.752330795147095 -0.3267645860916179 0.5572907239737757 0.6211684964643431
Ni 7.019345958039683 6.601416690828301 4.003942355125865 -0.3638360370226186 0.12244416007055041 0.40102755847125127
P 7.183138089119041 2.336397522896673 7.35022640625352 0.028590152932866892 0.19445561741184578 -0.3935556755742383
P -0.024040073664181844 6.419883619513426 3.2079395393840575 -0.16063686909018787 -0.10418187142625283 -0.09405121075015416
P 7.438860546873351 8.51671430326902 10.315461452603605 -1.4870900730435035 -0.39502788924439064 0.8160051513646914
Ni 0.7624306521845543 2.5482991251725515 10.853792689729485 -1.065685750688113 -0.820614882222561 0.3548883409110275
Ni 5.908392885460808 2.2465748492455666 9.066239927064167 0.5033834324323588 -1.3653143997948873 0.4167264572637468
Ni 2.64693728668862 2.2940062059909376 6.9130212775827315 -0.6003944971417854 1.1762393299686644 -0.797389336035717
Ni 0.85322009711399 7.234152456004952 5.269433129267647 -0.8520265637646229 -1.1378658723967887 0.1760364914747097
Ni 4.186009670663741 1.8047191383591143 5.044996489725154 -1.2122275751378155 1.2168982411406075 -0.5485389459230746
Ni 3.08827066617351 5.001854665068754 7.892379826319601 -3.4846279415653143 -0.372812529489616 0.126640200429769
Ni 3.4014404143908674 1.020543921564612 8.629598366484538 0.48541476376908016 -0.6730019361958667 0.5546645992048382
Ni 4.669743530763165 6.455686229792438 9.798080286534775 -0.24729512981038057 0.06435805456109563 -0.9106783119695606
Ni 6.4518466358055155 0.9431930555894048 1.1466832895583718 -0.4492712239689875 -1.272116538183964 0.5950900542097365
Ni 0.7104412666823934 3.33211695732388 2.72424874871599 -0.6047460892422617 -0.05516893186265983 0.3654686875300351
Ni 7.452596946363558 1.5920936030880877 11.067460138690993 0.18364130040516116 -1.6292497092651101 -0.533087901475327
Ni 6.016579631545786 0.11018076911971365 12.3663737079366 -0.6439245592139362 1.8573957769508658 1.111989261740343
Ni 1.9000400372898223 1.3269875075232553 -0.404038001042467 -1.6468905622753247 -0.536812915735398 1.0853672882774403
Ni 2.7447507144127474 6.553792896198144 0.353085947376391 -2.3247806798014286 0.07097890231172292 -2.740670500096493
Ni 7.5690585214943376 3.7722407272472576 10.846899747970621 -1.446210304110006 1.5730240540031621 0.5026370411846376
Ni 2.9879922007823607 6.537683096128909 5.576300078572819 -0.9806696535570336 -0.817771756346811 0.6430167026876861
Ni 6.817038758876711 7.043510658143536 8.778015626940366 -0.19136643696356076 -0.8723696461973491 -1.5562339790290165
Ni 3.9638355508238043 4.736941007388707 12.740260357916606 0.48246519422245293 -0.013817365499066526 0.2137797716617544
Ni -0.21907220441136052 0.7203353230730378 1.3611580612651049 1.4230750036441233 1.1228429166253953 -0.32785936181769343
Ni 6.109068944457499 0.3639513568997654 4.178191194316146 -0.6437767207821623 -0.1798088140329484 0.8720896530630852
Ni 0.0467963117255765 0.27190373475218066 10.148791000590377 1.58604900550792 1.3879473067030548 -0.451127560451436
Ni 4.934363949761632 6.905459385081517 0.3566616265498925 2.0798602208708115 0.04531157945260583 0.7199852469239406
Ni 5.064396977624231 7.279127938792101 5.59676630580526 2.048927021627065 1.2609165557030864 -2.723485246566458
Ni 8.316056571689927 8.809018286550286 12.675989769881573 -0.200052651883649 0.2144829683763661 -0.30669301215272343
Ni 9.129216599416734 5.909364238593538 8.587068677575934 -0.41976190165596095 -1.2077163175310233 -1.96888292378928
P 7.023203879444204 7.7689648289518844 0.8458515588684428 -0.6038911974411341 -0.3731130914491703 -0.9438388578819292
Ni 2.637856051268476 5.494862198473107 10.598509173626661 0.6655624491986861 0.8555086087759525 -1.1847064868994113
P 2.2212005395802015 3.360139578832253 9.11488547522545 0.14844546923031854 -0.8109251657386228 0.45859378692149405
Ni 3.78990835781238 4.258018094408935 5.319526543419225 -0.4870044768537032 -0.5534389543278533 0.5578532813454651
P 2.1845640318004502 0.4648621181980693 1.6442461026068769 -0.29952323387716157 -0.3403700926901944 0.6819917983993028
P 5.656491694275822 4.9768927222993575 11.279758529557885 0.526595608882764 0.05564792838160739 0.29490578970980824
P 3.3620914488065123 0.0726764581166653 6.331462993308619 0.18821786403225002 0.9098815270998781 0.6768202815006925
Ni 1.1739077520303234 0.38164006399512646 5.632120810723983 0.8686706000792073 -0.10857511539794204 -0.15893608434899723
Ni 0.8816065178616975 0.9781342772412784 8.007240501523137 0.4351268141478054 -0.11535357177235617 -0.08524903907749189
Ni 6.807783412989379 4.4485316003471596 8.674233875675231 0.16280148084167445 0.4489557496110978 0.5117747418198477
Ni 6.249191215708167 4.948705154032596 13.527223174927867 -0.016015401591649835 -0.3657941891902539 -1.267141710677192
Ni 8.623673112374886 2.6764627564400847 8.909788843103959 -0.052039642205058766 0.2771996306792968 -0.41627677132083796
Ni 3.9688114447018448 9.05183824231513 0.4158436070886534 -0.5828120081733317 -0.2511219597556385 1.569249674562394
Ni 8.010336918726432 6.374624061753498 12.770195445451401 0.60374670144347 0.3273641673488298 3.1997067738720446
Ni 2.063538929687601 1.7058335567054639 3.562324900668195 -0.3699668325107048 -1.7363572389785902 -0.0014999815842941908
Ni 1.2839364035839682 8.28920690490787 11.905724146673585 1.0907385798916829 -0.19468187449003893 2.2359002146189364
Ni 4.8923483449166705 1.8742258696020886 11.11426744686713 -0.3621020850506474 1.5716053192787645 0.28356953876138263
Ni 7.90608140371637 6.406788679639173 10.720437817427124 0.36062087251943054 -0.040920392363445655 -2.590141665974584
Ni 4.906167217786071 3.3668290862557697 7.332616507053833 -0.6556156223986193 -1.382527164128748 -0.3519811945665615
Ni 5.983086275884208 4.440550009982937 3.3706805930641313 -0.5376472387112353 -0.027929636530732542 -0.09487730619587531
Ni 2.312489406639201 7.766114915515289 7.504330664390218 -0.00038772235672191287 0.03987678159027971 1.014147730709821
Ni 7.586561205301072 5.585665388965742 1.801930621771476 1.1141533592711974 0.47385122730119683 0.522750524105061
Ni 2.7420932388609396 0.8141561228732944 11.035781197371684 0.4676342998572075 -0.8840913055096516 -1.5372093582973978
Ni 8.616708693687391 1.4246176610713963 3.929129836488074 -0.5335201039167392 0.03703596970737492 -1.1226415992478664
Ni 5.943517381288668 7.306481609558123 11.504637776235384 2.4839890439752055 -2.8503679020243364 0.15721010279682604
Ni 7.6359810868558995 8.506918298562528 2.7178643927954917 0.22178155892030837 -0.5256466147059334 0.13816208502643948
Ni 7.324708226360006 0.09319216937662197 8.253955033527697 -0.0974484093571612 1.9156196935897654 -0.28939565852485644
Ni 1.097638203693438 5.122907258308 1.438868144625246 -0.8753930064047053 1.9973602052933668 -0.6455060447684432
Ni 1.061982212755216 7.42863384785329 9.971081028586584 0.7735917193954871 -1.536841690545334 -1.6717117350840631
Ni 0.8241518964316117 8.498414376796743 3.2096962223608907 0.8057932438286961 0.881946491252507 1.0055340208988812
Ni 3.0687244753045233 7.513764702599135 2.321941772265718 -2.5996370070595294 0.5919016291794258 -0.018115478653788156
Ni 6.43448140763077 2.643876607949641 12.858943216060345 0.4787036702974917 0.3698341635875824 -0.775615177583419
P 1.5553013122587478 5.162980156887504 12.309949087375559 -0.23579329981836808 -0.28998109871468125 2.3710703068965877
Ni 3.256012355745382 3.6057453020720955 3.136171204809407 0.016902432182293474 -1.6012177428285586 0.5131664799610517
P 7.035034227504149 7.047918402076018 6.5156773658181795 0.43479359917810284 -0.6839998299682671 0.8285927582217149
Ni 8.961594038059253 2.1968434015915626 6.050334152908146 -0.6486664447742958 0.7668945098809695 1.1160598322652908
P 4.354658567406747 5.99398192564662 3.9834752115225447 0.37682370753153815 -0.41752684167785514 -1.6489235335449537
P 6.320814763683789 2.1554784200713537 3.192112897916722 0.8699366112758244 1.0837264102399078 -0.475513188384652
P 3.172695915341806 8.036673417815727 9.632615778599536 -0.012765527195784466 0.6673385672625023 0.264297577905648
Ni 2.272022468581327 3.332730925813435 0.7594771888385279 0.8591222942691398 -0.2952521173056335 -0.38528469381469777
