# total energy = -340875.3397487219 ev
CRYSTAL
PRIMVEC
9.19242412720761 0.00000000000000 0.00000000000000
0.00000000000000 9.19242412720761 0.00000000000000
0.00000000000000 0.00000000000000 13.45404189463716
PRIMCOORD
 96 1
Ni 0.8189429488520117 7.464110459592617 6.977320127438695 -0.5596353129465523 -0.39305688156094887 0.31571989824168206
Ni 4.975344374085416 8.074009411879976 2.1681591534427547 -0.45158393126256424 0.2545818932797809 1.669320352033751
Ni 1.6825721095997748 4.928472203745493 2.8562791998806354 -0.6157087589013526 0.16074999762928446 -1.362158370664409
Ni 7.586663857312143 8.38448353489055 11.41985781371131 -3.4454397014016274 -0.25148062864663784 -0.2952721719102915
Ni -0.0063629959422033784 4.065873513736131 4.274617837276057 -0.09574916727786736 0.8975008940473381 -0.3574437603430296
Ni 3.1345614537932662 4.361878761258366 5.917303099587744 -1.0316314893168814 0.8089374458846328 -1.1332036910344292
Ni 1.239727079961451 2.966643443281522 6.464989564244874 -0.7679358066612904 0.22999340530713935 0.5167390278036584
Ni 5.197525263890466 3.5184922375581693 6.019956737677563 0.7890011119720218 -0.7373283661880785 0.29800525457073834
Ni 7.873283639857507 1.790059124266322 1.59856898070836 0.7255141471619699 0.2277110370308659 0.02068143960875148
Ni 8.342225961434455 9.13037520888978 6.447567162902403 -3.0354752454520626 -0.39085961679931397 0.19886917309850913
Ni 8.040264023113972 3.980926322892586 6.3937639048126655 -2.0828097904174387 -1.2897440214577403 -0.8966136063463785
Ni 6.433602951495582 7.783142729413638 4.287601217034462 -0.5204121057798715 -0.4987842430974506 -0.06637251388796313
Ni 5.983799256835231 0.28130472294729747 0.7143129395868466 2.4083968112611878 1.831139157247182 -0.5206872138181291
Ni 3.749139349932953 0.09539805777028668 0.39780674790063897 -2.428806228155475 0.16149536043574123 -0.7812844600540545
Ni 8.578894111575986 -0.3361485634419144 0.25720862172901127 0.4410557780377307 3.029070884587615 1.1700740816982171
Ni 6.871336993350225 7.282624431151529 8.45170773212449 0.5127265642101556 -1.010816609454059 -0.645933619224165
Ni 7.96606277600986 6.826615850243002 5.930137562076192 0.37273076840908714 -0.5198657463580982 -0.4384849319867609
Ni 2.2724499622596865 2.6843716773219164 1.2597978186788836 -0.8612205715590652 -1.0330790203966853 0.4425166788539734
Ni 9.036796331843217 6.97613062776386 12.776671556797043 -0.8187875992058351 -3.589268754905857 -0.2886497814977674
Ni 6.862273263215852 2.2740862137443902 12.705606764786083 -0.004399157508960166 -0.812595097241878 0.6026475548420202
Ni 5.70183084086998 5.206634956145196 10.51888075320397 -0.6379135771331659 0.09317960677847822 0.5866750906731638
Ni 2.2957711421287557 7.697165987074101 8.623542634533045 2.5900563053496297 -1.4150318216246727 1.1656677251004055
Ni 5.118957615352453 2.782758192157806 9.459455717463216 -0.7825514996919362 -0.10139736670258022 0.8268045559730405
Ni 1.2359857633644027 0.3987140401564833 9.084451696714021 -2.755054793842623 -0.479342075212439 -0.7697227233583841
P 1.9922832614124246 8.709932116713388 4.25745098532277 -1.6457183963440947 -1.4355978187014826 -0.9269433676781713
P 2.9183096775142503 6.366148943659859 6.602073426694016 0.03753167839687085 0.11887315488984045 -0.10351646992811205
P 6.505184357739353 4.265505387294106 8.743432067756686 1.1996371400673147 0.15348123188201307 -1.4219462893563188
P 6.8763284796209785 6.434963430258146 12.030604307498049 0.8428418119415613 -0.5587914768890183 -0.41225325198374163
P 6.641057577938295 1.0324379171520228 10.853308494859725 -0.574650555408462 0.7845325346777069 -1.1983587875755233
P 4.432568502367213 1.2369785451641109 2.0746400271526566 -0.14672180167099247 -2.24582133038739 -0.3928121125399945
P 4.552557213770825 3.5405448629053895 11.903099870173683 -0.6904450713729786 1.5373242866087071 -1.1025024052958303
P 7.67209824663147 8.768644129257238 2.376280230630642 0.23066677722508017 -0.754362695962546 -0.948961009599843
Ni 5.248598372031006 7.821953143842969 12.600234926898358 0.007801241211973661 -0.1976756670110402 -0.31768422105690447
Ni 4.628652100233639 2.858843886196548 3.2419262092196637 0.9328088253200127 0.5841497531481488 1.0022252682406223
Ni 6.975027536875295 7.170311393847513 0.8070516290732855 -0.0658282113487189 -0.4178729121633642 0.4873330638377156
Ni 5.746754217306773 5.120897216831513 13.372940901913777 -1.3189633233341735 0.6539868285459447 -0.8146069854655841
Ni 5.37247547881681 0.49293546764563445 8.823416268844097 0.667199984802109 0.396012364644847 0.29249615182705113
Ni 5.352013142833936 7.76231269646791 9.978970160068815 -0.8707652778247068 -0.8284014681465153 2.15345342087693
Ni 6.476246606762675 0.8873244722765374 3.5158503348800574 -1.2387209934426537 0.45697784858462587 -0.0798054994644174
Ni 8.319548251250382 4.459529882168545 12.86610005437538 -1.2225767795826237 0.4213989230387517 -0.2840436501843237
Ni 8.862792936596225 1.687471671629816 4.465208042517431 -0.44025050852761594 -0.2803042377465495 0.6219706806506643
Ni 0.2892387041632982 2.411237180889254 13.090015554602697 -0.09551314000766131 -0.850485187419432 0.09573271221763513
Ni 1.9498786091711877 4.254263052654819 12.613137413324935 -0.6540469923599188 -0.17884413612683392 -0.7408746887784402
Ni 3.337015401541153 0.6501580927503375 7.768915614678376 -0.6554366736185937 0.40269800419513874 -0.07727681950529271
Ni 4.440694605246305 1.3672260018313742 11.748621183654285 0.5949602135000914 -0.4867535371851617 -0.8165751649355485
Ni 5.172402368903407 0.913487030426068 6.3451414969295525 1.1088424885812453 0.027678953972507168 -0.9124886257054221
Ni 4.528362753614975 7.4250334648652165 7.55511729638401 0.4605794498929552 -0.6776008684204589 3.1821358548678167
Ni 0.42308499485450357 8.74922053719443 11.413305453833235 4.342160779860148 0.1614557654470574 0.1388791656981221
Ni 1.4011828163510207 6.482570994523779 10.808506458420675 1.193183671132487 -0.8828162954519699 0.26823753639000253
Ni 1.2835381730856077 0.5373311989407303 6.207156776921416 1.177231261568289 0.7334488286280142 -0.1819790822113898
Ni 1.8115234344729747 1.6938144442390621 11.24034080250631 1.4633451640180797 1.1960054568519984 0.5852368155647405
Ni 8.868170504677977 1.5188550368886475 10.515773713867848 -1.1320508083769085 1.8204479960819229 0.2062011879835481
Ni 4.6237617306276695 2.6726053745105607 0.38414129027613797 0.8289354862731142 0.02684977320299247 0.8153361503221248
Ni 3.337272789415151 8.462655909193494 6.0898375454681295 -1.4916429825215085 -0.9657950504380464 -2.8000550127023973
Ni 1.170747129729879 6.651353092898232 4.81469021707487 1.1906817306462396 -0.5366866745701789 -1.4397835746480558
Ni 2.0961392685707803 2.4132870914571694 8.876048412107142 0.033095754112704295 3.316087244247018 -0.974601850096399
P 6.716922653799324 3.6600371834091487 0.9515197657789606 0.9538016255215961 -1.5935576551801394 1.71589022937349
P 6.226286211413941 8.113555220235016 6.627568614855965 1.0950076395806818 0.9588816111476647 -1.4278194603076442
P 0.666963682437619 3.7386691789156608 10.701855954344621 0.40387711210490446 -0.034573367099495295 1.024960247944293
P 7.401243471368508 5.72877383582317 4.1405757479521315 -0.7173526943971001 -0.9271300297676807 -0.5469358631020129
P 3.747834025714818 4.731552095288572 3.415200645237796 -0.9179982426697415 1.0260300839697039 0.47353009651635225
P 3.192685151196548 0.8887612481588928 9.790680818572504 2.609242391359777 -0.49758379503144634 2.010836642513247
P 6.692673039099047 2.237215400794119 5.206687352962403 0.5414905237167255 -0.4725150249882765 1.3661921744141503
P 9.434552521411463 7.6613247256198225 9.443728399119506 -1.4146489843639574 -1.2649439316949247 -0.7804421666584171
Ni 5.6960028440087305 5.9523703589352115 6.084509616476363 0.11602951479345823 -0.46861620415450256 -0.952955475471217
Ni 3.7065784264825026 0.6155743549090235 4.150248935802435 1.62710592344923 0.9815209458137355 -1.0168183355634488
Ni -0.052500691598824256 7.127658546156348 2.1225095755043237 0.9041034869655203 0.026239136202187065 -0.3411925885914898
Ni 8.310934949895506 5.491627679629928 10.390596798318352 0.17257347262677375 0.6980023148949462 0.4489220681596849
Ni 2.4323337941330516 7.216549286926511 2.32936577513999 0.8740380350387076 -1.4004672935469364 0.9076672930573788
Ni 3.1141450799307497 4.202868209671781 10.220968077686928 -0.10260809918122973 0.5249022803407413 0.7758535188464701
Ni 6.977619800463422 3.325184751761298 3.442754936391732 0.24217426364404743 1.151018350618347 -0.7880012099525978
Ni 3.229418077785749 8.400055501267452 11.210674092300772 -0.7327530881125703 0.0087692615521978 -0.18261003092716938
Ni 8.375530113845034 5.619788456032989 7.942216708726316 0.33143782319757115 1.099803004086796 0.8028228483464626
Ni 9.099929900365396 3.607989678317043 8.706514373443651 -0.5880578299533034 -1.682974966702708 -0.037380240420671104
Ni 2.011716045899304 7.5419519066289915 13.354683828465628 0.3681560045542111 0.011056257814161604 -0.0386958739083011
Ni 7.368113975015285 3.2919265614710755 10.705502588973735 -0.3806741916258799 0.3579307272817771 -0.9771552126458719
Ni 2.3674812423095255 2.9114337443088645 4.133323844602226 -0.647733134326749 -0.6819768860009674 -0.4979406641502328
Ni 8.009579711563733 5.082408537244681 2.0710347584318645 -0.02124039743601503 -0.21856819418933326 -0.17107811902816988
Ni 5.486672963055458 5.801007904176007 2.6240767293529763 1.3238926423149908 -1.1411661404146154 -0.44953270516049026
Ni 1.5650193905750758 -0.04662765185962499 1.8996300614698494 -1.1697596357815918 2.405533887891096 -0.08573009247896848
Ni 1.7223293437084566 5.2579930294319475 8.246815953512876 0.15323466308884579 -0.34951164998014644 -0.3338459184184315
Ni 3.478790157993916 4.679219625050253 1.0318109938303552 0.1417829696084784 1.092642481782615 0.7195617862332769
Ni 7.821190172645045 9.243533949208363 9.067445712181984 0.280459018156859 0.43664633611612536 -0.46688430906506045
Ni 4.02324824331718 6.806144321836056 4.1733761555235995 -0.8593580644290297 -0.10716820774808639 1.2923991996924
Ni 4.275240164385689 4.832264293414518 7.91265846912482 0.8028724706374754 0.4456639662337034 1.4859071084789959
Ni 6.825292141176724 2.1847450441947305 7.608677874478263 0.4154463049997425 0.3645096660508754 0.33678906020715543
Ni 3.684075372355785 5.964099892050282 12.08696305947963 -0.18246090694381478 -0.2777081948845992 -0.17494685795495676
Ni 8.9220748794325 8.466810884873754 4.249593301226562 0.31836504917401304 0.4869229728834904 -0.8876849363981808
P 0.5327267137233804 2.5291943665730936 2.6707889515140573 0.6394305279983246 0.3638357799123024 -0.30123661702384247
P 3.676629508857974 6.365670937608146 9.83162203690158 -0.543267156001174 -0.0954393493469324 0.1199044243678322
P 1.5951981188013882 0.6164871626193108 13.060443526365095 0.006435214102382466 -0.9258493632830442 1.504004846520971
P 3.988050451547899 6.783006990448414 0.7819259763590056 0.39888711508948077 0.19050691717674287 -0.7688657746747274
P -0.2530325034733872 1.5646884633085063 7.59681137424453 1.1426728068671288 1.1127706199910579 1.1181771357186099
P 0.6810308489940389 5.248000864466367 0.6574247039787567 0.7879695853837139 0.9928541114383675 0.8691321130966579
P 3.176285866653221 1.9159677567718982 6.032402360627794 0.2591743977464698 1.0553524870829052 -0.8441253066396753
P 0.593949177281122 5.137186192285983 6.196985359686444 0.3557141792464325 -0.31695222798688644 0.9392638369167373
