# total energy = -340869.31613134535 ev
CRYSTAL
PRIMVEC
9.25050556267289 0.00000000000000 0.00000000000000

0.00000000000000 9.25050556267289 0.00000000000000

0.00000000000000 0.00000000000000 13.53904994639952

PRIMCOORD
 96 1
Ni 7.634173927301376 6.172205536532084 7.548344962089124 -0.2991838482598718 0.42142926205605485 1.2112662396658107
Ni 2.240056160177281 7.043159130688766 8.255516506206902 -0.20927905557792345 0.586331591290816 1.929812954371012
Ni 1.3573174220092594 7.289407587189434 4.317833477459961 -0.6837429767624547 0.868754418042265 0.14962663402261328
Ni 2.520920008271694 1.5369714893909074 12.513601893670915 -1.080887912349848 0.05377539394924286 0.6312677896818741
Ni 0.34782363218081747 0.8727343164660877 5.277548447073475 -1.0288305295329765 -1.0672343261221555 -0.5609116085558147
Ni 6.640521628147517 3.3138455885071463 1.6476750639018183 -0.31326963692897664 0.7889905704490605 -0.40809963482668427
Ni 1.5342425902674028 9.009492833020264 9.93972089129112 0.7476536593734866 -0.03556195626500972 0.4688825704420118
Ni 4.445136159046183 2.7383161381072383 -0.21069321354777648 0.20591785241517438 0.7045563139633801 0.9684867383375966
Ni 6.854032545671631 0.8473611049207954 1.5335136504337343 -1.8453049072246028 -1.3458745459027208 -0.50352150067212
Ni 1.2518431582594243 6.658328851241573 13.21538501833296 1.6017255357029125 -0.06618250936434408 0.3663112380359885
Ni 1.1045473591286905 2.5559331716020854 10.138324619196496 1.3118588510789084 -0.0786706145290258 0.3772158007636342
Ni 1.1812803022794434 3.7643914590505356 7.947015847870513 -0.40007522186031097 0.5144890554272172 -0.9594071446338317
Ni 3.162923591219077 7.459246868231968 11.230181209825064 -0.8397006952094184 0.6685117616349971 0.02097634514135097
Ni 7.687845360232137 8.39934799102661 3.7846112139798804 0.9768955312265819 0.8195103363044726 -0.23730716535973326
Ni 3.3398672604882274 3.4608916239892884 8.891621966845314 0.19429903722932343 -0.3017958319614222 -0.30082781162119804
Ni 6.278308834656151 4.906283108896476 9.178311783305773 -0.14368352906530096 0.31920451435617286 -0.5309636560434727
Ni -0.042135127517464004 8.03356450241093 8.14801638175182 -0.8488319680867251 -0.032386386750505515 0.686832928541688
Ni 5.3341282389345075 6.220363668182816 7.031492393147871 -1.5827867898168806 -1.6803866371502412 0.8496585777530786
Ni 4.881001477355667 6.9405987761725045 4.254633098810141 -0.21640512509974344 0.7713808277870974 0.056804153473237654
Ni 0.6182769613816974 3.1519062391645205 5.3329367738256686 -1.900550972182101 -0.1674011843972149 2.071157808000807
Ni 8.07970602386192 3.9067659892534574 3.9804804924584487 -2.085974561298665 -1.1564150961538857 0.2512291747574641
Ni 6.269696614032481 5.412165503361241 13.190040483354727 -0.27378957655648334 -0.33851684153153955 -1.8053833884393164
Ni 0.5712344406946765 9.2241508132268 0.5600931318663743 0.92572877854478 -0.9113498841152885 -1.864518504038576
Ni 4.76669298085008 8.492195314764297 7.022271489262075 -0.5762058157107238 -0.6286856307769947 -0.8706405793213844
P 0.5082440485197837 5.023690524745705 3.886519407858153 4.646208641080539 0.2907148915569122 -1.0831224581073218
P 3.26980393180543 3.569270546467193 11.103943261422284 -0.1584221208270562 0.11383636379688136 0.5880801985508065
P 7.65300795650631 1.8388894880110727 3.6864392992744337 -0.7032800183541178 -1.3184493598122327 1.0007877644631473
P 4.882712820873797 2.2147375266144587 2.031480387339234 0.723749084841747 -0.9046254209072614 0.5024352095864766
P 3.4161746803858235 9.128583840871112 8.760862371352468 -0.0821716857037488 -1.6337442547013539 0.25187992096758555
P 8.879217964015798 7.78413387201709 5.955827887352465 -0.11112282152046024 1.9705235447164966 -0.33706082581130337
P 1.322470767777929 2.315632790140108 0.9502655782417845 -0.8591654888022494 1.0121965205207213 -0.5343662539671185
P 2.907350625170976 6.016223512733653 1.3120676492887986 -2.7762761651152448 -0.3508193130479764 -0.15313978938219433
Ni -0.29636584521702086 1.2395214849288874 2.103480771874444 1.0103129303447633 1.6747430657112188 2.0813797428391316
Ni 1.7956341242771463 3.9506596378671186 12.787172643226441 -0.9079614272590297 -0.26490770068582115 -0.11279043903087027
Ni 6.828695411097802 0.34077567203777237 8.750179887597135 -0.32462182871700224 1.5502510219727044 -2.128577740681173
Ni 0.4368911993698118 5.92895424381452 6.700150386622472 2.0247558236975 -0.6971224833931542 -0.21988665589044065
Ni 5.808947435918833 3.0580043577994465 3.962094187719879 -0.39792166585241795 -0.9305804502101264 0.9618496926370532
Ni 8.333613898919406 6.179587439923803 4.583915942810481 -2.6883274677184024 1.3603737679601602 1.0454059173931542
Ni 7.86669463363499 8.371503969461358 10.157834860353729 1.2633896998339273 -2.8705191801612306 2.9541445675923703
Ni 8.446238803423375 3.607114364481627 9.268494961458476 -1.5202035677680206 -0.3432163038897379 -0.12646793651796281
Ni 5.538777172186358 8.379459404194288 12.955246002768375 0.5204213617512521 0.9498572961618673 -0.8033311554414487
Ni 5.468972857657656 8.711469297217032 10.551685307717294 -1.3454238315185474 -0.0962369055475633 0.22295963838880958
Ni 1.6410304257987216 8.651840538742077 6.770486605217619 0.7139752932844349 0.8764990949846905 -2.021425473772686
Ni 0.46093881347646604 6.123982651342829 1.7686874017457246 0.42891760001330004 0.2907442021329509 1.3101115293704986
Ni 8.821901831916694 1.4253456394813073 7.598697313645263 1.0127685909741073 1.1474967106183334 0.1781118859464997
Ni 3.6512207747218666 1.4360484743487478 10.416579824738948 -0.29623350738229626 -0.5815166864006759 -0.46700977889933115
Ni 4.448503343049423 6.633731757108016 9.258597845620384 -1.491945858473908 -0.7452075118258392 1.1319371656171795
Ni 7.052502141247206 1.3408700232242037 11.090959251897702 0.8129861620327096 -0.43005634160343353 -1.951972778297503
Ni 2.226679929219356 1.4558168046095266 7.838839511463133 -0.516232263370569 0.07563517013681167 1.73602119579541
Ni 7.8711163752656175 4.044024989912995 6.54810722806739 -0.14602117605954207 -0.11355765621419797 -0.4666950758723898
Ni 0.7468284612108795 6.86367157240618 10.955284862830897 0.3404909345387749 0.8400871320145596 -1.209291118217311
Ni 6.6754145349063645 7.593665963701961 5.884882985495193 1.1332294020660418 1.2198313556270024 -0.9040584926601978
Ni 5.570561909096061 0.3774650269653813 3.641639101121439 -0.7182932039334984 0.2826256867908745 0.299618107583813
Ni 4.607889552873108 3.8255373004280493 6.358493141410225 0.4726366381678054 -0.05494241767415054 0.33315480588867785
Ni 3.9790309382460656 5.078953044623053 12.87915689480066 -1.6387910730966422 -0.6338440350494825 -0.5854309338534176
Ni 5.415273673210384 2.80974854160454 9.707241812232272 1.1841282457984381 -0.0914587674326296 -0.11080169073561562
P 7.457332013592763 5.47620675296132 1.3170610721595373 0.8173025300198763 -0.7414279901787488 1.4783501220673443
P 5.260679225237463 1.3798331524045495 12.00652433389511 -1.1007021188622979 -1.3290770147294078 -0.17133034424829202
P 3.488569136455479 8.521954190968753 4.997235929107065 0.47616419170508956 0.08974178474152286 0.2586066981684578
P 5.996917707748044 5.201281729400094 5.298236277581292 1.0999161326258928 -0.3916306906373836 -0.7966966808440666
P 3.2582407999261727 5.157526838368984 7.545691917110747 0.08575734617247811 -0.404088199674446 1.1467973705584638
P 7.659612817435742 -0.44830262295881346 13.143560393402312 -0.03653974679724675 4.320390992283224 0.19612452047383644
P 0.1003624344086531 5.626795732051266 9.015166168045502 1.1405498469868554 0.40767771679791726 -0.6784542175596896
P 8.995940842457774 0.8316241449584011 9.618547040415065 -0.7346374496194767 0.8079555415873376 -0.8010310465533623
Ni 3.429264145673143 2.6830258667133804 3.657682252815996 0.5922636405045348 0.2552246690701024 1.1933381944324803
Ni 3.2885917084828478 8.8121425486106 0.12271258075543233 -0.25072498142753596 -1.4952450980504701 -0.7717484955391611
Ni -0.015088499526605532 1.098636286112014 11.812861300979103 1.0416932444282576 -1.1784671908579187 0.7605976211286644
Ni 4.646778678009428 1.6246200290356794 5.609052337445184 -1.2948237499734927 -1.1608235096342265 -0.27618018827584695
Ni 2.33372677890477 0.5855505230117477 3.767754942851574 -1.2281910404456073 0.7134865265734744 1.1288780670758816
Ni 2.789526936574094 5.548471701953927 3.478764525672419 -0.2527288992314421 0.20199486321168436 -0.5592671309738562
Ni 1.263757809347811 3.146328184345967 3.2245550841355195 0.5402042008051342 -0.9833307453289645 -1.7453553287121426
Ni 8.667649652647398 4.997289582038984 13.083515362179703 1.0754891099317798 -1.9970516729140126 -0.12119151861037193
Ni 8.042056466463057 5.654463994011954 10.680049022284757 -0.8028621862248302 -0.5150120178102228 -0.7143887266727696
Ni 7.475102234664806 2.290175398994734 13.170219425212577 0.15217922524113792 0.27246442998715653 0.5192525382541315
Ni 6.9317275413947375 0.9821076682856086 6.327908195064314 -0.677603182413304 -0.2619277921218908 -1.4361511201017911
Ni 8.886257598703889 3.8311431067631134 1.7131769683208857 0.7889324635176155 -0.7228666822367937 -1.104691185417033
Ni 4.870243139455206 1.2334531533186532 7.925488996513537 -0.590028580526429 2.8347883024185245 0.4693317421642884
Ni 8.169926204036638 7.040679995213854 12.416702848522736 -0.48693737106119367 0.5216950862573531 0.10357072020481517
Ni 4.0837374100391175 4.237240298362637 1.9703511968716263 0.6015761761547124 0.4817568553015187 -1.2529083406866293
Ni 4.727850108241277 6.738891503670737 0.7733330095792386 0.5945470372220729 0.49205360924183644 0.9456201181520683
Ni 3.078040952719824 1.3022306617364767 1.5410010095881912 -0.4767169788847661 0.08739796709969465 0.3688363184506873
Ni 3.1294737633187615 8.191248619221989 2.4802723620391776 0.9536450453390737 -1.9629894411229802 -0.43507487786394755
Ni 6.08376145341402 5.178016708059028 3.1347909538821193 0.26984447586580623 1.5721264818895568 -0.8561403288226803
Ni 7.8028383941449775 7.590520791830802 1.3917875806666011 -0.26956139740774865 0.7403866933984281 0.7335614429464785
Ni 6.841831128912638 3.8196724799388897 11.324900835876639 -0.866508816541198 -0.33352890139864494 0.38271898997005055
Ni 2.244570406862943 5.374839713654997 9.898914136363944 0.19228046413739788 -1.0711783983715681 0.5802704726984007
Ni 2.2987228660798817 4.586678143753798 5.518069915616984 0.7413344020236781 -0.23516980730175627 0.6106647687195418
Ni 3.0067010542775567 6.716107508615846 6.164478589285089 0.675397947231869 0.7639248857296844 -1.860473901655557
P 5.63109721711035 7.912900908624502 2.272814050265942 0.6424839701126678 0.6011434594926679 1.1003578481490017
P 6.630225815522226 2.70757670831942 7.648453007596433 -0.5088670812547493 -0.46848790610675445 1.3419613268912436
P 0.6732915677115535 8.528845817568792 2.5776589088273854 0.08420260009084853 -0.8248384333856054 0.7866143569074001
P 2.4002101619577485 2.2478265848001415 5.959551215817586 1.2047657195431316 0.2975637961579456 -1.7633715627839053
P 1.5348253721141174 8.650943239708246 12.264375699448701 0.9493420470883457 -0.20098133434550547 -1.282435403611469
P 6.279344891272533 7.4037345847060285 8.867914771341185 1.8528984033011442 0.3248629981935308 -0.9465302886711633
P 4.983432324794882 6.55910792921204 11.652477886662151 1.0641975961783607 0.034762600292165935 -0.03924274755070661
P 8.860041666107236 3.313753083452112 11.638316287786987 0.6993344034428085 0.15563915876528034 0.12681426411378804
