# total energy = -340897.07845444 ev
CRYSTAL
PRIMVEC
9.03029978761795 0.00000000000000 0.00000000000000

0.00000000000000 9.03029978761795 0.00000000000000

0.00000000000000 0.00000000000000 13.21675653587561

PRIMCOORD
 96 1
Ni 6.328758995009186 1.8954327785322715 11.40356247128065 0.29560281577683284 0.5323373964625477 -0.22803191070539436
Ni 4.509614186829233 0.4927283600268561 5.903383123958747 0.14616258673341279 -1.2441838163294379 0.8275206082034587
Ni 2.7385557235979183 1.455621070667768 4.673524056462516 -0.11391606799488123 0.5253141710671791 1.1106993392843258
Ni 3.4959630656114573 4.410443437491027 4.8435844630994636 -0.34989114480675226 0.3869083454610498 0.0006530602029666173
Ni 5.051666945869039 4.6452854068308 2.5588563752523927 0.25341127001044744 -0.043014812998629144 0.3203903071341579
Ni 7.1821222997315015 5.976622465192819 2.552882832119337 0.6075542481150181 0.7593699193691502 -0.7978076545200583
Ni 5.043927979179653 4.537833872831955 11.671915882142374 1.1255050368385906 0.09028145929507678 -1.0794648067500765
Ni 5.65151362184242 7.680215560703706 12.482446670177293 -0.5906477021676666 0.9734435681222396 -0.905712483323853
Ni 1.6428462706339875 6.515812619284509 0.6200375226720962 1.5328737070365213 0.8270156435425821 -0.9924977565402132
Ni 2.7054867667524887 1.6836361335697618 0.29779038123986057 -0.3234049255907656 -0.5219604241035979 0.6428243841712219
Ni 0.7738957659086972 8.908751689320129 4.692569861181985 -0.4074170069373628 0.3374937995836639 0.6005425926838753
Ni 8.570666305558237 2.309860314443607 1.3514394081254304 0.5777657039986759 0.40671355311243496 -0.037975965023141045
Ni 6.747078590014017 0.7337389269693358 4.780012057502483 0.5708748904161136 -0.06139151573360395 -0.11128582946088576
Ni 0.7984410230363769 7.567038816808629 2.6704853258095924 0.15194782595662218 -0.19900904111048306 -0.6174527381756527
Ni 7.619884129604767 3.9638590049858697 3.893973516993849 0.9523461240219923 -0.35826548491337656 -0.11690368986829544
Ni 7.668394898630885 3.749163633877161 12.6269188200919 0.16700060652468657 0.26263098883650254 -0.7476369472029382
Ni 7.737675356555009 8.82954693222257 6.982491274283508 0.05829873574089314 -0.07588379581250802 -0.15322463578651674
Ni 6.610125067480487 0.8653149061381875 0.4087140654044802 0.3216270077547364 -0.42804908136541764 -0.8245648680092443
Ni 1.7849290032953726 6.392838000409287 9.206263937334747 0.061782323414119406 0.1329041790616098 -0.545754441199402
Ni 0.250717235897464 4.793355228074522 1.3740937205334396 -1.526050513467101 -0.44856031394489193 0.9731769447244142
Ni 6.342918504657912 2.0367840569324662 7.004180247672736 0.20508121544649197 -0.794815918881586 -0.30105484003033955
Ni 3.5252122057595585 4.401476350066802 0.5263617105923404 -0.7971137137768272 0.44097967338415667 -0.05098497568829929
Ni 6.108139747414786 5.731187954515065 4.790016726341657 -0.8959402344284376 -0.46944847024781083 0.10436673374354928
Ni 5.306736786135563 2.8590831313029845 9.15147981923148 0.10963338145912732 -0.6847619049452723 0.2847033952555097
P 0.30874052243886885 5.5022698616609835 12.475520430444785 -1.0908118563317795 -0.662257296084853 -0.18008623606405114
P 3.929814775792186 6.180616931369297 12.521647200397394 -0.08156439113705308 0.42759708142966363 0.5211620965720185
P 2.47545794705734 8.494288032210711 1.2354127017015668 -0.6462030708354677 0.6986798005779451 1.3214737484608532
P 6.298254643227684 7.692966343627177 5.773633974382967 -0.22357567470625367 0.24186187460995123 -0.11351471879140451
P 4.500412311617465 1.2598170861567206 12.494976210762502 1.5764348794569238 -1.1357639955624375 -0.3192911605327082
P 4.048111699515597 6.075540366144441 8.143742641169922 -0.5910241116704789 -0.24597923921243445 0.17077935684082846
P 4.764882693685216 1.1180323533795244 3.762070640982342 0.22915059769086984 -0.3625098620120273 -0.3379496561741599
P 0.19575792998349062 5.701776268975588 3.7051192509940645 -0.9787251282361531 -1.1680117998525499 -0.9671333096334956
Ni 1.4831093024092992 1.08947854629453 2.6279670635455235 0.3616760532568223 -0.3543908324493187 -1.4342001670230073
Ni 1.8338371055004103 6.429519077063065 4.745965119218943 1.2983374195537059 0.6720732537340103 0.6840556229068671
Ni 5.91379867142612 5.416852258493064 9.145400621594028 -0.07562360017258589 1.1556226821595774 0.807202465471397
Ni 8.54207637727516 2.3432995135693924 10.10460626094057 0.18424370987585045 -0.2633269864622626 0.5569351404065698
Ni 2.369126170199084 5.203981007887571 6.964595929722998 -0.03599081627231221 -0.2873205211633826 0.5147147982847781
Ni 0.5184927075898533 8.970717604632346 9.183306206862836 -0.5495601880987374 0.44988957427927684 -0.5688141512323429
Ni 1.436838047664356 1.1517153705923735 11.369026993793028 -0.40554318695341773 0.4210312552866878 0.27846589898623003
Ni 4.089118289639872 7.00991448786849 1.4512657572088519 0.3470120234867443 -0.34105503457236097 -0.07457921806847156
Ni 5.662476405460757 7.740926264382522 7.8926632902616705 -0.45061693936360464 0.19353259137694412 0.6212998798358849
Ni 5.333674169606321 2.9980142894315853 4.9074476443410155 0.2917795853760007 -0.4400592184524163 -0.4654167233805984
Ni 0.49146502112388624 7.3713522261913536 6.735073709830971 0.7224108256462978 -0.6218524099052452 0.3819934246579357
Ni 5.153673209256799 4.435619912555215 6.97454822282495 -0.3198976837684555 0.7828628602847679 -0.08509528710844701
Ni 8.093116975996015 7.120517596400119 9.276100661709355 0.12181012603097732 -0.43586523497572677 -0.6056778570279118
Ni 4.697236719974371 0.47348117962807157 10.221033009633206 -0.29915788011794286 -1.5533738838724023 1.3061546016052794
Ni 7.962358238933802 7.417180996259774 4.365745260922619 0.28415832138531705 0.24843747094493984 0.5582710856091739
Ni 7.261164511437686 6.014062087006351 7.063047867219343 0.2886898907070835 0.2150380695488877 -0.24255581535318227
Ni 2.332336729951055 5.17080368744789 2.618913285245898 0.19015519026427896 0.5252709765340695 0.4840659630506696
Ni 2.3015072873868014 5.141554547299789 11.462522199882368 -0.1531464742504137 -0.30866530538774584 -0.22190394343078557
Ni 1.1358310737351611 3.086809224620311 3.845217123820762 -0.466973269234441 1.539909016616748 0.1502161879774961
Ni 3.6569642757690675 2.7862266747685966 2.815314172555275 0.17491960426144712 -0.24500119156988132 -0.3521344323149742
Ni 1.0985720579120473 3.352634151616192 8.290051554007075 -0.2917050233843234 0.15838663960343044 -0.5999491820742506
Ni 3.633837678696117 2.7186077919563143 7.280146201030556 -0.040069100106743895 -0.16057387706273635 -0.9726362417295958
Ni 4.034376613944352 6.859090425270901 5.966652111491825 0.6926402792520845 0.1080909766726719 -0.20268006220416704
Ni 0.9252354586089273 7.212265439532168 11.344206312529964 -0.49291698568339626 1.0798131912284308 -0.022214074203194
P 0.1974556262934144 5.501150104520395 7.981942249504715 0.17288817565371517 0.3546278881607893 0.44193663798078725
P 8.478205068764039 1.5396028562118687 7.952377048873383 0.501638167606478 0.794835973486244 0.6843849812218279
P 1.7191071500877435 3.171251555439976 10.404310162648901 -0.22308536533339643 0.08510377174887925 0.04586642351481133
P 4.057747029104367 6.267858655040432 3.671218603562762 -0.5527375573854546 -0.46943895716611406 0.4829297925636974
P 6.817126623397413 3.8566783799726516 10.3907890951763 0.510667881908914 0.4040455193619686 0.6862683142874697
P 6.273764470927081 7.650948359956564 10.331419390976334 -0.47318248336894636 -0.09878846832482342 -0.46733656611113067
P 2.399657612879149 8.331679428738386 6.025664215830766 -0.29036702129919023 0.6641789385875981 -0.6372952268228766
P 6.952861055495626 4.013480500853056 1.4866338283122953 0.4151899660145624 -0.22813526905247808 0.860970146111156
Ni 5.254622927600615 2.8776313665188535 0.5250712807908079 0.11481441143943452 0.27645529631410454 0.23676954768870836
Ni 1.703385398621907 1.1566730050293317 7.20458607281962 -1.07047031656095 -0.5067523489045918 -1.4299401061950727
Ni 6.913561191980796 0.4960469951007762 9.318037372684282 -0.0931685510348847 0.5197305063318146 -1.1948278916041293
Ni 2.85468537543632 1.5191311671980539 9.20030303662102 -0.7243697491448816 0.263385864724656 0.7148975479883881
Ni 6.502339412399369 2.109622452867812 2.6556693133856997 -0.594353433154028 0.01025870161353072 0.11341470287843049
Ni 3.9329482897259287 6.7593868882609645 10.369920072983568 0.7514627487069316 0.8984663432844011 -0.14669017710210863
Ni 8.185704636983505 7.317820610631631 0.22671921492074912 -0.9308339609818292 -0.8994338494039928 0.6302946271353274
Ni 7.4947873903421405 3.725910612610918 8.201513079324743 1.3727651996459778 0.1356496030172309 0.21967068322489264
Ni 3.1949290007836995 8.445109021020047 12.293737791999794 -0.06006148406827075 -0.3959879391648148 0.08282088925197349
Ni -0.06534415036297503 4.841197754936097 10.147811728998176 0.4703025907179901 -0.4253550794730223 0.17182502449652343
Ni 8.648986093302753 2.2117099889512595 5.796314474659587 0.21386950316208325 0.24309163325199423 0.19438568340585877
Ni 3.7341191548753896 2.8046755766897364 11.226735661212713 -1.0892799930682853 -0.9826388614682626 0.3636761144059866
Ni 1.2353178835565977 3.326635919295604 12.782241777910787 -1.1009258048373298 0.467611159928756 -1.0158929955357021
Ni 3.1728318578561283 8.214493231856043 8.12271468570562 0.23792885810413217 0.06459999536857262 -0.09054936824448276
Ni 5.596013400987147 7.877563726432823 3.558518659482387 -0.22211528811064327 0.47751196398223567 -0.4004367189647878
Ni 3.1136382444968187 8.388778012608853 3.547707584896001 0.30896869556077755 -0.6484342741588316 -0.15730934737885166
Ni 3.4154127938852876 4.231444840388321 9.33445265115332 -0.3681732309453917 0.9905169786647586 -0.6574611602477902
Ni 7.341425813579186 6.070835580094068 11.47920206612737 -0.22145400037756052 -0.7054487438706625 -0.1883574749339079
Ni 0.6121784529990821 9.065969203978494 0.3731509398313858 0.2186738665292621 0.733968191466594 -0.5623277721770509
Ni 4.449075058841314 0.5206392097859643 1.5333421495540487 0.26995914706679963 -0.48224047980615653 0.6435067549502272
Ni 5.945278295555876 5.589773464018225 0.34945543388862016 0.3789145286222958 0.19803664989488476 0.805379039109413
Ni 7.967559691457824 8.766759259653954 11.34873952288944 0.31642206651502924 -0.15122611729924923 0.597800254052048
Ni 0.2149256437464915 4.7662282083138265 5.888659220589966 -0.4424441737448251 -0.5291165755324049 -0.6019212181989569
Ni 7.959188603801976 9.050166179816971 2.1787421714604633 -0.04793847555249163 -0.6669891543428835 0.8583818165586894
P 8.598732476469106 1.523185771682925 3.635203059983672 -0.9760581229269514 0.16380601084678886 0.2265404137615324
P 1.8968144143589647 3.2666927910760624 1.6697782359250333 -0.571673475058009 -0.7075621906692395 -0.1633936058997186
P 4.785300200901906 0.899439504997607 8.085099876081385 0.1989411639870251 0.4693070595739402 0.19655903690809373
P 8.419751939965442 1.5978211972229241 12.388012312937784 0.27475579712449455 0.08266508040039956 0.2690590038500334
P 6.218769946844977 7.900356202423501 1.3436281990398773 0.9116167646234301 -0.6439806092628522 0.765189868485037
P 1.9124097416315091 3.101013885766641 5.981361566381373 -0.2640564084291194 0.5034906474341845 0.08387761265126199
P 7.051002350688453 4.002969232210763 6.037070387155579 -0.1012947796864449 -0.05969073099241333 -0.930237979269043
P 2.3242455815803544 8.578486544943313 10.178421735284074 1.074865103194536 -0.8782621004223843 0.3220910918753485
