# total energy = -340889.5174093855 ev
CRYSTAL
PRIMVEC
9.08115797725616 0.00000000000000 0.00000000000000

0.00000000000000 9.08115797725616 0.00000000000000

0.00000000000000 0.00000000000000 13.29119263722853

PRIMCOORD
 96 1
Ni 6.469253273251477 1.9872569794652877 11.513442244476376 0.3822636476001868 -0.35026575453735165 0.9017825521418276
Ni 4.769206067858421 0.2672448489039323 5.775806991342675 -0.13351635872431197 0.3909506338512235 0.04540902426241857
Ni 2.846243684795935 1.790740727183279 4.730879949968819 -0.43352141733389854 -0.5743111697911722 0.3594204244534262
Ni 3.639600863544231 4.640090167907146 4.869175084107093 -0.48205356060633103 -0.1464880883936316 -1.7820709389656213
Ni 3.528828902114659 2.765294245200656 2.409082202582232 1.1957223783939408 -0.15464774138628848 1.0841868948160942
Ni 5.191552549426428 4.396933089760054 2.7476886047986637 0.22576676882030147 0.011294341966896678 -0.6289553394986136
Ni 5.422186711127267 4.6771049666271765 11.381473952896554 -0.20052907729943528 0.4756777389869743 0.7093581062273977
Ni 5.798155720403027 8.143192150303 12.503303870001693 -0.299168164530588 -0.3946216549449075 -0.43909531187725026
Ni 1.8971628140822094 6.873973227754817 0.09082701480817779 0.29449544164526703 -0.9943402090655908 -0.43767991958696234
Ni 2.760508475101182 1.7715885656276986 0.37361698943560095 -0.39425295875157906 -0.21039877100466345 -0.7373383934904075
Ni 8.069271526755147 9.06613744920214 6.21401825538465 0.3023509331339438 -0.06849136000317882 1.5407597946528175
Ni 8.842014477560737 2.552440990245111 1.1688112863833728 0.41369898329133264 0.44090254028931813 0.7536255606862052
Ni 7.065576573729776 1.3387987527230787 4.576024416677981 -0.23373410329649422 -1.0183396573039816 -0.7780551544834793
Ni 0.9414254547861037 7.570034883076614 2.373581232848126 -0.30416767462770844 0.9477492486799289 -0.3706175787208263
Ni 7.692285427818778 4.103075908263126 3.713093764565168 0.9275133812490284 -2.227701223747912 1.1450680465721828
Ni 7.7606756263370675 4.089617632575421 12.548334606609401 -0.23606712230504506 0.1674906587872277 0.008015671215624905
Ni 8.221008590497295 7.537006712579864 8.742813727252132 -0.1618072352492052 0.026318069069238545 0.7272306156324444
Ni 7.244021322220602 0.5648334780932206 0.3999450817930871 -0.27364070968344484 0.9096686397581236 -0.12878038670122335
Ni 2.1572199266792467 6.337149672422162 9.228991666181056 -1.0386194905989403 0.7674534677082332 -1.178757468404828
Ni 9.363581687984253 5.140925095338064 1.0604839726023363 -0.15881087162504262 -0.19707145776813803 0.07490754794216777
Ni 6.597924196476236 1.9163422191108417 6.7769528634061444 -0.15026581026850896 0.5933848985931716 1.4534263622424712
Ni 3.577422176881804 4.455742666921712 0.2900521764273272 0.5675134301430484 1.0612727092220817 -0.449564072619058
Ni 6.0920219830576405 5.644402639655029 4.584530737080595 -0.07724750892925407 0.9450753013921916 1.2150830423087398
Ni 5.317462800715247 2.4806907633837363 9.588079711438008 -1.8141760470302821 -0.6937957330127664 -1.33575134142579
P 0.42236191953606944 5.74948979637441 12.145212027742678 -0.5817079764758757 -1.2511751600456065 1.1695943138483211
P 3.9913413441190486 6.382955031780316 12.523000901018314 1.4845372247146627 -0.9139330714614324 -0.06125344749384289
P 2.614701407326694 8.641802194101336 1.0762107214795076 -0.32071195213963477 0.7973199162503624 1.3851792570396144
P 6.3604155984086 7.7651526370752855 5.770503595255213 0.2268471463686738 -0.6568839475880816 -1.277425094881071
P 4.509303334942012 1.2028447410357426 12.386819860388878 1.2704214098697282 0.22476943790403872 -0.5864418916164351
P 4.216935463305262 6.177893410117652 8.144058492746055 -0.2773407842428514 0.9803701200387437 -0.5885589379594379
P 4.708162525906496 1.3021199568373563 3.602085693035811 0.26543760504736225 -1.612480203116255 -0.17011498378395218
P 0.3761088591040937 5.741925192023628 3.301944350421547 -1.4228335770572786 -1.3337283974584901 -0.11709343728159835
Ni 0.5320187148020451 9.126472660854713 4.380564303034624 1.296284136569103 0.8336519179121772 1.0748566185541037
Ni 1.6767812794066186 6.532067640951785 4.6944626914243965 1.3778433854998333 -0.07340550947534456 0.2796187816437507
Ni 6.255982285042467 5.5183289275278975 9.066626923601309 -1.078557978665091 2.1012340585608977 -0.9691989339132727
Ni 8.705551921043096 2.8351919158944927 10.541935454861985 0.46595254127941044 -2.1781807484202806 -0.45116124190284884
Ni 2.5331435301665866 5.265391442555125 6.863545334386267 -1.0767978014408743 0.6882925438063502 0.9067216413146578
Ni 0.4170022202709659 0.17776820224336704 9.205865590022952 1.9936724720291341 0.9835971116164738 0.286043711333488
Ni 1.7501207088626956 1.387192242021176 11.475309555245445 -1.0677421189965095 -0.270239911532012 -0.3454562489638502
Ni 4.24631300841304 7.241069945973298 1.3573361199034515 0.6522765307230572 -0.8503766868660257 0.07667852379966149
Ni 6.109448724653258 8.10289905365904 7.884388237466357 -2.1708767585597 0.8972049600734742 -0.0478024641952596
Ni 5.239637279363269 2.8780640613207114 4.904330061733439 0.13642787594415215 0.8479343959731203 0.45657469960893626
Ni 0.8752773940999955 7.564186617528111 6.779119627629549 -0.759405400592776 -0.5542977027837228 0.8031190394306428
Ni 4.9861549249294566 4.734479720874762 6.788396938319535 1.3602760660400315 -0.33136737497095187 0.452613143858027
Ni 0.6597324840069092 7.4628408977745435 10.998195519800932 0.8906892704421435 0.5105203005874563 -1.057695790504101
Ni 4.617214731701121 0.12068404504167077 10.113600857917142 1.1907100127810137 0.06581972670828665 0.159697387995054
Ni 8.309313767816622 7.311349025289863 4.5902191742538605 -0.9903825099694232 -1.4457508479750842 -0.18116944182590086
Ni 7.446749086358475 6.23138142887648 6.947358971115083 -1.2471920070281424 -0.35340841393139133 -0.7393448823974751
Ni 2.4728628054601187 5.652521194624535 2.2245730569900233 -0.4542738193899015 -0.7632967652273822 0.7092380357097657
Ni 2.7151753359425967 5.195965992060857 11.219680415135132 -1.7489157923698913 0.7456227449863868 1.2979131875320937
Ni 1.1763186794407452 3.518340164989626 3.4614521607939044 0.06597039335353799 0.3654218934524997 -0.21718056981318726
Ni 1.755333293373318 0.9296108686392047 2.587077433767699 -0.12706854621643923 1.2598834864528818 -0.8677475740443055
Ni 1.1849276169251879 3.282284552151431 7.7351948059915 0.7279672366881527 0.2680770995527383 0.7332421119338469
Ni 3.521645706386606 2.773403719012479 7.046272756840873 0.053846099286178235 0.168221109195349 -0.25534216848457314
Ni 4.123018130537215 6.906828856255571 5.748852299104993 0.3756682537708563 0.4685526979064188 -0.0825187846305224
Ni 0.7150212963344763 0.20882031282807592 0.3840276286045517 -0.5066243079671597 0.5064163057214117 -0.1984066316397938
P 0.26545676895595044 5.912514739117784 8.122367239502024 1.1542450850857604 -1.8957756622806448 -0.751957428955163
P 8.898008895840352 1.659027616134376 7.63463369826183 -2.2945033689741257 -0.08379919400484277 0.5395112885031677
P 1.8992878049802682 3.421416969028171 10.037429015379422 -0.7970844032007884 -0.3054784230193319 0.6446046160000963
P 4.160877476921859 6.233115929994126 3.390542849134069 0.7809293907074809 0.6216832313172326 1.057871653960333
P 6.785023288239925 3.8023533715570856 10.00241933627602 2.2762595922725897 -0.5343870799027248 1.6369794738092
P 6.606224374599423 8.097786361882942 10.033693935223987 -1.3215321125026145 0.9997300126225943 0.6149065747150313
P 2.475187581827225 8.392370035994592 5.6344551395279625 0.24696268617162628 1.1218299019798488 0.45559330953227345
P 7.041593236286301 3.97226183182494 1.460608861317567 0.01666717624303581 0.03603632479826697 -0.572679290614704
Ni 5.315583001074657 2.896180970900314 0.38025713193415017 0.44570587521523236 -0.1824681060326664 -0.1993150023866761
Ni 1.612305059850137 0.8336539078553289 7.037167988146883 1.1079942816483368 0.3704126617988717 -0.9703312477455031
Ni 7.388802219176797 1.1343001628368239 9.081937755456552 -1.4091645642106183 0.1900042665087115 0.001855822261816159
Ni 2.9854033451457274 1.629795369549543 9.397524331059783 -0.9275529762377123 0.4851820789329838 -1.5693157519136394
Ni 6.413603938963855 2.095077564647556 2.5135636460840893 0.3154830996405276 0.2646341353094604 -1.3638678971563478
Ni 4.236777792844827 6.8167619343455454 10.212992312537109 1.3631212487983104 0.5863071658107838 0.9397860279687943
Ni 8.482818366527347 7.479168819290396 -0.2699001794107373 -1.3065410384104208 -0.5889551449565922 1.4579000817431085
Ni 8.02991378935264 4.0348400894254635 8.22924156805362 -0.4714637009056267 -0.8805503822359287 -1.216423358386718
Ni 3.3451080010094225 8.412330420584048 12.189285610330492 -0.6149500263584571 0.9958941838162718 -0.28247836257973286
Ni 9.020495550682298 5.008639871355068 10.187898349508883 0.884056081396342 1.5150047971759006 -0.41763328534873234
Ni 8.942424838072853 2.4397529045442123 5.505118567444965 0.8181908461621006 -0.051685858410065816 0.0804513605785324
Ni 3.6840985361958873 3.074280635399148 11.500017569072103 0.11502832722245351 -1.5998655996760383 0.078836964903561
Ni 1.211853249458282 3.6588529178343356 12.47521948174812 -0.08732340510801735 -0.47384325688139683 0.07303989860580969
Ni 3.253642580816059 8.406600210085438 7.952332551142362 0.7223622317965495 -0.5644607593596537 0.2800386427899887
Ni 5.963605332248033 7.985025626920572 3.561959689693238 -1.404169424988872 0.030159554302515802 -0.034231153268728144
Ni 3.2733032872019434 8.520042031874109 3.6352736919077997 0.9855241534358574 -0.7601078259764393 -0.6136459628350528
Ni 3.759363171080975 4.374411818703706 9.307316651205655 0.5610293650806015 -0.642520479777558 -1.106883050862029
Ni 7.243167693398305 6.4868525568430915 11.142245383563566 0.25369203447565986 -0.9272884097224159 0.7695448030196231
Ni 7.85349413902535 8.997447572480278 2.6237080995176965 1.0234389262037598 0.10499562557679983 0.08044801814442273
Ni 4.646746656489526 0.4977709448283325 1.286777340930219 0.8686852553672265 0.6641380580473337 0.537088795104604
Ni 5.970734041029982 5.607396922092683 0.4788567096040734 -0.40472480481718043 0.6260710759722831 -0.9835377191334481
Ni 8.135273380802543 9.155713988597231 11.245398253696251 -0.3698048530115437 0.09267952721360813 0.05599708419091002
Ni -0.056329512998154904 4.828524189850384 6.029469152698632 1.3365856644016272 0.2943465747722286 -0.7714093670321875
Ni 7.4150467648835905 5.927616704346296 2.484177019818628 -0.13743986214843426 1.992913996596555 -0.9308452738357388
P 8.855654376402123 1.8224975356042672 3.25628883016518 -0.9176843109737486 -0.5591457749046435 0.7565350210235164
P 1.9933958420596796 3.6023499547244158 1.3352734473101455 -2.250875090761214 0.2963440648182316 -0.5387173318469626
P 4.684351730459017 1.1916295112959885 7.88898693571754 0.6227774928226758 -0.9409042007336376 0.2723423025869955
P 8.709120816012913 1.7448717997213368 12.461834763437656 -0.016966966871641745 0.8073101946938549 -0.4332792194161054
P 6.6628726362322865 7.690451033966607 1.3226760653708847 -0.47415230348138343 -0.2542070264388654 -0.7494516318141737
P 1.890342864661517 3.575587783029634 5.609653589777159 -0.23033536202759042 -0.105769784738663 0.37942180727601754
P 6.940801467151458 4.019156930105176 5.999976276888267 0.34887633038899274 0.02337544150114684 -0.27965786241180224
P 2.2794523091060412 8.701265614616243 10.137351717723906 1.2665094764098317 -0.5989909319260395 -0.25587875771433355
