# total energy = -340863.8622195287 ev
CRYSTAL
PRIMVEC
9.24393694003615 0.00000000000000 0.00000000000000

0.00000000000000 9.24393694003615 0.00000000000000

0.00000000000000 0.00000000000000 13.52943610320854

PRIMCOORD
 96 1
Ni 5.038574158265916 8.022461502309756 11.188937859735992 -0.3961787150193822 -0.45777180524083094 0.7232016969787094
Ni 2.7151938323016074 1.1998352682976088 7.6715958629337715 0.8634306918365064 -0.05514939147863405 -1.7543876141177397
Ni 1.3682135775962903 0.2653037601078751 3.81214870568625 0.5839121832160459 -2.333403131363117 -0.6249834993350593
Ni 7.63844063471738 1.7357062861424923 9.086571743755384 -1.2116740166271907 -1.653215218941772 -0.715339263511497
Ni 0.42519890858067666 2.69259240676028 6.706703568630363 2.940865848205593 0.6818344468858322 -1.606155032229176
Ni 7.117248988553325 6.704682844040042 11.753183141670489 0.12780619571341215 -0.7351588693405855 -1.834880883677801
Ni 0.463849657240553 5.075244855657509 3.5473367230175565 -0.05000024317752679 -1.7256259686040152 -0.989036023243858
Ni 2.942881240280516 9.299862644520362 9.671111164599258 0.768271078513522 0.01306943158944846 -0.8859324724834485
Ni 0.8830316873407184 7.061637464603786 13.221776629268117 1.3036269500874194 -0.5086387672940272 2.191959804482244
Ni 5.959603047932862 4.53854188349822 4.786674106556783 -0.3804479345476868 -0.8365626638010689 1.0735965208947575
Ni 3.6152482293087282 6.692850604901842 0.715634159739352 0.09257539753557605 -1.126189721610441 0.674256120317942
Ni 7.483586204996189 4.873810228266481 2.948821394085366 -0.5427290241095168 -1.106143087372211 0.546778254478226
Ni 1.5144341703213267 6.119329032361733 7.853865036101964 0.9591389785741096 -0.03969808992057034 -2.6355514615679514
Ni 3.7814634573899575 5.432504526136533 4.823379006514635 -1.8042407901944408 -0.26135135079313054 -0.18731489260200643
Ni 5.398385155309114 3.871018717367208 2.07630838245977 0.6063142050603301 1.2518302771311023 1.013957469075886
Ni 8.680842414919141 5.2107979452845115 0.9231660878612831 -0.2599614124241394 -0.6037055637928893 -0.38576111923048406
Ni 5.351065442693141 6.193946090427007 3.0342335215768808 -1.8804333754966196 -0.27684970353904576 -0.06997771474071819
Ni 7.1282954930612545 8.599089037623642 13.146039206059445 0.7876119449339791 0.7233618767056574 -0.05407749857069396
Ni 0.06143982611878592 1.3018236233067964 1.6184044253861627 2.525612118832631 -0.5349959171313173 -2.2771977878161427
Ni 7.564757214271605 5.1066002893737386 9.901247291443564 -0.7746885520040916 -0.6499877346888806 1.3203656029983388
Ni 6.082491944107259 1.2959999431059634 5.025712144565219 -2.5573863259204344 -0.9149180610825212 -0.5204267610678908
Ni 2.111379878780341 8.234415729809589 11.427272434151917 -0.5108620001975912 -1.335367732834126 0.9718291724472683
Ni 9.076714009523371 2.732748068335546 13.242246402977203 1.3428568421223197 0.7318370040562041 -1.3495584225122113
Ni 8.060315423615169 1.6216361057007835 5.551452732041701 2.5642349734111516 -1.0478168408274922 0.311066972850703
P -0.3439262160001657 8.310835355556073 1.3347653165824913 0.6963899761025039 0.15567078333416415 0.14903887983994332
P 3.9831661589489595 0.9309199020715347 1.117387671346422 0.4394951184188302 -1.6411310340837284 0.7225699769319814
P 4.463555067959878 4.451944683305519 13.128057900144112 -0.17669777920779248 0.16598219256250124 1.000706774713567
P 2.6012438230386454 4.810748091234607 9.393297584783785 -0.7985386191488117 -1.5697602956502257 1.1894393735987063
P 4.112387151849661 3.08276973627925 3.5410452996132915 -0.7361253470189129 0.36256076985462077 0.6684017184196941
P 8.821572109169107 4.888286233337123 8.142068800910668 -0.8995184386979993 -3.3345259105681797 -0.1406923076474609
P 1.9499807417858324 1.522578078665666 5.334872838553777 0.15530748645747447 0.7676748396904198 2.039167885357772
P 5.182086277500724 8.731961385570896 5.69467459166015 0.49635917859572587 0.369481408233854 1.5009400915527182
Ni 1.8896085903705322 3.6691773567558053 4.596679775382502 2.444594344227667 -0.3238643817256874 1.3987559672827845
Ni 5.678596612337439 3.377974858840512 9.115633756744904 0.13940084252954701 -0.45928541367187997 -0.030898232240753234
Ni 5.609230110389742 8.470191582511877 3.677666063943781 1.8071124553152815 -2.494760166448781 -0.05920273561240126
Ni 2.2467573336076363 4.680963218187475 0.22044201029412647 -0.9817564588633093 -0.47629506085599904 -0.29065524196357034
Ni 7.638477610464687 3.0487428048200984 7.3119568031155495 -2.153129461878608 2.48095771334805 0.35483460485495666
Ni 3.1893061082071834 4.715646469161324 2.362415622396176 -0.2654869702280589 -0.12019058814968331 1.0325066928329831
Ni 2.0872809354730855 8.836149797544843 1.4019881495800721 -0.27845895700769463 -0.5668649979257722 0.26629198262785747
Ni 6.778051970633709 8.496222508615915 7.11181540248658 0.39304222627292956 0.1520208452864027 1.0323979351692607
Ni 8.166287915396673 8.46311072690261 5.311589210474639 -0.12802088282737953 -0.6676686969084115 -0.8167687690035933
Ni 4.605246131639822 2.9576160755823055 11.634070393689804 0.9278195996355375 -0.4753854045575362 0.15704709485640048
Ni 8.652999677197066 1.1495574958970856 11.024433684361389 0.2699115816583158 -0.1857750589187123 1.3593023892728526
Ni 8.159345718839806 0.47275526597941375 3.199035351717305 -1.8853884055090497 -1.7957175832147783 1.825339262735953
Ni 3.6754170141138403 5.426801017114448 7.6300332741734795 2.8011071081159953 1.3472634558304475 -0.3215593877415946
Ni 2.399938610763192 2.013948784626726 2.3849144402387266 0.08001015927605576 0.7760810614762441 -0.6024896891079172
Ni 7.299835228754674 6.981594215621229 2.23557679201572 1.8799970592901492 1.875660122477692 -0.9863337938213466
Ni 0.4862005720938761 0.11599107051430106 12.884974715380304 -0.32192962659681973 0.5990312982456716 0.49579276456929455
Ni 5.9509045033789185 0.996699756530465 2.2716189017030968 0.8921514568099668 1.7747412380734273 -0.8392443243982902
Ni 2.4765338713093836 3.606346318144598 7.531160125874896 -0.7331099572313567 -1.4467453506778696 -0.265619124930549
Ni 1.3468046199056094 6.200888286983873 1.9331808109969537 1.1796185308535427 2.06878802221705 -0.9663624929057422
Ni 3.246239515122944 2.645660939491029 9.815605914318748 -2.4829531465115235 0.12286607809931743 -1.3731400664868931
Ni 3.4757017589725825 6.692822873091362 9.910433915861958 -1.132728294059907 1.1838431104578515 -0.356426889042741
Ni 3.7722010326895856 8.578512034247366 12.996687691931198 -0.056375036355619045 1.4046525352728776 0.6144885133410063
Ni 6.79241704846243 4.397645798385374 12.57933133935431 -0.4074848840608208 -1.2736561147569418 0.12463602551554662
Ni 5.235793550463959 2.478558293474435 13.9311249119653 0.5227368972583061 -0.5060082716497157 -1.8567753697580471
P 6.644264472940609 6.278084403423801 0.11926712172569018 -0.27229499428882786 0.8449359754664287 3.326954011758193
P 3.068802147734078 6.131281442678681 12.099374122193199 -0.37790897017591696 1.0358331861030545 -0.03767411751200608
P 5.132279945878363 3.8476130693219566 7.052596894387255 -0.02150342128941458 -0.47553504276152303 -1.136534812290191
P 7.167711639690383 6.499356519244967 4.7539598141270245 -0.3364105938218142 -0.3185702232062836 -0.43839005828010946
P 5.88016065484404 6.660912803165529 9.818027825767349 1.4018492614961275 0.6975433729806567 -2.0091019192103268
P 4.820518932460448 1.4082305801191555 9.557287797270824 1.187041305680175 -2.1198529592136652 0.2060554064343032
P 7.149343937215693 2.6598134067727353 3.8497058966195254 0.8468007965893094 1.155353487658591 -2.2894781478453923
P 9.17954356278379 7.137428502646053 11.450408159241826 -0.6195957526605844 1.105463030586051 -1.3991521742799387
Ni 8.347552272631798 4.014253518497214 5.071103571959139 0.23425166636286107 0.2848329788548385 1.1719535581091172
Ni 0.4005693632995673 7.338918593658041 3.760263412671561 -0.2645942832104604 0.8112951474835317 0.471538262897304
Ni 2.409376670263272 3.8838585456195207 11.550336965126021 -1.1169849151827214 0.9181221698421156 -0.0703690366418659
Ni 5.492312797405404 8.204844375900915 1.2331097432990654 -0.8277352953174261 -0.8609079254146528 -0.15789195935519904
Ni 9.354216993061467 4.942557386446787 12.11555563360837 -0.13100953314205824 0.4427102829220182 -0.7349981753930052
Ni 5.180450100682394 8.515708727446638 8.826617449889131 -1.0933821881621169 -0.11154885331428531 -0.45585376228251173
Ni 0.02643765932441552 3.359902962344277 10.20624081871064 0.16390217010502095 0.7509971219244228 0.2220461254356047
Ni 5.554820298227675 1.463130320933038 7.46682787192303 -0.0700839013012793 0.05539184650674331 -0.08405193344559718
Ni 0.7029182002405177 1.6935816660231355 8.639749418149647 0.3645199504635206 -1.2856865635589148 1.3900250151676898
Ni 0.501867196227799 6.010574115595388 9.750001694659524 0.620164480679861 -0.626061048669954 2.113192516474354
Ni 0.42648474019327326 8.479546446580516 9.570168298845173 0.3526010875387476 0.12843920131172074 0.04912066878605088
Ni 3.139961973426159 8.886566228997767 5.656143089785338 -0.7011917683665214 -0.28533460108160535 0.1343170002487364
Ni 0.9434546804085653 8.41164048665144 6.512813842477303 1.623838822662184 -0.3471737458755892 -0.3880383453004349
Ni 4.083499849266165 2.476811189414185 5.666019311891005 -0.8162949146909683 0.33865876642604253 -0.1988833141658962
Ni 5.596112964032628 0.855041046629414 11.733133042693336 0.9460973148988029 0.7672202686515045 -0.20289063555307638
Ni 2.4210610064122444 1.6262395862404895 13.434337259023785 -0.7069029598186857 0.9324216171839232 -1.6736125516512017
Ni 7.521264491501894 2.7891638147890108 1.4290470014592433 -0.7318940825463847 0.7269853323908576 1.217791185268522
Ni 5.1643841384775575 6.659091747610666 6.267268072942857 0.7527742684295036 0.8821102705238808 -0.596424970971076
Ni 7.307369037268449 8.36648385525292 10.078834410609023 0.3262634780854833 0.662683070768362 -0.13294917336693232
Ni 0.42602531653298537 2.2449177901791195 3.7157381421583047 -2.187807729987084 1.8654811250621617 0.1361723082899203
Ni 4.085274685136894 0.794562589940607 3.551287581617296 -2.0765550677569786 0.7374782615023816 0.7115309455090005
Ni 4.936299241215099 5.042881832827166 10.548062190295362 -0.6247726688758337 -1.0645215551766827 1.6900925515840957
Ni 6.406362514768177 5.404874398961471 7.875011465986765 0.3121422081927528 0.7407972985732856 -0.40763709336796894
Ni 8.675684298169834 6.644107326014555 7.226964350355968 -1.9457203696298881 2.5161422316689825 -1.6817318383242263
P 8.769094279803825 9.291635540744581 7.702956843012099 -1.3819514941309363 0.4995735717679654 0.739838534204442
P 3.395242532832823 7.6282445723975085 2.9566556305460097 0.017164427594428502 -0.5396372725580707 -0.39571488800908616
P 7.063532471653263 2.8908378759460898 10.821275987145862 0.549201519207738 0.6075951286552825 0.6767837718358022
P 3.1123780659352303 7.618686341718682 7.837777812842425 0.49704643447073754 1.838593299532382 -1.0010315050428373
P 1.6761568451047704 1.244159945381725 11.037801341406505 -0.5800069346243688 0.5129515357367682 0.36334752742197424
P 0.8688496394611666 3.5090538830433835 1.6695187740695037 -0.32036459610254503 0.3970837433321549 -0.12056391232870203
P 7.23544196481975 1.6199444652614943 -0.4427984399050664 -0.02213925510120058 -0.8237562560650201 0.231720158190259
P 1.5247873795672517 5.695882774203403 5.294447254023172 0.246440238009253 1.1328671336306169 0.7985735861518053
