# total energy = -340874.2540225331 ev
CRYSTAL
PRIMVEC
9.22755455153566 0.00000000000000 0.00000000000000
0.00000000000000 9.22755455153566 0.00000000000000
0.00000000000000 0.00000000000000 13.50545882168065
PRIMCOORD
 96 1
Ni 2.813333744075454 5.611811125311396 4.811063318571767 2.5596147010303207 -0.17577552450383924 0.850853112281812
Ni 3.3954171131929662 3.998520851595203 6.378182600298036 0.703236566710692 -1.2236301605478022 -0.2531328195380802
Ni 3.2132836413132964 6.742537205825684 11.031772163792809 -0.08492148053474408 -0.31066099566153593 0.0565357303031994
Ni 5.465415972237581 4.857818414765256 7.426300844136451 -0.03466644103393385 1.3067320713753046 -0.9188197101297725
Ni 4.416538300658986 2.251606360314439 12.292790391920521 1.1605288612119433 -0.7297850066231818 0.5120017702289892
Ni -0.2294468351239612 2.129368945075307 5.532362803316424 -0.2646012251889959 1.4621344315394302 -3.094475635245671
Ni 1.3884793620025242 0.8781697577535115 9.326167588760445 1.8468755941458324 -0.29574525489196807 0.8396968385546765
Ni 5.1292653872186085 7.376903899072805 7.617078689126713 1.6104870839456262 0.9497480242775127 -1.499245991679747
Ni 6.785371514087181 2.3014628375951087 12.98295979860594 0.6121914897767133 0.7087523543225986 1.2238854710917182
Ni 6.249675061736266 4.959164646483486 0.2479268586386747 -0.0619810696884868 0.5533985880082212 2.1256243144798033
Ni 7.0106530310833435 4.866363130286615 2.9182325842987837 -0.6087960909419192 0.40463918708190955 -0.5519356303094494
Ni 8.487929150604263 7.628853048743618 9.681104552105479 0.6866771196901141 1.2528952280605068 -0.10896720863003816
Ni 4.063593566343173 4.1790025912088655 9.225862225196437 1.080867600634874 0.237674576001481 -0.29291318475981165
Ni 7.362951836580046 8.082341217531052 12.026624348941114 -0.5657990185551031 -0.13802941610331712 0.7154073977452711
Ni 1.2159610019730223 5.07043049935232 11.219322210198438 -1.0269597948728248 -0.5305569075233572 -0.5836417031634787
Ni 3.359789525041816 9.14919416539 11.903873881668517 0.6139773780325426 -0.3204553560441384 0.21627939815515654
Ni 0.0976081493664992 1.5004834192360552 1.2619059188762578 -0.5492439424098993 -0.9136469076795812 0.20416667405202257
Ni 8.063858425749972 3.37988713887067 11.168096363821256 -1.1125788156952259 0.22243281935106207 0.3670406600028453
Ni 7.5942497191484835 2.514351748818934 3.2590292430380643 1.0591584910925567 0.19123788180549645 0.19051951558223315
Ni 7.414460046126724 6.387774643261808 7.614134176467032 0.42494935939417144 0.33713538780298064 0.011825017659386088
Ni 1.2956132529237423 8.918579121858908 -0.05428108969156747 1.2108898301629982 1.2412339896724944 0.7489029583995555
Ni 6.699140016736106 1.0132685385365632 11.08484813485901 -0.1468354444307213 0.43055667827861976 0.3310781258653072
Ni 8.802376527301167 8.734055713348534 3.030206190602271 -0.6476878829111103 -0.39953914685118286 -0.4823970599886789
Ni 4.033419462936216 5.9060040197519506 2.556475535379411 0.3216887142306073 -1.1113763107466925 0.37436007648239394
P 2.142795036958219 4.45505411338701 2.489178057227338 0.34649111798626775 -1.0268767482407155 -1.6135891199097179
P 2.92963784173334 7.79048289439385 4.316560515281811 -0.8430279598104385 0.0017210964561647781 1.019112016693632
P 9.116823903998073 2.52732569052847 12.820353677683395 -0.1767836540533794 0.08142683711792428 0.026949274895334233
P 8.551654642386662 0.8941546505155519 9.41287245966038 -1.8949724496530589 0.20702085567136602 0.26461048116037655
P 1.2331611636704438 4.590542296972438 5.838545059395099 0.19790063853765272 -0.6236349557269646 1.1147747949052802
P 5.652504640915274 0.35822197276793394 3.8717988448405416 0.6669179347853159 0.09833569705812098 0.529832627762823
P 7.095777221887374 3.379711815334055 6.450922490128832 -0.7638485239657942 0.7224589052754139 -0.5273545985359757
P 8.474032453438857 6.650012516265574 3.4763722948473754 0.05266339183198672 -1.286356850153062 0.6445969026906124
Ni 5.834776526113325 2.445624922465718 4.837641443967197 -0.743387685008281 0.5339962722222094 0.4919402235924238
Ni 4.8227167972239515 1.304702394164064 2.100058540775044 -1.5211253082513416 0.7280644243876494 -1.2647097041969315
Ni 0.48956790711196124 8.801389178963387 7.4175217487293015 -1.3553716867598786 -0.22796531913351709 0.49457071923673535
Ni 3.8230865843251514 8.323503355922742 9.29609129743181 -0.027478150815610742 0.6767830005048538 1.7135710943220102
Ni 9.444032988649663 3.0648676537911257 9.338673693453853 0.2938567796200036 -1.259427886972702 0.773663453173687
Ni 4.144676088250492 3.3162631501884166 3.098260328228158 0.32046692600836424 1.291197723185131 0.5409583053623392
Ni 2.403565728787152 1.9234745202069778 2.012975340138201 -1.1162593498706066 1.0613177035274044 0.9187783153688758
Ni 3.447635844440664 1.0264454864463903 4.071409305054394 0.4052220561685731 -0.18098457950860442 0.3931095891757552
Ni 8.12061711384055 7.593317736138054 5.677168048739775 -0.9172379674649493 -0.16209417036200469 -1.1956861258393665
Ni 0.9522098100216287 6.909472895347171 5.577592584741359 0.4169501432387787 -0.8511084228257279 0.04757774977896322
Ni 0.4212055691638138 7.241424943041935 12.255514762525186 -0.8893857211393715 -1.8829689974342796 -0.7838082549171728
Ni 1.464422136020646 6.297630662777842 3.262999859764674 -1.4539907193863735 2.5199304950668218 -1.8314492322884328
Ni 5.580981865530772 -0.006976031246379092 13.520044997917939 -0.836336920943508 -0.15316061531780073 -0.4685858651371994
Ni 3.481224143034341 7.393818006578906 0.7350660733907856 -1.2629011902332832 -0.3675129716535735 -2.2662605720783486
Ni 7.069810883359186 3.671505545589345 8.707509884394058 -1.9595454484384383 -1.0319096826789325 1.0404951103550986
Ni -0.08978133758980775 0.40638796205344935 11.439380008558919 -0.5502433302086911 1.2940220800078035 0.6479239101813165
Ni 5.152186632742424 6.954632547357461 5.162921046960564 -1.381221043722815 0.14442143567259 0.5334355146227329
Ni 3.424207083416118 4.182056911767796 11.574772225576938 -0.9983742699256483 0.13403675000415627 0.5882295796444773
Ni 2.5172584285049253 7.255819928153511 7.316204122430204 -0.13579846989026934 -0.6155611775798947 0.246098281288802
Ni 2.9626171217261428 0.3565517853928088 7.56014006372224 -0.03500788353375261 0.6122513964803714 -0.5132161022520646
Ni 7.929191494520267 6.713396588529301 1.042697055535177 -0.9922403891137686 1.2970505824214822 1.9708374764124896
Ni 8.562321695456522 5.03324345448075 13.300162523094073 0.05615366437343232 -1.3204324516805324 -3.1503477638229422
Ni 1.8843496888780793 8.651469100048146 2.34774825126156 -0.25292841683675793 0.40962095656721714 0.21391089792298
Ni 1.6018296509542849 0.0925615997783448 5.385923357980727 0.006313086702221385 0.35030432108477094 -0.41145569578311075
P 2.548290694485842 5.707279404775733 12.895740952917084 0.3388464569568164 0.39834178410897203 0.14512077573245974
P 7.2091746398592695 8.56175881462844 7.387607862360899 -0.336310320798524 0.3856541613389745 -0.08912729108597553
P 3.847622651896741 6.237688468364511 8.70845478598087 -0.7460094389018442 -1.251640015497167 0.8842378583898448
P 4.962708027434028 4.859913069650082 4.495670117532594 0.5337227068458485 -0.2752293943268034 0.26718878341051405
P 0.4750446589920194 1.3901495493776495 3.540429055838432 0.5783799405439071 0.9908213972790548 0.14261857813589632
P 8.353243764265441 8.746900469294248 0.49088929292476746 -0.010304467249801608 0.910429172073232 -0.1722546558347743
P 0.5645879256742127 6.300675755782214 8.137485083573859 -0.5302604593288609 1.2196477788612865 -0.07212767120418546
P 5.6730820875811805 7.033306677524958 1.4038386265654845 -0.6682654499521459 -0.44695928800635926 -1.3418908786646244
Ni 1.537089128170428 3.7344190125705787 13.453016964358978 1.097629136363929 0.8131897934030834 0.5293605732224108
Ni 1.8865550744176092 4.349610847444716 8.18360532401371 0.6355448197906731 1.7218983832407828 -0.16848310460748403
Ni 1.060162970803889 6.1537454045439945 0.9040309021597311 1.090767119136773 0.28698319242862186 0.35876119360287245
Ni 7.8860157667400985 1.7427528641747896 7.51388325547492 -0.07567193691201807 -1.6757116002720753 0.8857023587505134
Ni 8.936858907439698 4.351834688093363 7.5075227021176065 -0.33508596147311975 0.279419521148751 -3.3813498129002535
Ni 4.0733840017299565 1.58600439488611 9.735517595827238 -1.3990675849859324 -0.4713148340325883 0.06822627926725025
Ni 6.153985320962521 0.4395425655828674 9.001915012589462 -0.06958613572925434 -0.8746615275553195 -1.508085444348248
Ni 9.250531169553673 4.625828465604917 4.05532475470312 -1.4572184822950516 -0.21210649772438955 0.146812818722902
Ni 3.955132890060184 3.9136458047642577 0.763274707676739 -0.15714993898285196 0.13227734411088832 -0.6857939457542125
Ni 7.072726790599735 5.355432749452405 5.401899945943665 -0.2640587224219646 -0.8813908758593532 -0.3293793980066457
Ni 6.477900168636655 7.546810861162194 3.3622108353580193 0.7175254725295385 0.5635989255799907 -0.2775935236836058
Ni 9.142753332308025 3.848287035824968 1.629109070496177 0.07962243691933384 0.16174809987649563 1.565620048229607
Ni 5.196377391524051 6.928241741319571 12.607913225611123 0.21802980518735995 -0.08590055661856173 -0.0445217365614588
Ni 1.8922577031348873 3.1561743061494867 4.222779032790806 0.19004051906328562 -1.440841326488609 0.634512778981733
Ni 5.2166226462258445 2.479148628177484 7.461928432287601 -0.42526354820048046 0.3619305924697896 0.16584438143305633
Ni 6.044371200359694 6.133767748924403 9.717151071233596 -0.7055654719541848 0.39335127287291616 0.24141321710830685
Ni 5.372928192895706 0.4326864925457514 6.5385196655545945 -0.5368424834217528 -1.503112930834321 -0.6659134047802016
Ni 1.1111082995224857 2.2340370964346694 7.1606478531905084 2.6204284898835835 -0.5403528105678566 1.2622890105705806
Ni 4.132864818415353 8.259473354839905 2.6592381967224012 2.214699155061289 1.062794545183247 1.0996993886293964
Ni 2.0783497959202406 2.046145630510369 11.87336481803108 -1.0916865456272489 -0.7539212375497533 -0.8190868756138088
Ni 6.935227000120509 0.8900723803787819 1.7715649805288822 2.1214730113155915 -0.5867352544871379 -0.69615446305293
Ni 5.580806541994155 4.766585582843365 11.708422280294274 1.13659266211132 -1.1459486494049231 -1.8370143850810363
Ni 7.430608266604453 0.5140319997579933 5.321974559378007 -1.0218528126635626 -0.05044452980379699 -0.9883194567928075
Ni 8.31746853524135 5.271618871395711 9.545199283053998 1.9478883238154838 0.35156647562664617 1.0392938909581455
P 6.1529518348519465 3.1242192847126997 1.3754232950574161 -0.3134259600011827 -0.29712825128242376 1.5418499423932026
P 5.307246459546862 8.454451582665289 11.052327464327776 -0.004383473779676322 0.6186501009178635 -0.3259019809810065
P 3.3707149496393196 1.783123415369113 6.074796293250648 0.09029637169341223 0.5941225480901446 0.35148677142864626
P 7.742490383134039 6.0319601394782385 11.375296487659643 -0.17802318288743532 -0.6387653836105 1.0905958836662313
P 2.350267373656086 3.1644975603614363 9.912385825075711 -1.296519906728993 -1.1547446504299983 0.817094013553496
P 1.5615790579692244 8.458816215971556 10.867032632256294 1.5264012119383001 -0.5887355727466183 -0.3562083452740317
P 5.54158943511967 2.9519131584380482 10.281152124437876 2.1145045504175584 0.2612960720751629 0.9980798786136811
P 3.223157124691108 1.0470875259942078 0.3785595030153143 0.9276190535889574 -0.9554119074315096 -1.6477629375779492
