# total energy = -340865.2793069023 ev
CRYSTAL
PRIMVEC
9.30991470213593 0.00000000000000 0.00000000000000
0.00000000000000 9.30991470213593 0.00000000000000
0.00000000000000 0.00000000000000 13.62600122717979
PRIMCOORD
 96 1
Ni 7.014406227669561 2.6293991920735116 5.837120040743331 -2.5154693739716745 -0.6675933635857857 1.2472542277246454
Ni 3.64082831867786 3.7408447316667273 2.740216037037468 -1.6810407257944726 -0.20605900597872898 0.4414890089204074
Ni 8.580706266880862 1.6133523478071985 8.601045637397176 0.34577737974869477 0.013290803571635175 1.5973022098242362
Ni 5.820437604698022 3.4561475419432277 2.262120266509451 0.624159203661551 -0.23937921739741352 1.106834457012281
Ni 6.759333186333902 5.278963659259551 0.7699811453458761 -0.8859597261769581 0.9555206650952317 -0.36654906507840745
Ni 1.4088973123749626 6.4907980084272765 3.786093709796653 -0.5806813349835741 0.0026747186186857163 0.6152994392780758
Ni 7.923873169125062 3.3204182963912694 1.3194141368109866 1.1667797272176614 -0.27394538540805724 -0.4719357554460389
Ni 3.075846838770722 4.64274271251905 12.301608230394981 -0.4944226236946453 0.7897927546353818 2.0194840337755995
Ni 6.123242578398376 6.42551688696419 8.249534914260673 1.113670763207824 -1.5440662333182311 -2.187136414951672
Ni 1.753987918374994 1.2502563668913644 9.525733358299341 -0.17431436657728044 0.7592992140322149 0.15511285394816512
Ni 7.953273879561517 5.522715844391684 9.40638304557539 -0.5838394209965816 -1.3960768777887247 0.6738799679254459
Ni 4.674433661957205 6.792914048444192 12.474468208509865 1.8822120646635971 -0.956380956212998 -0.07559197560370207
Ni 4.193194864246368 8.636789192678584 1.461361474351707 0.29779262433930004 -0.3779981874556135 0.08117204079464085
Ni 7.949186827034093 9.208669319334746 12.446875483496703 0.40463481620653546 -0.10818662171027175 -0.9314749369999378
Ni 0.8279446739010922 8.488519492105123 12.641304671851985 0.9927708076959418 0.3251630459324529 1.4565127144772787
Ni 1.8598881974170087 8.488137785604838 10.484431128376746 1.201811264900498 0.0051666318026040055 -0.27800901395446964
Ni 4.431910385557691 1.4224525480923407 2.4767435907126485 -1.2813876790732448 1.2262159189971076 1.4923721473780491
Ni 0.829608355647449 6.337026148300951 12.564331228591195 1.585830975959843 -2.993860912345386 1.428117451164037
Ni 6.336216185727178 1.4009652651007827 8.228565262523157 -1.5378030260173388 0.0009705914433854252 -0.5850406403935343
Ni 6.980760196156783 1.067539982145995 10.604285107482776 2.006880486078976 0.19427821129371703 -1.001434911128843
Ni 7.580616616309318 2.901695575495124 12.286688161191224 -0.36730316963561255 -0.1661385156347074 0.05788195991844871
Ni 7.2219800845065505 3.782190062587658 7.901131840631354 0.8628287965864495 0.10610325681868178 0.49781905097070395
Ni 8.667372262274453 5.96726426850212 6.967764486309333 -3.0803070570547724 -0.21349926430685812 -2.1574558571681037
Ni 2.792844053511894 6.932451049084343 0.24687566149420861 0.18182481602171266 1.3050513412387716 -0.9379309770379265
P 1.8195669571065942 2.9752532110741092 10.9958964259527 -0.416082910142477 0.7664710491903057 1.1681835495437236
P -0.06139609408337353 8.462796197951883 4.774468694775354 1.1875244159641807 -0.04824237994615562 0.533083530599953
P 3.9948098931601 5.019570817530441 0.9830310939747351 0.9751888329481205 -1.0623520583291897 -2.161587105727658
P 3.4005394217921987 5.438693864756153 7.894673552844853 -1.4710296771465312 -2.885915460111643 -0.7232456628427673
P 1.0236344246987736 7.779364674066587 1.386459487098553 1.0616835715072555 -0.04730675550576369 -0.23510861504651764
P 7.061616804814356 6.842582443054227 12.503096196031114 -1.2991182635837886 -0.26432380315789317 -2.4305406943480783
P 6.172231349239613 5.052164828688779 5.980410798966756 0.6374885737806053 -0.645193655734347 -0.18078043391759835
P 3.693410716570546 7.410133459402297 4.818794129372887 -1.3986045293065847 -1.9412831597941407 -0.7448966654536398
Ni 3.4146904920466046 6.324606722169781 2.4290526219723736 2.7819004532805574 2.6193262579583405 3.709669659294134
Ni 2.438890408773578 0.8133262459317058 5.766183146135803 -0.8487082980246673 0.23181734588975558 0.8409258258657711
Ni 2.3411363050424874 8.809813956282614 3.804720056019014 -0.5416136795581511 -0.29732468356394604 -0.7088551984490502
Ni 3.5479619201333246 8.796873174931545 12.685016583074672 -0.791716711130972 -0.36947035249026045 0.7877515558356369
Ni 1.2047774338698047 7.821045161914595 7.054643678748206 0.5604171854178993 -0.07891384088808344 -1.0882127281460354
Ni 4.5604709968360355 2.86525656959003 5.102664598676261 1.0615835555942814 -0.9977651755867397 -1.537354368515694
Ni 8.980725369263123 6.9276657529588395 10.823950681455571 0.3717504067736888 1.1389045980739483 0.1775040771591717
Ni 3.06278502852932 3.4441843016294706 9.211122481842663 1.4837630655527996 -2.171518248798441 -1.6410143060002063
Ni 5.9552079290419515 5.663695881801199 3.2328501702689585 -0.22093643731119367 0.7127249658171017 0.1356028089396955
Ni 8.642589269499961 5.838936405089801 2.502892347964983 -0.07915552458524432 -0.4403947474149641 -0.07653711312579077
Ni 0.5732440291510759 3.779015381695058 8.582854995180016 -0.524516100645916 0.4281100165103401 0.35080234376711195
Ni 4.914741178672149 8.730111777040532 10.792760605425103 -0.4267478460554909 -1.699452652642757 -0.12156304301717775
Ni 3.4812563817301565 7.225173385228433 6.913642228535016 0.7785606333649882 1.0530621483868314 0.022211760210348843
Ni 8.886676611559174 8.036020400891225 8.61668815597708 -1.1405375056916809 0.6434499335703628 0.0037262998116516476
Ni 5.791120683493336 7.246846866512811 5.955230272837091 0.35868200362550484 -1.1852489896664424 -0.5374603195114098
Ni 0.6710651642675819 1.3305636905851155 12.171602720364344 -0.1672487179797507 2.0126492702419534 -0.8031375513734039
Ni 3.2727887730876257 1.482445638039307 11.70277310787857 -1.1910159740572068 1.2502907005581243 -0.16012444823014357
Ni 4.364748661337111 6.091616798362708 9.59419009164649 -0.7616052364575722 1.096955507335672 2.3423780811682176
Ni 5.536112811560165 0.9759490419072837 12.428098316657156 -0.03643561711921467 1.1466065947038964 2.0004115905251805
Ni 3.0252474526965814 3.3180349582431585 6.450099716573898 -4.441136167384797 1.8412495062083063 0.7217467096997376
Ni 9.229728346252815 4.421259843208322 11.493449918080527 0.9669672163692766 -0.3165503645627774 -0.01533637324675423
Ni 3.668785992344952 5.095055605440126 4.692182083228914 0.0848515465287571 1.42437623895405 0.7047568600099604
Ni 6.416048703774235 8.539295766557442 0.3105294098780383 -1.9425764246842672 -0.28792910128165894 -0.3164179527499712
Ni -0.09190933931943532 1.2131656669613966 1.328479200696983 -0.2370174020334563 0.21392298210783803 -0.6089819817004802
P 6.248544719552352 2.165923711497809 4.01159008330914 0.49176847390124984 -1.5074928050695715 -2.2821859850593533
P 7.0478846807187985 8.748396449395566 7.379678866628473 0.10977504924331417 0.12259431249516949 -0.050310575329094
P 4.96235208214651 1.4332054995027603 10.316599435159498 -0.39390380294227645 1.2456735135010868 -1.8318544381466515
P 7.270382330725401 1.5007675500529056 0.20714746274642937 0.12273418050714348 -0.5115567122717706 0.4247300442945136
P 5.7117629710929725 4.402621394096927 9.501029499799298 0.5703771248440886 -0.03213107620658982 0.4838834147262183
P 9.469765875443166 4.5300089561305 0.24194047574298472 -0.41180433737178107 -0.17548730383945907 -0.1516791456762678
P 1.1825732874508856 1.967454951179772 7.6262137852468195 0.7414452165699296 -0.13347547818404754 -2.75607243647386
P 2.798616200589349 8.783457587933784 8.449129243258813 0.4542486225789209 0.4065585155918095 -0.5438011741277731
Ni 4.945156669804479 8.742158806586058 3.9956068218533747 1.404921472663548 0.8738218052628434 -1.6542578012736735
Ni 6.237465921129496 4.871152158322723 11.649072589237493 1.7300603502262848 1.9691552036140603 0.5390556890229877
Ni 8.673358537388651 1.2808766761457986 4.0161547344576505 0.5219439690433657 1.077454461188267 -0.4486089077946403
Ni 3.8199696962010643 1.6050479039473764 7.452550361498413 0.6988674911087189 -2.009293980616475 2.6832369405693726
Ni 5.088529355276745 0.07548106394382749 6.302270374962959 -0.7721367321165155 1.2836502498551763 -0.45792272899639846
Ni 2.1115165703354766 5.0460389048549645 10.24573050292885 -2.0305462051270324 3.045131280484588 -0.013954662407879194
Ni 9.05958965618751 0.501277457984247 6.565239154905697 0.43181394772448856 -0.12947895543014476 -0.39652915638026554
Ni 6.959244983421303 7.674916741708577 9.966684431392471 -0.8061781379719406 1.0218286442938467 1.366297332533447
Ni 7.679683418004798 3.923244579314301 3.776160030874646 0.4444167240901637 -0.013688039010053847 0.41283329285692777
Ni 8.352436469796803 7.132204577622844 0.4405833314648092 1.8524186354512486 0.1886940323377202 0.878789433680764
Ni 1.4533893944445704 5.132295264004351 6.372239969439281 1.0030570201132982 0.23902054850641416 -0.15177196250039024
Ni 1.8102849722094612 5.392256010526564 1.4570696037021797 -3.4249343823594236 -2.581041246335213 -0.5372093798428683
Ni 7.193380026729225 9.213091528789247 5.155043109438307 -0.9919729943849948 -0.1822179376950733 -0.15469839211856584
Ni 0.9783789296285994 3.3767525898843003 2.3596006587500944 -0.45405758961403736 -0.6856232245043031 1.470211295010294
Ni 4.905161276506502 3.7811566620625006 7.5784688190016265 0.6947848363989132 0.41082526128796343 -0.7293376346731182
Ni 9.066506922765816 2.977245532807295 6.025185902441452 3.2417183424171396 0.9606451308059907 0.5694942080185031
Ni 1.7633164528453322 2.860741260989118 0.09344733721813782 0.3492625100838178 0.00010670078119336463 -0.18904627347081635
Ni 8.766615952348113 8.598022708113225 2.633633341252264 -0.6261356106616314 -1.1648100050858003 0.02602059243347777
Ni 4.652257445282209 3.4542390094418116 11.292971147191485 -0.1737170993129137 -2.012794794680882 -1.6821301022039095
Ni 2.249349856596314 0.9110300761237344 1.8096286232272667 -1.244352223586502 0.009701800668796194 -0.1855071499693063
Ni 5.105287201630647 8.432743793490554 8.48052320641992 -1.0513423374822473 0.8770567672603735 0.21266159889691114
Ni 7.89133501745457 6.719375032694489 4.792155670610433 0.3024198386986663 -0.4445887308916537 -0.6458649707697587
Ni 5.243883900892051 3.3713342195632054 13.707211694969939 -0.6991551975524669 -0.2954140968047944 -1.1413818559698472
Ni 6.5019419762526205 0.8017856757426524 2.131283381101367 2.1325140996211016 -0.32284673909445044 0.9563580733948627
P 2.8851704770072493 6.88131168796102 11.242813982062794 0.38015328612540333 -1.2716534825046164 1.603970365873031
P 0.2906890507864833 4.652080556904029 4.552542673527713 0.018362304557271603 0.49491473283971543 -0.46087589808745144
P 3.834325584577573 1.3574507240684859 0.3579252543241915 -0.0033064386654136605 0.23452497462890579 -0.5484124476475394
P 2.34160180077454 1.8625415230897095 3.9001978856203667 0.4488809305091043 0.6518713248648386 -1.2691517991286851
P 8.003854645806376 3.2890718137948327 10.099400988566583 -0.22835458415213578 -0.9051879782789507 -0.5343086612563056
P 6.707635230332117 7.3828367896747205 2.0219216757958076 0.27890247230301646 -0.7854221363715118 1.656866185430798
P 0.5149593085407433 6.000575143087819 8.535722621318206 2.915923576437959 0.7200796064099598 2.137370656382455
P -0.0896358581640894 -0.08157626505932702 10.488437184646795 -1.8878764620382262 0.9498218149382417 0.10952230980255975
