# total energy = -340858.5785089316 ev
CRYSTAL
PRIMVEC
9.30460814352595 0.00000000000000 0.00000000000000
0.00000000000000 9.30460814352595 0.00000000000000
0.00000000000000 0.00000000000000 13.61823454225532
PRIMCOORD
 96 1
Ni 8.090375310439548 3.6264989020953893 0.580844809950804 -1.9861954469257985 0.996056420425749 -0.6121117855787136
Ni 8.801275279437334 3.6583950984976825 3.1379409166476497 -2.748727823183331 -1.1138612819520755 1.038560869446863
Ni 3.6592418178304156 6.003854173208321 5.588569045709361 -0.6486785289591538 1.0575726346626753 1.2977959452279388
Ni 5.266538421950876 1.713201652968448 11.079523448345077 1.2822088894229597 -0.7952172680850627 -2.102889077665817
Ni 9.167672135309418 2.481706450416233 8.976363810995243 -1.4802805063208377 -0.20174623753598803 0.4330272513062994
Ni 0.8033170580135786 5.112761164675292 2.2373665125096225 0.3894969321238324 3.1221836426839005 1.0795144290410892
Ni 3.143012858496801 8.81379928187534 7.0661752314184785 -0.7010683554147797 -0.20178943206909764 0.40741392161356926
Ni 3.78484472192451 1.4357847638977441 5.36965581022648 1.3180541812563429 -0.17656511028467012 -0.19585661152443046
Ni 4.632336337125816 8.466048860539487 0.3987526999121463 -1.5071703887331462 1.082201231844633 1.3323831962845054
Ni 2.5075360423686153 8.092664244020343 9.746937953273797 -1.2837083567866214 -3.289656560859315 -0.5375127700159
Ni 4.977769911056718 9.126722555272519 3.9337631128753334 1.426151585686918 1.702851393911661 0.8849148298522115
Ni 3.4547544466713727 4.3477642044631155 8.411125620130075 0.34624377786215205 -0.5967905818406108 -0.12721458487600026
Ni 2.5585066852775307 8.388820613707797 4.646555639150899 -0.8489610374654217 -0.19278182925384862 2.191556912616871
Ni 0.9910431082277288 4.418600185563074 8.91964385077099 1.9906799650597133 1.5688470398073369 -0.4768293360929143
Ni 5.818366811691484 2.6447697065277236 2.397817034680108 0.5180070958828046 0.06150695826554569 -0.5811382200153347
Ni 4.764350116167745 2.228127967174781 8.376425945321714 0.23229017176111608 0.05757831263510084 -0.5568968309694667
Ni 6.308766179072716 4.9642782293813035 2.002969478767391 -0.17254030539599316 -0.8355835877172512 0.2340485492131195
Ni 2.677494013046646 5.5208240554042805 10.905400735102965 0.05448810374555132 0.1374285492945246 -0.8388913119342456
Ni 2.9721151224055173 6.559813808924022 7.850803053698788 -0.026250191945780595 0.4652033218182117 0.5237028607160013
Ni 3.2458753005117806 3.649890686738144 5.52412812172355 -0.891126100869246 0.6210826216187563 0.5786036265189389
Ni 5.424130568527784 5.772355524874291 6.91378715212506 0.4205229481917016 -0.049104985056767046 1.877163446496096
Ni 0.8943133333798291 3.0135857604933296 1.1713357070691277 0.8997233556199536 -2.3925346474179503 0.8654065846159548
Ni 3.8307536580531316 7.489027796646138 11.701235957781922 -0.5826358876067836 0.3854872967438071 -1.1953855638798123
Ni 5.782544070691242 5.37913348398826 10.524130463259743 0.3925318622954143 1.2244120330191492 -0.9093935317198661
P 1.5689523143381234 5.341607999714499 6.817029463453005 0.1048778690520129 -0.26175964197514273 -0.00012058473826430845
P 4.403861686408689 6.619260949768319 9.476779588944465 -0.8055754713909353 0.33821756512356593 0.0413227700081869
P 5.904936885007393 3.787496535219333 13.673388574681052 -0.6080733538432818 -0.36468038730078484 0.28181373241254043
P 5.040957504337924 0.2617218762085719 7.091123676988335 0.6451381199060631 2.8009592696842214 0.4481515085422475
P 3.0228066270728724 3.0934099929715306 3.3826744394748602 -0.5582039798166644 -0.17222277415557435 -0.16349645002617005
P 7.476308397439039 5.864796805871018 11.776381833331573 -0.12856338559441083 0.0883472183868414 -0.34302578514548665
P 6.694079303114538 3.8442546443365995 8.171239798097965 0.0008559202423920743 -0.6830675479619849 0.19161274864641192
P 8.35024370872416 2.3905957283709425 10.889997886933667 0.3682629624457206 -2.562359867875626 0.005110838864004101
Ni 6.383054169759971 8.0191299265853 6.826943523332423 0.7794983146879092 -0.5819149502803591 0.025718487812026677
Ni 0.26982805074348376 8.561867714259094 4.136987848721718 0.6274748982983451 1.3194562038101922 0.5930087462006755
Ni 0.2833857951360688 5.7745607169826165 11.865308763867056 1.0701733541458214 2.112098254968911 -0.223974195696253
Ni 3.0378987013332344 5.49116096493447 3.6142251936139815 -2.6541914452666417 -1.0609932303084504 -1.7916200161066371
Ni 2.8064000529992037 4.363219158437505 1.25775969803862 1.2256453912056182 -0.2617534713275556 0.48279840919215555
Ni 4.516745191295684 3.844552391794264 11.45079684929722 -1.562869224957347 -0.936412226400555 0.8146452949026874
Ni 8.369048321597274 7.755539685079886 12.573974696471554 0.17948279815209733 0.06883923026090079 -1.0884081319862933
Ni 8.671475997111783 1.7935748573217176 4.873394539772482 0.15232603523164734 0.22166971593279244 0.40660993765503517
Ni 1.0335000347690544 1.8835411125766106 3.397300352871816 1.6712373665508056 0.1460653990339162 -0.2882139795119294
Ni 3.3229639782226905 0.6728925060269318 9.605526520099335 3.0188715754571107 0.747752646845196 -2.295777607700859
Ni 5.576167864097641 3.5194307772409004 6.295519208589068 0.1414798365457628 0.16171930352108924 0.09961559221180907
Ni 5.8294951229216885 7.076507998660237 12.660151184866864 2.342695869518953 -1.612127447762527 -0.34255295927412616
Ni 3.449022808111334 0.5312977720738462 12.181946436798595 -2.0188307164623165 -1.3672167590239226 0.41853548544802766
Ni 0.30809976458301486 0.8210758329416464 12.819334419420665 -0.6036978504834054 1.0843992679372163 0.24198837288548644
Ni 5.837562218102783 8.439633078279828 9.52885561928996 -0.9502347341059442 -0.33054282218712755 -0.42853630541448134
Ni 8.09366914168996 2.0827527709701634 6.9897629987129495 -1.148291695715803 0.03101547454490787 1.1028068239101265
Ni 6.371423409694958 7.709016644819831 2.5019151286443955 -2.169363407238967 -0.4251442490137969 -1.2475835860396063
Ni 2.948630291682242 0.5970543676382122 2.7199295389894513 -0.19014387741036928 0.6798297577509776 -0.8886251888242631
Ni 6.967048589536382 3.6388275077643035 11.656214681261462 -0.6781449138493869 0.9204569886228793 1.8740832649088754
Ni 0.8895391389883425 8.163183868446533 0.38699725809923574 0.2982168563609122 -0.20984958336941278 2.800690589403867
Ni 4.855153786147319 1.9191684568077603 13.333695013457437 1.233888605051017 0.2963723469530057 2.4624771380453594
Ni 8.418111519855527 8.842020158097089 8.343334106784736 -1.6327451240128785 0.6862243484234117 0.2936284656592814
Ni 0.19528883563882476 6.716000959685076 9.058549552997045 2.17503088993739 -1.6028786754707491 4.172000544660556
Ni 1.1133614856794636 2.77551805887458 6.965808285283048 0.9278378544679827 -1.0469802038588099 -0.10370724578267945
P 3.0314971309934506 2.164986896933835 10.906843879811833 1.4696381961156433 3.332525335198383 2.5574179504893184
P 1.9170563107799536 0.7357134977508883 5.7211569190681 -2.805926898102142 1.0676644716810386 1.02964119835973
P 0.32524164399723443 8.514358385545528 10.270491500065953 -2.4272699940166067 -1.6166621024080867 -1.1172286557624111
P 5.555837295503998 9.132482107656712 12.121031959264496 0.5358564653593997 0.25929549670536634 -0.5248984236859993
P 1.4470712534648331 7.200594251641853 2.822433753594429 0.020576795710087144 0.6915375331062089 0.2500539235024403
P 2.1632934582683694 2.563186903127692 8.986209947235881 0.30487421377642976 0.5366126267991339 -1.6633661913328452
P 8.046141203760287 6.769307059215046 7.783596800199919 -2.845897782068125 -0.7223748302020397 -2.632216226547131
P 0.6411861236288997 4.822141036778785 0.18774652035186476 0.8547087385824765 1.612027946070185 -1.2837950029631566
Ni 8.265115849656311 4.825769833919069 9.85870304427294 -1.7722377549252835 -0.5409608764655006 0.04688406614604829
Ni 7.287155020349711 7.959087290825675 4.480045025756138 0.44834125595555047 0.5479015694493918 0.7230255764121611
Ni 0.44087559102440466 3.6254288721694077 12.038859243713967 0.24995313625851792 -2.5314557220976015 -0.5972441244382617
Ni 2.747995028256732 2.848419662962085 13.02951807162915 -0.3805507786741381 1.724875463591236 -1.566286478169012
Ni 8.556889748951269 8.599728164422727 2.109450482853798 1.2253219464279286 -0.6398221070097884 -0.734789916036941
Ni 0.13650232196622014 6.51709635335724 5.329564115051976 0.7136906721644805 -0.22841783328990337 0.02549865849173673
Ni 7.451520921588482 0.16924709862285678 10.990282952518239 1.0479381968967048 0.24225422495236346 -0.49542561103786287
Ni 6.838012285071094 1.3546299724681052 9.006855011581683 0.41537559966280724 0.741840138015503 -0.05883378230875673
Ni 7.5019425926223295 1.015151347690489 3.091788199788066 -1.1204026826150189 0.15041159181775388 -0.12523200722833272
Ni 8.564240389312356 4.720758027444074 7.029187553490124 0.00514580586699759 -0.3516718908562589 0.9871035821078354
Ni 3.6525704138571236 7.609727172296823 3.0472293622877906 2.0005452878895675 -1.5915758488634202 -2.9262560687122185
Ni 7.231932171561025 5.817213040293034 5.425490902224987 -1.221066256475368 -1.041448218296987 -0.8760314113196526
Ni 1.1817038318214834 1.0096337151156465 10.52256449772459 -0.7329420641949248 2.59562762878982 2.2065158479195484
Ni 2.775666932603412 6.740713998671216 1.1394618417261593 -0.5088837934252978 0.007570870368722446 -1.118985233442202
Ni 0.9512938226295384 7.763997573799163 7.3429659203672815 0.9493351051098102 0.6779443678028066 -2.872417682735524
Ni 4.844890803465951 4.1835285677370715 3.8373599297700594 1.4521690927966022 0.09398359073701233 0.8900362102391768
Ni 7.264107506204879 1.3152063481517353 13.029204506337795 0.041738517389366826 3.640361459816614 -1.2606869561907836
Ni 1.4306393156449821 8.279147198598745 11.955148476452441 1.7535111250500577 -1.3051708975357714 -0.5548036958858639
Ni 6.239707378110691 1.4825962470074108 5.44493753305369 0.783502807861612 -1.1728938105351994 -0.390969660014617
Ni 6.995809133025146 8.817335032935105 0.4356864111137982 -0.7803136115003528 -0.8522157969572937 1.3763596018654556
Ni 7.6884348518087835 6.511290277932784 0.976389281006617 0.9077655091981398 0.03567354214220953 -2.8946047603555245
Ni 0.8533181607634746 4.13748006248767 5.2206183202925915 -0.2858161687037142 0.3083223202260303 -2.255363208439554
Ni 3.9394593939247744 5.558526327231029 12.983978528440192 0.3845961523881054 -0.9409013725201603 0.37293182867629965
Ni 1.1620059765753763 0.6462217775066479 8.332765932959262 1.184365815730541 -0.48200033877089243 -2.2831226379410103
P 7.993607386698636 6.13891986369131 2.9457737770102748 1.0365296979494472 -0.40361717357529847 2.423193509954388
P 5.268762223275306 7.024160273759624 4.641421356427799 0.21562273840776416 -0.03696192193632989 0.3743811595283166
P 5.058915397878305 6.436927850381114 1.1040503644018165 -0.8315173880676777 0.014115613465775688 -0.12711559740429076
P 2.004556844901064 1.2975275928529146 0.4846984340277654 0.7138500805604803 -2.8138816341728443 1.7016871984002304
P 5.008261111643158 0.7812856070680272 1.868231310487832 0.05920993470125287 -0.778888191907736 0.0654397176610486
P 6.982736158712071 3.525525295514967 4.491034698326368 -0.16806658589535572 -0.5216999713533597 -0.14144898330782738
P 8.516098347251253 1.6271991607437115 1.2403628723637754 -0.40102884402283195 -1.5900249594365325 0.7056006960674944
P 8.407336783731298 9.045642200707295 5.991410190399561 -0.1393630473130761 1.0218001050487564 0.6044023327495978
