# total energy = -381163.46456909936 ev
CRYSTAL
PRIMVEC
9.31622240773986 0.00000000000000 0.00000000000000

0.00000000000000 9.31622240773986 0.00000000000000

0.00000000000000 0.00000000000000 13.63523319192468

PRIMCOORD
 96 1
Ni 4.890569598847595 3.988554310402896 10.698108886389953 0.27458044788889485 0.699629308975408 -0.9815140038351998
Ni 7.2745257059924535 4.077468337307073 4.759282597449677 0.8795237407436272 -0.6797441400157068 1.4924024863953524
Ni 0.11899331427483023 1.1782692322617108 0.27021330519120784 0.021512934371111337 0.5979437216084476 -0.18957926315615092
Ni 4.0989794949057465 0.07350685824385333 9.477632508393814 1.1832453289728526 4.378104287834291 0.22192322670449524
Ni 2.8751911998345423 6.580485767150525 7.143771592517725 -0.459383372702325 -1.0881669625097647 -1.2474084939143226
Ni 6.07769855864345 6.1745593232833 4.152719192390455 -0.2222369012901721 3.9478880236142264 2.4221645544692416
Ni 3.5493130551139047 3.4655136343256534 12.462112313594334 -1.1727976512769673 -0.5488089117550097 0.8751256116759316
Ni 2.6422017929981467 7.692237171237904 3.206379180852221 1.11831391840679 -0.4821594900565761 -1.0515508539486278
Ni 2.548918457772715 3.3262174765017587 5.608076170376965 0.9579670697531952 -1.0265833853700128 -0.35211103527620646
Ni 1.9886967379638534 6.077633345086417 1.5291097845026043 1.7358275917273653 -1.1126204675664388 1.4754458039363558
Ni 3.3401545452620947 0.9800293351018219 1.7880839989501827 -0.45256763533207217 -2.169529500503186 -0.9903436863116881
Ni 5.033005323631539 6.023571306305514 12.285045395158788 0.5697909133233154 0.18037239984590225 -1.102514232370372
Ni 1.8807776172955817 0.12615376283712595 8.264710655168903 0.5500114167035431 0.5545643261815482 0.3972863462612642
Ni 6.136977681987046 8.972723996038658 5.654817521569718 -0.8952475792367872 -2.2473632209532135 0.34495385540613493
Ni 4.519765313554212 6.933449486483985 1.2070265476690676 -1.3878475479003969 -1.6909677551001974 -0.037773619204347846
Ni 6.853805100901022 7.064379676562705 13.369632557874917 0.2683370380823443 1.0323362286933897 -1.6221683769382964
Ni 1.031883429166014 2.4712863762353603 9.240924997184255 -1.153710295628213 -1.292883081307354 -1.6819377836874454
Ni 9.09996496203376 6.53479901233723 1.0520400080228745 -0.45075449338273343 0.3428506930202031 -0.8675639972785897
Ni 8.260377680115138 3.2414025874682686 2.41433630850011 -0.23539786415216232 -0.5648060585142144 -0.242807269242356
Ni 1.2559385786887982 3.3611719430718 11.130236274228814 2.0733465881220097 -0.14710155360791438 2.5242579187975815
Ni 5.679355519836997 7.85711567586386 8.188830023449023 -0.4334782228007889 -0.3478214067619171 -0.24261777893936923
Ni 4.787485597622248 9.15421332526333 3.8537942212818135 -0.30710413154821303 0.5548366060063283 -1.0149242038645294
Ni 0.21428150056792555 8.026894513489774 2.9840158573233384 0.40768954387245915 -0.4457015043398582 0.5964869345572631
Ni 3.5146101265495653 6.0239812200925815 4.97377837113357 -0.7502162778943402 -0.27048108100854057 -0.6203750540287704
P 3.8511120808432433 5.534469628553074 2.933320701329859 0.9283929556405043 0.14897305959901438 -1.2185085230505208
Ni 1.694853766192621 7.5298367817792276 11.703584551446307 -0.976179478996164 1.3587704280287825 0.19249437992041685
P 6.680309090524189 8.290683351690923 2.9153897680123326 -1.2036118084443466 -0.44794376340681563 2.641905428810437
Ni 0.2627379683106639 8.66378874392535 9.694023201720656 -0.3380733262362178 0.14538868468186572 0.5825448705548741
P 3.8605587303906908 1.9737348847358454 10.819107983354689 -3.205720841276608 0.013965461041156596 -0.29583421506134855
P 3.686261524884588 8.831564593728087 13.816309090287987 -0.2407665846632434 -0.7187377476700847 -1.6558598556534707
P 2.4548525598628785 5.648490874915209 11.031939879711981 0.9875596958086476 -1.7086101507723093 -1.6244132071084156
Ni 7.186235865991314 3.5577162877488133 7.12739553672433 0.5084734453607566 -0.8438196024737983 -2.01659102849852
Ni 1.7678556851805853 7.9920704740338 0.6318252738095751 -0.4159371285932321 2.1547729110193017 -0.8251333389182048
Ni 9.523974193644174 5.294800490231945 2.937288480464235 -2.2140802905303674 0.867402274889745 0.9813024020450261
Ni 1.398541995476543 6.445866352988187 9.395466221398133 0.1017678626681215 -0.46378253021128507 -0.4315002731388117
Ni 1.9176419094644657 0.7736712817134859 11.255530149735337 0.6335303604638057 0.4760852588380381 -0.5573943394311756
Ni 8.583892820336684 3.847571916318559 10.297136809612798 -0.7235146002334378 -0.45862643993164237 -0.4431000621612691
Ni 5.493627309405136 8.965159223422754 1.2194217816166792 1.3170540221266027 1.950553272242157 0.0015850850989327539
Ni 3.4733578936145593 7.513840827861115 9.00608538857259 -0.6440955375741617 -1.7944402591642514 1.164419454515601
Ni 7.014509937876824 6.222100006360837 6.9739853019138645 1.0978083422542706 0.23144839258611108 -0.8623873381736566
Ni 6.136176486857775 8.381311563522841 11.574949878575172 0.8921360301909991 -0.7975019503541814 0.699901331689872
Ni 8.358552032118094 3.2284716707307375 12.786944767667961 3.4453977924200987 -0.7060691510634807 -0.6804568498120153
Ni 7.491929072697805 5.375404446725547 11.823028770886912 -0.3897471004614256 0.6269997584341396 -0.9317266479994275
Ni 4.701077634552649 3.919260247943417 4.96891064491213 1.1440362628735588 -0.38660958327370837 -0.15979560413581512
Ni 5.355784482280849 6.224801710866517 9.852438111222332 0.161221023728432 0.6008956051479198 0.7345546600976832
Ni 8.966472810785861 8.308374858091911 13.005940276787177 -0.1458406846176198 0.9162072122075898 0.7043745369698773
Ni 8.92628262720826 1.0596644044623524 3.6093141856960873 0.8854339355804751 -0.04127186216559344 -0.280998949820729
Ni 1.8142691053436832 8.300754188141406 5.2616589605474395 -0.5644710437722988 -1.9300623513776567 -0.09969298241696378
Ni 1.4770498019226344 2.3573676083199926 2.2453679822259005 -2.3026864190055503 -1.682669519647147 1.7143779064940214
Ni 5.807630586522203 1.7376524920515677 10.713135021552748 1.891521257879665 0.1605679635254654 0.41295002094045014
Ni 2.103919777019895 1.0461931468236854 5.9208543642440405 -1.066971816489388 1.613141233739022 -0.5613556380717688
Ni 2.845034587817692 5.779467646106096 13.003690409069515 0.4381537738995873 -0.07091745294616819 1.7451558111068266
Ni 6.08695888374223 4.470109847984298 3.0138911194227007 -1.2290652155204447 -1.0225061299768454 -3.910594943590723
Ni 3.6303176091721423 8.831667072174854 6.689486501243312 1.9268384451237202 -0.6526899641113921 0.522582373958313
Ni 8.402869302233682 6.562561355188702 9.12953837852628 -1.8626282289943985 0.4837641155395346 1.5278585132101172
Ni 3.553281765870525 2.3945020709394442 3.4218298673355356 0.5092715157820198 0.20249648543845125 3.07216771577709
P 8.78206750393954 5.676290482656415 4.931577746754846 -1.356493716179464 0.7798050472950505 0.4718496234901357
Ni 5.709297858737879 2.404479745165594 2.347292113758292 -0.6845078799529373 -1.5992405644975296 1.3174571711022922
P 2.0629936118700574 4.116270403742099 7.620200412894039 -1.0935058582241748 0.04289577092226161 0.8236107316260912
Ni 6.871086693514941 0.9764705381322709 12.940845035778421 0.6753542384781273 -2.441602094368563 -1.109551598833128
P 8.708432081826107 7.3861433669667775 11.224250932915266 -0.57543834141708 -1.4359194637069594 -1.024310530175436
P 1.935827175654423 0.35926334894291206 3.4791665583017717 -0.9743426828977414 1.0140209753239697 0.36385454896537983
P 1.9882868241767846 2.2604882112352755 0.25193301353243003 0.8552566406661464 0.6024516367811302 -1.603556418264064
Ni 5.979766428423762 0.7887821945004279 7.680971995071461 0.7906404473476577 0.004586333819101779 0.5681783174205569
Ni 4.327376004082486 1.7840472797697993 6.214680566814894 1.1915206816077673 -0.09293123821309802 -0.8325738543566501
Ni 4.732193817480138 1.920716262867481 0.2170838202758862 0.055278975077962866 -0.25994881401864905 -0.701972612396604
Ni 6.740967014787926 4.513663187860349 9.048081987680023 -0.1943265480331492 1.3194793437386436 1.258294287588891
Ni 5.11054424294456 4.667883934022518 0.44054179994069087 0.3098654963434341 0.24562314142459632 0.5936430373505648
Ni 0.870849729538314 4.221832520134726 0.9707401297134989 -0.9156425979533713 -0.8988118995492779 -2.0033269643997627
Ni 7.43204439489604 4.782333726616589 0.5667412122677403 0.9548971725786201 -0.965773967392124 0.10171309817078612
Ni 4.0029665065073345 8.142993277454552 11.463713251098374 -1.4896359793938088 -0.29665156875632137 0.7574035396713988
Ni 2.9875914234932694 2.260739749240977 8.034929755338563 -0.39010165558736687 -0.38925293443382636 0.2944201083226413
Ni 0.7379081670362274 7.601273575398384 7.308212234689312 -0.5557172088390687 -0.9448014789055147 0.4553819648524158
Ni 3.56239303141037 5.030797378914828 8.789298755792329 -0.37670877922022866 -0.3625998506226723 1.6227157648013344
Ni 6.245381246221854 3.201054028109301 12.517185162509259 -2.1543000851479417 1.5090580926741624 -0.7162756592828373
Ni 7.9990110597466675 -0.211236959076697 1.6042944944067092 0.4546893096607654 0.5711358573869841 -1.30614328875137
Ni 9.26703277893156 4.945535311204536 7.9262970120318945 0.35302146290561787 -1.0724230694119465 -0.38610770393662536
Ni 7.890933563297029 8.517654478835356 7.932569624596289 0.23433085634022868 0.6213906397774781 -1.1903893962168015
Ni 5.197147846685258 4.834262350460248 7.191917830053431 -0.9754099478199909 0.40128338323579926 -0.8374229549188352
Ni 7.085359809482677 0.15166903283766656 9.982163713740416 1.460977949337484 -0.35773660899310006 -2.3240911099335717
Ni 8.61022978115585 8.330016442804652 5.514088528735569 0.05396308448001674 -1.3108712903546584 -0.9448834970963598
Ni 3.350635295499647 3.725613248443184 1.446289498692101 0.13248431791537182 -0.2770543633506841 -1.030161075418942
Ni 2.0830421225466904 4.276071567141863 3.263183915517511 1.131247852859639 0.7074686025141687 2.443986021219707
Ni 1.255025588890327 5.012807753395972 5.86728142714089 -0.5439104460121278 3.069603040373707 -0.36883529000942283
Ni 0.6057519620852749 5.301228683710977 12.15009711834455 -1.462043414487521 0.597282690985681 0.7891443224181055
Ni 8.79215697283489 0.9969755437081398 11.345059047320118 0.3971570197722515 0.8121322986728464 0.35107770891568574
Ni 0.18881746979076852 2.7419133217026106 6.8554820209390295 0.4618943120496368 -0.6060457818902918 0.7829816452508193
Ni 0.20820732354136193 3.3186340714409877 4.67363949624186 -0.1524327360128407 -0.47555561158681325 -1.5637002054990745
P 7.441565574222953 2.3909339577474595 8.858388792980518 0.16418473434244626 -0.79343626492524 1.1387858131078967
Ni 5.134095653256144 2.6833888123761187 8.510880653504044 0.11639898231773503 1.330885014472424 0.6953522788666089
P 4.976427904793623 7.031223240922307 6.119452004345372 0.8498521818211234 0.2867805894995126 0.9249425351980586
Ni 6.820359862365189 6.533299100525456 1.7606635614620159 -0.5677039488872997 0.15961716957642189 2.9856084425286067
P 7.0087245637456945 2.3393034530216688 0.7504133324085532 1.468030485308891 1.2334075516495404 1.2786597386191205
P 5.899320847711527 1.9000715139551112 4.698729014877195 -0.09405506740489608 0.24931987354989324 -0.569618135190877
P 9.47506402586893 0.5069552864237687 6.959273123447071 0.2427134239769691 -0.21860856050896543 0.010991723124813326
Ni 7.734439658861114 1.134464354379959 5.769121981093828 0.7379076357303163 2.8420784083220343 0.23518060593503368
