# total energy = -340872.44580226525 ev
CRYSTAL
PRIMVEC
9.24012883965458 0.00000000000000 0.00000000000000

0.00000000000000 9.24012883965458 0.00000000000000

0.00000000000000 0.00000000000000 13.52386256337170

PRIMCOORD
 96 1
Ni 3.1079820254949135 6.251723349707158 3.0135358963012555 -0.5205900261186325 -1.1799877412675033 1.2014438542587504
Ni 7.692878528788804 6.131001066052912 6.862562396778565 -0.40276408154638377 0.4422683102885932 0.4133930220151397
Ni 2.401260009190948 2.293076580409937 2.3007874679498888 0.4145484757758216 -1.0120255421604958 1.7280266076257078
Ni 7.757162105320193 6.946627241189557 1.1353392540175253 -0.6076182685837341 0.14605305773874203 1.0111215422889877
Ni 2.9924157337487487 7.013719816896673 8.597254293672275 -0.49547497621855957 0.9770760226685045 0.059837283872606624
Ni 5.8830144875062125 6.207721856039993 5.199694945585033 0.13807466751895575 -0.45089898938039763 -1.027525694678624
Ni 4.024547368380427 3.1601425529521054 9.038064805439424 0.4927480642056998 -0.34291754170239647 -0.856359386812022
Ni 9.169598963881564 0.7433369509544296 8.39775067129349 0.42737082435147045 0.20904457096961418 -0.4872253346152577
Ni 0.6701837747231021 1.5353582928860878 3.603514428441333 -1.7192486043227615 -0.5639691644352157 -0.1400716433443265
Ni 4.564540499398728 8.058926233875901 12.37030383453634 0.012671167709765275 0.8276481349202585 2.9650180199717644
Ni 0.8922185273324649 3.60240284093857 0.9039266946205089 0.034727376178856316 -1.7342530481513938 -1.467964665067962
Ni 3.3980481509043337 4.965940937532985 5.497639204866907 -0.17504893075045982 -0.4894043445444474 -0.3688126643016035
Ni 1.0439959600975832 9.245118537115864 10.492610779275891 -0.1960998378834881 0.466145631126823 0.3023020821738794
Ni 4.578705616952647 6.898208965923713 10.54473157417895 0.22643705541444875 -0.8741298234215655 -1.0232759182633344
Ni 4.038000996011546 3.08400389108368 11.661573014216573 -0.13919849671075382 1.3820165430409166 -0.5194499989769183
Ni 7.95470682037906 3.2546598311380435 5.180248170370435 2.262312643174194 2.699523593544538 3.1358680821495284
Ni 0.805082264085908 4.491626642505069 6.1813385160845415 0.4608134202806322 -0.05317144181665682 0.6915845842940606
Ni 6.692819381456314 9.035848098524104 0.6780637566213294 -0.25584019116691425 0.1316520518220636 0.7212486870173965
Ni 4.739936625562133 5.231095675515552 12.825017044197573 0.03508501662859119 -0.3709078562677354 -0.5923392309374766
Ni 6.987080525371591 1.9350215867932503 3.9236377690439332 -1.834860571962827 -3.0655910910008366 -2.6771904772649764
Ni 1.2881756055508624 3.078589175567309 8.490443024028092 -1.319425607682573 1.8842236957769871 0.06513195661264268
Ni 3.4484530538766953 7.329990947774401 0.9665609081490433 4.583729548709712 1.713472621070933 2.8171795881978254
Ni 5.50300494770028 9.147459615114968 5.483682914225394 0.02000858191144296 -1.5335211108125333 -0.4061332551289328
Ni 8.54344163117357 2.342326467273858 10.11326652874842 -0.07675719955639684 -0.16250734664002336 0.12566935187606745
P 5.576399291295051 3.055673655975841 0.10720767117259991 -1.3481034352332395 1.1272963244110585 0.11376540134962987
P 5.051061004660648 4.70556334617493 10.545245325343986 0.6177661556510136 0.18311988068405236 0.24701462245548428
P 5.020688701073085 0.7148403935269753 3.419630319900217 -0.2255708507594115 -0.41583479868741285 -0.41754149696587445
P 2.7013516744216353 7.996194998994258 10.99810588916728 -0.05905772539410474 -0.025048972548827826 -0.16493883889965144
P 5.616344368389371 7.285924773205163 7.100933697225717 0.8293399208003845 0.8061925361496438 -0.06835020643962422
P 8.191023116166074 4.28384386466098 7.645472047633954 1.2419415572624806 -1.5519713470979206 -0.3201008009181971
P 2.0323293838971814 4.510772189518586 11.979667222519867 -0.582384690827926 -0.6349141281852098 -0.1411471357966924
P 7.980135655022496 1.0714945836073448 5.744815424111925 0.050421389875345425 -1.5190195747622484 -0.39271441061986556
Ni 7.750804896659333 7.977603859712794 5.270600922475778 -0.20703782495223055 0.9613490988515506 -0.08004178384493957
Ni 3.246315994770666 3.1541272290593456 0.5045886532494832 1.2844262087892524 1.529886342273423 -1.4381308695359811
Ni 8.92569652229431 5.863249851858572 4.533537095009513 -0.8236004472134462 -0.016035970416940125 -0.42683732044550365
Ni 6.788214471884666 9.219070613838305 7.563328226014523 0.8082069954765113 -1.1730807297350248 -0.21720628084480012
Ni 6.610443632602307 4.009596839872767 9.143253508454467 0.7993415746660815 -0.3951039938979647 0.5356713459317872
Ni 8.88795059587046 4.3813087439556595 11.459783383955964 0.9837608908878477 -0.42917265344689964 -1.2174482001068065
Ni 6.852017561714944 5.701270392810816 11.855329276439756 -0.22310336305552544 -0.4346416469812708 -1.1366361137547458
Ni 7.31758145470531 2.1270961455625423 7.539498857678056 0.9367310431925545 2.433850475447602 0.5898015521172875
Ni 0.7764073721713103 -0.09905048540834671 5.233640407005669 0.25886252293300577 -0.1641608230830463 -0.8195589301542208
Ni 9.218811890230015 5.904858152149047 13.144626633635136 1.0799404608349144 0.3339999274977925 -0.7397179494661776
Ni 6.7653728733241385 7.382132994973857 9.086602278367657 -0.7046774129222767 -0.8144583757028618 0.28727244153426656
Ni 4.955702874747765 5.738720635110904 8.529716343753742 -0.10453411255934901 -0.9375630521755467 -1.22626091330243
Ni 5.1429633263770755 2.7583170688899417 2.249491816554697 -0.7723635034153409 0.22699986989645424 1.6712468796325024
Ni 2.4536145793543582 1.283472379957291 8.521710696102918 -0.21715537300220666 -1.8585445458433283 -0.9421966942928159
Ni 5.635563836433829 3.967665135071928 6.852419507320681 0.09484388185477859 0.7281855233465458 -1.1363311809198173
Ni 2.8524832221789134 4.9976900203218095 9.999692408786094 0.46395248013024615 -0.25391829155385304 0.30088951809706893
Ni 0.5641976485867893 7.3087386513790875 6.441429663447702 -0.1180015509181645 -1.901102988030829 0.5958145910805868
Ni 8.488065538870478 0.74981612931634 12.228547321528056 -0.6945652641889393 -0.14513980189585327 1.1839966053165802
Ni 2.9484419604681857 2.766032576494327 6.4654881869800835 0.9412127331129919 0.41110036932622107 2.8227681380291965
Ni -0.013193980009942374 7.68739913237036 8.942816633060065 -0.05879033066533101 -0.026108524161593743 -0.6567101410143786
Ni 5.446030313103107 7.586413763977154 2.7937187746200993 -0.35297981103440496 0.5506403085367937 -0.4541630048436501
Ni 0.6755966422136996 1.9017756031278867 6.39066069939796 -0.3176338274349433 0.7468481327530556 -0.0730787222635451
Ni 6.5941902459243265 3.293403691479586 11.653268910403327 0.3875230962269132 -0.23441827384771238 0.024194337858016397
Ni 7.165766137411836 2.077014647100544 1.2133989386775101 0.07136071113117387 0.1801227457289414 -0.25900110539339916
P 2.317442800233607 5.296756031248202 1.1193002383292712 0.8583579052992895 -1.389125386171556 0.7973803371746526
P 8.42186925566351 2.870362871537579 12.95630633922472 0.6805656074757376 -0.897364368469474 -0.15586078785778318
P 5.169205292360853 4.134218457909109 4.424953568648538 -0.01337539286564148 -0.02130801744915685 0.06395387714414145
P 1.6851038213132368 8.504078682197902 7.7605735608980835 0.4485909100725113 1.746132316087483 -0.07303115685506133
P 7.394348445336729 6.891482152108153 3.3563520693896165 0.3919952730656539 -0.5915648146652973 0.5073138778350167
P 1.9908966460551885 2.6907717268683164 4.7237636280053 0.07729738833058301 0.27547262068586104 -0.7935907882252333
P 5.493755578703886 8.913148427292208 10.625712063573964 1.5589356942308956 0.27271588387633033 -0.9701708109082389
P -0.11239323149305627 8.070550315991252 13.303978200032969 0.7286208111117516 1.265562282005214 0.510081927498457
Ni 0.9394623822192457 5.5696262768351525 8.556602346719588 -1.1774017257078817 -0.8617509901412386 -0.5208018850191225
Ni 6.964590051708029 4.549460609086923 3.396085547532871 0.4203267730204954 0.520413391331452 -1.1287471979249721
Ni 1.1414885597788649 6.44058234363055 10.887655856775062 -0.285541831996405 0.0574754685086494 -0.1609600567575615
Ni 4.8456714201932485 2.082438602745783 5.264974608008341 0.09492178628056555 1.2416175982641584 -1.4492526904807557
Ni 7.451711165346339 4.573891509812666 0.49808267851385724 -2.4355618017117537 -1.1663737500284945 -0.9023787909649298
Ni 3.0712709935042275 1.2205563424982966 10.664309929879398 0.962227644801762 -0.9480413259990511 -0.8082229363161112
Ni 7.84864862123758 9.145611589341462 10.225595079339405 -1.25400543040555 0.22757039768794357 -0.4616423439398307
Ni 1.4797604374901756 4.365332561143704 3.528943816441727 -0.01318975921739664 0.08525161018065318 0.03502459570430097
Ni 8.575772842081047 8.652549072841332 2.6799561560288754 0.2456542517728479 -0.13651812166511326 0.7296939895712723
Ni 5.434914438075471 1.1234056275851139 12.459467382056433 0.24141013178451323 0.0896746789490133 -0.372304736615262
Ni 4.540968930657665 9.24364011649706 8.338177712458767 0.16082635939317463 -0.4954520934004241 1.012437947107566
Ni 2.6216648030680787 6.521073106195582 12.761982733089074 -1.1638689813287697 -2.044942840168336 -2.8140017046904764
Ni 4.506771213718946 0.6780332641960666 1.2095596651330522 -0.8766687877933353 -0.3682151399269207 0.04524061700535434
Ni 6.084209053467754 1.618306929729881 9.947165972225747 -0.5520317895676815 0.03190507623871279 -0.7128164970896433
Ni 3.7786675392155225 7.228903937963651 5.984444306097948 -0.8903236595726085 0.5397522008693801 0.22808487543051686
Ni 3.247785175260603 8.40400808656258 3.8042894925522894 0.34265966005531956 1.0923151803501834 0.5056740282387484
Ni 4.879943058162907 5.155492941121443 1.65124983716839 -0.11968485215785839 -0.5043452821249959 0.9481932781958832
Ni 1.2939229657064644 7.110981413356266 1.3263530459928252 -3.0168638009984625 1.5843515632008391 1.3881324261306673
Ni 1.1577234661991103 1.959470967776728 12.102869556762155 0.10631177328506206 1.7551121509885903 0.16499643161046423
Ni 3.1352034451386497 0.2545812585194546 6.361097831099193 -0.6103845184749617 0.47399752307107396 -0.584937796267083
Ni 2.078345225657468 8.769390502371216 13.197666821360517 -0.9188978716658754 1.536883342416547 -0.38189418007591003
Ni 7.26739831482577 7.825363496491412 12.35400794326557 -0.5694188746958774 0.6196736570863715 -1.5523860660378361
Ni 9.045439352288597 5.1657310039066635 1.9184272393600579 -0.17333631893472726 1.1257567478380806 3.2100315528368197
Ni -0.007521464898167304 1.0502884878563694 1.145785219702265 1.449337536885078 -0.11409270278206156 -0.45566915707553135
P 5.106159893097713 1.9659113375973944 7.395375947666798 -0.5976380174425707 -1.1915103971951222 1.1419786090135817
P 5.674825143991952 6.836179980836001 0.5713873928586123 -0.2076919135964617 1.0238379614143915 -0.7826880252698003
P 1.7458207081017594 6.412316789424785 4.828343406527974 1.193451580081893 -0.2963463788110767 -0.4332779338645248
P 1.6399380714087628 9.05391255046012 2.5115298590702464 -0.4911426673917928 0.400365242296904 -0.35438003381604133
P 8.643308943973805 2.944385543895341 2.597325379618125 -0.37847589842298046 1.3000505455900706 0.12831501702903064
P 8.318010207192502 6.273317530870569 10.263219036062203 -0.7398503612789838 -0.3310308175671396 0.4931039048832218
P 2.8150976607808973 4.925441452706613 7.6747383077960745 0.18354436981598068 -0.9925826029445357 0.05943619177944603
P 3.120197475857785 1.429013649749715 12.736841266453418 0.9346466498596999 -1.2505151578641043 2.1841421082100383
