# total energy = -340874.55980814627 ev
CRYSTAL
PRIMVEC
9.21712161069198 0.00000000000000 0.00000000000000

0.00000000000000 9.21712161069198 0.00000000000000

0.00000000000000 0.00000000000000 13.49018915817550

PRIMCOORD
 96 1
Ni 8.298663291041835 3.3567928164040297 1.6012315859531046 -0.09648270300978223 -1.3859377324721935 1.145536244457853
Ni 9.117530828666233 2.611901898587532 8.03312446310367 -0.5032422788688042 0.5460246641416532 0.2888238451817865
Ni 6.841334941372411 0.7678175866565385 4.201182564375807 -0.8454334839281376 0.21762382799819294 -1.663090569073955
Ni 3.2132361439011596 8.900974551269448 11.206111279397412 0.5105092448438627 1.3740301824013306 0.5506451936328001
Ni 4.161512072019316 1.359156785057671 8.905656849159108 -1.1861069667913637 0.4295125532848215 1.0304418398841544
Ni 6.65372042652195 7.010800943339523 10.64803575196871 -1.1038761457149053 1.0686954840487142 1.402804169210229
Ni 1.68071451434227 8.640895024591215 0.14703244914497812 0.8358712941609991 -1.9029549536379033 -0.4532574623102452
Ni 4.207763589362456 5.706753329703661 6.019133570782088 -0.03566814282557083 0.8247515300987538 1.1891493531621133
Ni 2.335720060072219 7.536425749941204 5.650136237150458 0.4025388529094551 0.4756456001974582 1.6932385534122452
Ni 4.594421850132626 0.0073202381574176195 3.5728495257976274 -0.051799244059478534 0.8991065479715612 1.5733657536132968
Ni 3.7896841602736795 3.8335207916973486 10.663873532409267 -0.3471009836561248 1.1391789347812573 -0.05299969212548291
Ni 1.7354918693781967 2.989223214943872 9.625303913707492 0.3608527860245785 0.06374484645712893 -2.443531450180792
Ni 1.1123499138146948 1.0675454845988712 1.6435234277580593 -0.6874355951226935 -0.00450225874572773 0.8507952624606833
Ni 3.883781757036556 7.05854563441913 4.0584425288670785 -0.30884708238124875 -1.2319859887116655 -0.5943981703490344
Ni 1.8123995339280488 7.579220846598078 9.952859224166898 -0.8662797312495275 -0.03919852457633249 -1.4134205112734948
Ni 2.8629302116286666 1.3292380075973618 13.26505130974755 2.2029870088306835 0.12407732479859922 1.4118146002389556
Ni 5.035497998187351 2.0278589738270596 11.174786890858021 0.894395515649137 -1.6029753489496137 -0.7059817335559971
Ni 5.401777202591303 3.7006467633954947 6.889332181590161 -1.8882536428719867 0.0413227700081869 0.14273967709479288
Ni 7.110143082423693 1.0009333451331734 11.85490909357483 0.5190180536458223 -1.062554661258299 0.042647659467197514
Ni 9.095372867786818 6.286454990082184 3.518767141747685 -0.042647402356881386 -0.6417612330140302 0.8233042561292658
Ni 3.8156303582252415 7.432650175256786 13.402678607777155 0.042481309092662324 0.9195316485951325 0.8756981963499499
Ni 9.169552264274978 8.433187184151267 11.140548970108156 -0.37378363515363366 1.4160168112457614 0.1358871729493337
Ni 0.12441916244715844 5.476316066830835 1.1900751370708715 -1.3579307057363064 -0.14377377478626208 -0.955748979055954
Ni 1.9618735986458045 5.329644007149412 4.824131882093061 0.3698256789471502 -0.16657200362770025 -1.6967182844307294
P 8.062428458537916 7.825981632231905 5.099831665136663 -1.374265695450904 0.32242250707283826 -1.062760349511202
P 6.079825552896351 7.103709531386324 0.05772130374844133 1.1137291272495853 0.45747998503202497 0.211369619558365
P 2.173646189812799 1.1412824592391897 4.852394342760512 0.28489597088229 0.06060835771067627 -0.6726157565010417
P 0.9036816492800575 7.458107865751356 1.87868446556878 -0.5517499966612046 0.4995368049927591 -0.9534642967868354
P 4.72953563903918 3.3868590678136195 12.709067147262083 -0.04635801843924919 1.536810323086766 0.1764165005219478
P 3.326910907431041 3.1827735562528776 7.947502009863515 0.75312316712849 0.537710230738687 -0.088828271788318
P 1.6571924194320085 6.797894646187434 7.745756725535421 0.6060817773345497 0.41762222960513884 -0.38075029627945395
P 5.311560014118873 5.695849474578723 8.457782152042546 0.7305383398494386 0.147010793666321 -0.33182837376777047
Ni 4.702040964620171 6.228958584106397 1.6924930743288777 0.7570279014995349 -0.6189717459233404 0.9007952485278938
Ni 0.2255991956242375 5.286222146208094 8.642072051048912 0.24103629338486232 0.36564995030290576 -2.031307508773089
Ni 7.799298064533939 3.1231848636216704 12.59434624040449 0.8500501567645424 0.4314614494810763 0.018648725449438852
Ni 3.1187329937777615 5.418358804763544 8.418350383141453 0.4431525126657594 -1.201443597148434 0.15692265346339426
Ni 5.107658844994733 9.235556073699893 12.70178193416762 0.35544344208354917 -0.6092799725568733 -0.28290799391798377
Ni 0.44035536912761614 0.004262918846393414 5.702856330593919 -0.7643871700780835 0.7841543254026818 0.28545030072386324
Ni 0.2215372100337389 6.55412942514837 6.107791222240875 -0.6745245434879803 -1.1443908179995002 0.9215502216870581
Ni 3.4480515396432536 3.4171833986344504 5.304963320025114 0.41055992344171877 -0.545684250083099 0.06987667038647966
Ni 7.550325169660903 9.071177922982963 9.497228319030357 -0.7787388108140654 0.13952296992970808 -0.7298878507496332
Ni 1.44921728245899 8.53554332207386 3.661588287928518 -0.5139092716643472 0.8186227914931965 0.6204339322911637
Ni 6.944105849777355 5.964611530020854 6.071097860235487 0.5735041005088446 -0.22982962603576546 0.8892911045430363
Ni 7.631740006785645 5.663147126325741 12.721383987163566 -0.06509390428585564 0.3349376088207135 -0.518691523544339
Ni 2.904103094843454 8.726586606245094 7.864578329895196 -1.097239614234994 -0.09475260769255293 0.22244773174939753
Ni 1.6765299410314318 2.436527721527365 11.766493852420172 -0.5330819879380561 0.3791474705687083 0.3587555371759176
Ni 5.184114870574914 2.683647974912562 3.0323252417576874 -0.2959188043553549 -0.8666790235704752 -0.6924883270552527
Ni 5.695296447268921 4.482710333552543 4.659092863740917 -0.2057766988516198 0.8276571337813231 -1.8489633299127963
Ni 3.100658217869053 8.103260308244991 2.132839226334664 0.2768677012611748 0.40071028434114864 -1.468997991428483
Ni 8.904458623321203 1.6359193022482765 3.730536967778131 1.1603977349507175 -1.1406308367364355 -1.7243396456924236
Ni 6.398599711388279 4.313861878748044 0.7283434189950271 -0.8384791640974915 0.6438667093928073 0.6332598804112385
Ni 8.176536426793808 8.381737210095984 2.9012808121390963 0.20365425319197827 0.6648363696659388 -0.4115235729065687
Ni 6.399687331764223 -0.02135146271928723 6.245431424241043 0.6790460855074176 -0.39621908133901446 0.23383180521662308
Ni 8.186610740954041 8.453934925390687 0.2287993803236273 -1.5290569043935924 -1.1186088239393897 0.8095588815187155
Ni 5.870836532522029 8.626755959703933 1.5741028312707483 0.5659756533422834 0.23469826698197643 0.2297054417530754
Ni 4.042721805873763 1.0081503515260948 6.243367710663297 1.1942648200118076 -0.27754081606879943 -0.6166443833417444
P 7.110908103535586 5.353267490399803 2.875164097433678 -0.39435914531214017 -1.3978257421590314 -1.4594607413620089
P 4.644765769568304 7.9135258553736225 6.0934512240976995 -1.0851911677108923 -0.15836298545434663 -0.5556963829034623
P 0.19573203404617645 0.7379614856246737 13.068985615891124 -0.03812843144060531 3.054489067550404 -2.1161621406256397
P 4.158322947866122 0.9110129479836712 1.7032042916075671 -1.3525771547338772 0.041115796203703384 -0.06999931200727298
P 8.143465393667626 0.7388638418518345 7.514116628263776 -0.8937028604574866 0.3629037550163363 -0.17722356980427542
P 8.627852797201708 6.550350405198054 10.18162634456412 0.9885925079485361 0.9471537811877752 0.34229250652388793
P 3.81748299971308 4.569037896612696 3.327261158060582 0.15103379878278503 0.7002337753286263 0.4277593180391407
P 5.48907256344361 8.969688194512395 10.44328199907529 -0.6068376816639678 0.3811734998598016 0.035164206605958793
Ni 7.024626626084583 4.1185602842913305 8.350305902943367 1.900048835734702 0.36025834697368925 -0.36441324968232724
Ni 0.4990241930001856 6.847316853440106 12.65273209863688 1.121612386652404 -1.385142490264408 -0.0017270099934357354
Ni 1.2769308412118856 3.1343283639141886 0.5362890165590365 0.2692623781100911 0.6862477454621794 0.4406423446493959
Ni 7.367199393141672 6.656015489857631 8.356174444412552 -0.4437482372682293 0.4600554590686851 -0.41975058880205124
Ni 2.2082011795536185 5.626223336274602 2.0019035587536673 1.7057053184206883 -0.01356488316862825 1.6312058045502165
Ni 7.836258723072398 2.1809277160585303 5.893607432003143 -0.7635780439132269 -0.014204316524840053 1.1062631578898432
Ni 4.163567490187415 6.954843796709352 9.938533051706466 0.8674297856935707 -0.0409360760927295 0.5165377104261297
Ni 1.7547833053684698 5.247270589354346 10.452859510368885 0.1280386234391924 -0.2185702510718623 1.6702930003596654
Ni 1.5775472696986343 4.274255906244362 6.907125835283052 0.16966606917199167 0.9830114143163329 0.8301942983808799
Ni 1.9529329904706658 1.9326645395664082 6.844652183519043 -0.5002076058075385 -1.1419526408716525 1.0928728526258662
Ni 3.9558596497474676 3.8252069478066533 1.1583212306542012 -0.5317763817527551 -0.8224699331534286 0.8144704598877199
Ni 6.134160486084437 4.784736981679288 10.34984895679636 -1.0746648142582718 -0.3716123385339277 1.077610270039841
Ni 5.658354222974121 1.8630568355059476 0.5819266735882956 1.564088442076429 0.6773383587876914 -0.26576104982505194
Ni 8.95512514202093 1.716845631916026 10.534178489426594 1.2325261774858516 -0.6071744961780963 -0.49762750378518816
Ni 8.010775707802372 3.8199900568508505 4.177318514245651 -0.8183728802659196 1.3550749814550662 -0.4819697426432732
Ni 6.237355382093563 1.8285110628869583 8.00540212577546 0.8750739325023897 -0.8167088622999354 0.5211885789345798
Ni 8.594440730567815 4.401885392224924 10.53902208694828 1.3117853175284957 -0.1535943604211097 1.5734367160605482
Ni 0.36589485042363945 8.57264223743977 8.018028660970431 0.9362379056062198 -0.668303502278933 1.4651644766150056
Ni 5.221932721443566 8.570771161708272 8.159608260840757 0.7891219538206022 -0.7574202518419472 1.1501176931809483
Ni 6.152640815353666 6.810798616749489 3.996495174759564 0.7590529023493636 1.8348549155358722 -0.4563569271711754
Ni 5.0742467783608385 5.664778556889659 12.412228817013467 -0.7306386128727288 -1.2733635232171876 -0.7587891071650158
Ni 2.387547936122533 2.7159263355613614 3.1922376969479624 0.09786132852486372 -0.5628039404825211 -0.6522294795352057
Ni 2.6785048209314 5.142462697024963 13.27178349553221 -0.6963496097828717 -0.2765771666039495 -1.2993869438641428
Ni 0.7130190322404029 3.08592004006282 5.123816459562793 1.5902545589488355 0.37015323748989803 -0.10917726775831518
P 7.2161307663473195 2.8684051819957097 10.360127891061222 -2.3398206048536863 -1.431187862559245 -0.4283437297877011
P 2.775100257710217 6.718913129225823 11.837357850186068 -0.7075449642780588 0.5220509269348751 -2.2919479495421236
P 0.7517991506281124 4.126920213791176 2.9827749165115764 -0.7175828081300352 -0.1121764595959552 0.13599155973768193
P 0.6329167132642589 4.624912089146398 12.48535930503737 -1.0292462769141564 -0.8598877116802545 0.1932759952814478
P 8.547691488645851 4.342352002324697 6.528820130315265 -0.10424074968864629 0.030423606597179863 0.019823719594146506
P 7.409395376879594 1.3056237414687997 2.0347524592437463 -0.09253683098815675 -0.58102097771118 0.27133185904461016
P 1.76175144947198 0.7598512282588352 9.63805211491062 -0.028903056187595384 -0.7791375889143808 0.2695678251656519
P 5.653754879180931 2.4090238299865256 5.118488041432846 0.11825506168986731 -1.4400219159111072 0.7207601774167522
