# total energy = -340892.3138203102 ev
CRYSTAL
PRIMVEC
9.11465523406813 0.00000000000000 0.00000000000000
0.00000000000000 9.11465523406813 0.00000000000000
0.00000000000000 0.00000000000000 13.34021925853210
PRIMCOORD
 96 1
Ni 6.329936580358871 1.8450431794420348 11.701626680212819 0.5281506120747097 0.48671008554173595 -1.6335653059213284
Ni 4.566041175543477 0.32117948309122635 6.030993209923958 0.11930201489714293 0.044757763831664854 -0.18576811694017684
Ni 2.7549318571522106 1.7562117505404011 4.791046463559958 -0.06175147017618397 -1.0309043813428698 0.14764508481621025
Ni 3.5684512861678477 4.3355315472937015 4.88971078241635 -0.927916530224718 0.2333795481705529 0.02600953668988424
Ni 4.943205604842636 4.9439074332876825 2.804727952526548 0.4324274129387714 -0.9917943027152853 -0.26238210605049006
Ni 7.239396869277915 6.2571834031074 2.6416430741389667 -0.08843797832843478 -0.4529666705427038 0.03255068024251169
Ni 5.0847744283292124 4.3854342841330665 11.714433682136653 0.4477607008617321 0.1375434776058341 0.12798617293470216
Ni 5.779302034616466 7.7645559539306355 12.4867247916006 0.0869343971997148 0.7825281026531684 -0.1398862668063978
Ni 1.9732134598868092 6.234743122176164 0.4119167863806427 0.23926248931389113 0.9460386937467257 -0.844638755940984
Ni 2.716732337500379 1.8522528716502427 0.31702228888621564 0.39948181125068616 -0.5576421937759235 0.47703065347044304
Ni 0.615831673890711 9.293666957240061 4.575521328344687 -0.063633003469613 -0.3471290086805828 0.2784694985306559
Ni 8.610988402622427 2.48194793599441 1.1850172772201775 -0.4641368282269103 -0.19380872785646622 1.2987027733129246
Ni 7.104217419037803 0.7297274929356447 5.006357404379662 -0.7175136454549965 0.1195005040611942 -0.9477698175052193
Ni 0.9494827395969698 7.388321219454786 2.3216120375941802 0.2753972873632354 0.31825243485554866 -0.03391465046957385
Ni 7.572920329812346 3.77179012747367 3.991847069219814 0.7672104984594915 0.667376105368657 -0.9149288597157985
Ni 7.49492622586085 3.7896913101499274 12.716456939767745 0.31169046536731476 -0.07235624227522378 -0.023010859072876498
Ni 8.184550147687906 8.81986895424758 6.982590549511198 0.19477931929985165 1.5700539156312445 0.9420411425515584
Ni 6.975992450662246 0.8092674423972694 0.4361207530796257 -0.44715649161882987 -0.8184659542003583 0.27712352602572277
Ni 2.113168989415291 6.516276589846353 9.399345003219354 -0.7967532451136149 -0.1655121949046182 0.24951193495604126
Ni -0.23165898626172873 4.996398732184102 1.2193458028380948 0.2093572171140265 -0.37444980798272287 1.0473560991409898
Ni 6.326682648477291 2.1716941900080866 7.122756627573194 0.9297582114191472 -0.45159472989584154 0.2676348698089971
Ni 3.6480131108017853 4.35667754719641 0.6421411259248343 -0.7446608952937499 0.23937227541887807 -0.20107466539026017
Ni 6.0008428422178515 5.743928058055083 4.950421677309435 0.1652777102963089 0.7044678680146319 -0.19297723309410636
Ni 5.391400541573605 2.685077140232231 9.413565688153927 -0.05240293908174846 0.6413339156686245 0.3260634462595352
P 0.0861006782245425 5.311027512633054 12.47011697848736 0.6696386761505886 1.7947171669747222 -0.36827787484405605
P 4.1433216999021925 6.162792034576175 12.755930688206819 -0.4686300881115736 -0.2470066520356843 -0.3388991645716228
P 2.511998953959594 8.721840838319293 1.1102479382538446 -0.13783426937337553 -0.8547385633791473 0.30152920856359683
P 6.556545136212803 7.922895742857291 5.9626907187726985 -2.030808457649483 -0.17396032567197137 -0.9599103095224951
P 4.565084136754778 1.089064568265102 12.646233990780496 0.2850402097696382 -0.5302969689937512 0.3653064509205579
P 3.9584947231663707 6.115906248584999 8.287317884284041 0.4207106387224754 -0.21780277677821847 -1.463973027410066
P 4.662756781132974 1.391260959116083 3.816369905716835 -0.3101897124520722 -1.7390103603307212 0.6174283126956205
P 0.11957880651878627 5.577148098477606 3.4847322673288987 0.0935012517839551 0.23747043041047491 0.9399181826712845
Ni 1.2393834606769365 1.0157280530852801 2.2481606777597145 0.6764089049948867 1.0093497951005457 1.6155765826533919
Ni 1.7610698617249456 6.70520516139089 4.747250545658014 0.37252302327365516 -0.3250195783760531 -0.8886755824462244
Ni 5.989467752615015 5.6352175663138775 9.199481579914783 -0.0002391125939995882 -0.03432114187937315 0.157755947997967
Ni 8.667471920465996 2.545823439148796 10.148971611235858 -0.020951405440686497 -0.47372370058439706 1.227282926809041
Ni 2.227649057854088 5.3129051315899325 6.954963118345208 1.7653888503242496 -0.46131632805897965 1.0269932192139215
Ni 0.5922447693440615 0.12293208814128895 9.140037622084835 0.10279244727789394 -1.6357453442917829 0.684587327040621
Ni 1.476191315621872 0.8977443112143274 11.709697707330855 -0.12001035381807719 0.35897433805494305 -0.9320202679804466
Ni 4.3883783177402105 6.981461243740532 1.6625513773506406 -0.9255526579782317 0.5881660733963935 -0.31231858586961697
Ni 5.661139645504956 7.809336254586672 7.952317849618472 -0.8560061172376612 0.5739833541381082 0.5840319966233619
Ni 5.54898381412443 3.0134508206179436 5.036746576050187 -0.8078293004221184 -0.5758600023355308 -0.7567458514827419
Ni 0.7370811966949139 7.267214796736131 6.794826830892336 1.1354382367919027 1.5630096071899533 0.04972796335274662
Ni 5.0619148732619745 4.505036788755191 6.906084868742509 0.34805949091465216 1.4000705723291502 1.1675621139096408
Ni 8.404021928574675 7.112402379344972 9.555798969999515 0.16575747814620484 0.39587661039793115 -0.0644254174639213
Ni 4.696526578391393 0.3412481307575117 10.4587586868795 0.11339079161903054 -0.4797241411422061 0.016385640446875006
Ni 8.267375018858557 7.173415880788388 4.973927461425424 0.47893224136853 -0.21170566274154506 -1.805728430483561
Ni 7.596618433151589 6.382883612011815 7.22809105105407 -0.7611352387996891 -0.7818765851120986 -0.1472913010212173
Ni 2.1969417847195096 5.216745519963396 2.565604063712958 -0.03757153049587078 -0.6231042800344753 0.7524760204627945
Ni 2.5304287866334194 5.12329296091061 11.562555272231993 -0.5488107115272226 -0.12364949323256125 0.46912708235265016
Ni 0.9681313239939268 3.3572464974844234 4.103918134307626 0.3764303287478614 0.45650630826484606 -1.3237736002386233
Ni 3.5453729793774786 2.8816437927761087 2.6792492297418034 -0.4228567385312008 0.09325056922572973 -0.42747932490487667
Ni 0.8456823125745531 3.3692322689810013 8.105010198226283 0.91725519385613 0.7172580778007647 0.26491464266435666
Ni 3.779865711919273 2.67073067305686 7.183400985483826 -0.7048671603355796 -0.8828034399361634 0.12647899226155634
Ni 4.086017863096881 6.937938765492502 6.182764978363591 -0.18880381844270708 0.07167438571685075 -0.37208722128781724
Ni 0.8116172004899065 7.323215237857785 11.696424035064343 0.29040095986091924 -0.19721389688327326 -0.3171846557126667
P 0.4406844609034558 5.8343818955699405 8.2294881318777 -0.8253405698330044 -1.9704350987677484 -0.2594019403762436
P 8.710246996993327 1.6309490450822492 8.179208048315935 -2.1026180833926174 0.2651360146465434 -1.9113038398232312
P 1.7521101557316865 3.135423135573993 10.245128488465857 0.5185763381227133 0.7616206630765399 0.6793435621431784
P 3.8378349185491096 6.385399256827826 3.992580798957817 0.33441027556233377 -0.05013111232843624 -0.5322402087630511
P 6.9314217870742105 3.920167598342713 10.504782226495335 -0.6709725644706639 0.4775381892344808 -0.3983340707994882
P 6.457341229772686 7.717633709318938 10.117928918792478 -0.5817002631663917 0.13251979913899758 1.214127877484322
P 2.3338530194344114 8.579077995010625 5.8309693686890895 0.7897397899102592 0.22423027757111705 -0.15869362932088799
P 6.748135187055439 4.009892263447133 1.7470752202376107 0.7253732507087314 -0.07272005337254572 0.5999656371344828
Ni 5.395192238107884 2.7890753552709793 0.5275307179176713 -0.4401564061519129 -0.14870000844328585 0.018946973416148014
Ni 1.42518570551172 1.089520301021626 6.950494202934736 0.46817166041791625 0.3928457939914073 0.03699483205679435
Ni 6.938531218075983 0.6109981722750188 9.12518984887729 0.1572558684330969 -0.07528164345213487 0.20358637606852034
Ni 2.6879756005637225 1.455938551921951 9.199694862844838 0.22408475313218826 0.8299533860146674 0.6103773193861102
Ni 6.36619467846791 1.9580649030599555 2.7325307692380356 1.241457161426894 0.17940257973346524 -0.48829774174383006
Ni 4.2831951975345 6.885356320044777 10.271115281708362 0.4918764602340238 1.0167008361489782 1.4764968709086894
Ni 8.07064430252233 7.153090199847423 0.07655307697536733 0.20263043991315427 0.33115397340856517 0.5629047277264435
Ni 7.611119849464177 4.24750220804355 8.356700462068263 0.855983748640158 -1.150388944564464 -0.24406839534296676
Ni 3.4310478600758993 8.261559868885312 12.213811053287305 -1.4440094398039454 0.09720955387347775 1.477995566941403
Ni 0.3246448749718339 4.972773546085905 10.267859526895755 -0.19110444155142572 -0.9749751742754177 0.27346124668278715
Ni 8.685181695384513 2.3369793461441657 5.9195619936263055 -0.14462918080802187 0.660577594389585 0.4425830133155346
Ni 3.5656804310081824 2.6118044276383228 11.35258005052567 -0.2273865638119116 -0.3324878617286403 0.4161186484764189
Ni 0.8983622848321737 3.220973288628654 12.627864314830532 0.9778715219866063 0.918885016150069 -0.7487108969934073
Ni 2.9409163950896033 8.522330152168273 8.152181272923043 1.0989136595033075 -0.9758763459334483 -1.0374558093081423
Ni 5.74693589424814 8.115780074728455 3.6041132858313536 -0.30129806638939727 0.02595425797191659 0.7334033201020596
Ni 3.221155581731264 8.541507386562797 3.5658672814383574 -0.3227253830252378 0.24775792837941205 0.26626935692003817
Ni 3.7646624671616364 4.393446065992756 9.647486020353528 -0.6644890136288492 -0.1457938905400844 -1.2744235890505857
Ni 7.114188851750546 5.939519442499999 11.535434615891258 0.5795924727947696 -0.16242532844917834 -1.0075083710164325
Ni 0.34582277616749835 9.146191837228935 0.40337908891992447 -0.10332775095607366 -0.49122957067864437 -0.8839977173545809
Ni 4.688441879290659 0.41241080068871466 1.6790270279644919 -0.6907762294601523 0.33865310999908776 -0.7429575394493979
Ni 6.041712955822913 5.535375634014627 0.43416019076106 -0.10257210373697172 0.7045840818775221 0.11531577655588528
Ni 8.212632400144908 9.03080030327709 11.197686512703848 -0.5980167409382282 -0.18999861008175667 0.5551425672825213
Ni 9.30761237958969 4.9250583264778545 5.983154942471647 -1.4884080205239787 -0.6588235878129557 -0.7413948229479683
Ni 8.134583608262629 8.649324642101215 2.6849723216982304 -0.7469995707292554 1.1643302372359043 0.03508295974606216
P 8.534452643491807 1.7501322755683726 3.4340392898897223 -0.19758876372418877 -0.7571191756617606 0.7420365702970253
P 1.494785212088046 3.253804276408635 1.626933128031761 1.4961992344336232 0.4110006105235631 -0.08960731604618762
P 4.83238051311116 0.9040589442887221 8.324203070666057 -0.5127779862733813 -0.004189612601315365 -1.4036598323423053
P 8.497921105728855 1.7291047661823613 12.385766314047867 -0.26897030079096906 -1.5648451177367955 0.15176347785995797
P 6.371936911200112 8.014652976055807 1.3925588860066629 0.8386527135608782 -0.6523526353766312 0.22111307209837402
P 1.880590334450897 3.1964366370174093 6.13240559730219 -0.1226123102172985 0.8273745695438977 -0.019287387474702267
P 7.08889568376347 4.170319308398668 6.112501924893766 0.5628430212505725 0.22884797884878655 0.8957903391141347
P 2.2931743135870906 8.49918804279199 10.32624983059262 0.5728479549820844 0.015379310669547707 0.20602198209320646
