# total energy = -340892.91902733827 ev
CRYSTAL
PRIMVEC
9.06574369099115 0.00000000000000 0.00000000000000

0.00000000000000 9.06574369099115 0.00000000000000

0.00000000000000 0.00000000000000 13.26863227118609

PRIMCOORD
 96 1
Ni 6.24508267561687 2.0425211462013753 11.37588843349075 0.7761414824005343 0.34733058316842763 0.6293515464957677
Ni 4.753532109485662 0.41716110800471773 6.129352109857895 -0.8763137184467616 -0.6116258470812306 -1.1350679979366773
Ni 2.9614974647625045 1.8544976195760317 5.017082347794503 -0.13547296823005053 -0.7414431596874005 -0.2542126828658202
Ni 3.4894501212983533 4.438352460177239 4.888801166304567 -0.34898200272892155 0.038572718066875504 0.18049632701827625
Ni 5.017154873744985 4.579868721055812 2.5888029235728616 0.16445495728469742 -0.28783577023690426 0.5486888412373776
Ni 7.290236016529568 5.975032298996054 2.6080023558142864 0.4242955278602564 -0.8950606600369618 -0.9620520384558462
Ni 5.174998539225884 4.467281248675864 11.640584581817214 -0.15009303213607056 -0.1629691167677903 0.08267536481304472
Ni 5.52347666554949 7.65598438481177 12.294927305684173 -0.5148451532150553 0.9272084484140999 2.045462460117232
Ni 1.9278576184888707 6.4065707701095045 0.5320612516306708 -0.4199750461080316 0.6831832476042428 -0.5037400444408293
Ni 2.532950689106448 1.431263369792803 0.2620661760470971 1.7998254347355649 -0.3037421570545156 0.2292570413617471
Ni 0.593759984280338 0.11470613670841293 4.921548446096084 -0.02271183977521895 -0.27890915717123577 -0.03378146732581924
Ni 8.666878279865395 2.290432976437472 1.6075476647582065 1.5622267062773418 0.5018590253680324 -1.8236773016524979
Ni 7.260255601748951 0.556839742612946 4.975285642531557 -1.4265161681151883 0.3627237777950463 -1.0320577782210227
Ni 0.8806345682642843 7.433338782574943 2.594866999607562 -0.014340842102704334 0.27217672354340866 -0.21330900267292296
Ni 7.577393451720395 3.7608150307716612 3.8163907600518616 0.727943839649385 0.06795888453847651 -0.3116313299946052
Ni 7.662130959115144 3.834564856668343 12.775132502720004 -0.007487566626296782 0.04964748782379836 -0.8420979917970014
Ni 7.94003226987567 -0.497904248676654 7.212881650893917 0.023698886278836602 1.0516750382313178 -0.23777124948034534
Ni 7.0082097923353635 0.4321558482669317 0.43251122542429493 -1.1241590643336574 0.6190630200855661 -1.1728143634475157
Ni 1.7436960987267094 6.37411540726868 9.214004077985619 0.6495578462403135 0.13191610411672766 -0.6860903939487087
Ni 0.2525389858768669 4.662312595266559 1.325986513221469 -0.915185970031927 0.7302668313556068 0.18110876379129454
Ni 6.378738936611926 1.8019163054763696 6.980667156065332 0.6403383845245746 1.584621271922458 0.03440495984243107
Ni 3.265290539845208 4.342944572317783 0.28610762205759604 0.019451680966708438 -0.24313199957162646 0.05467605138664132
Ni 6.032944270456165 5.603672235295285 4.811657125925315 -0.5307487118191891 -0.15167091814615172 -0.36515449872372596
Ni 5.350910232120686 3.1277088117802987 9.09566076486052 0.4463134268922442 -0.6958078783467887 0.04992362430332047
P 0.09075988100792198 5.707420607460205 12.60240107275385 0.7698402227728548 -0.3336101482585416 -0.982975675982391
P 3.9733432629162095 6.090013127741919 12.558216450571276 -0.6370412018305416 0.6939075760002823 0.329284010079362
P 2.5155535267345077 8.514836690423078 1.3680361527367213 -0.3954937731372156 -0.26355787152614607 0.2450834668710424
P 6.2786803221777925 7.801716216562126 5.7089354932509035 0.2841331245743365 0.36155109764318377 0.12144837181618437
P 4.867180273891415 0.9383044843646603 12.766945229484934 -0.6824396845699988 0.39210094540558277 -0.9833168613718934
P 4.034609559586126 6.234131257094044 8.1876222662065 -0.36008813994441213 0.1775040771591717 -0.43715824275553744
P 5.034624562067408 1.152337629981716 3.703461509130264 -0.480491872546166 0.1557630859376543 0.6115741679076886
P 0.20011088284759862 5.454395697715106 3.476554100728221 0.28749072819265975 0.9472178016564913 0.6814994321439166
Ni 1.681305649824317 1.0525509878618917 2.7893054465530644 0.12785967465916692 -0.06805324402449571 -0.7518859522872793
Ni 1.872502186783261 6.514199280625228 4.7359726702995175 -0.08492919384422792 0.8152636452129767 0.24506624047986184
Ni 5.911844064638357 5.6034909204190795 9.34645096875638 0.18707243757389716 0.5015312097149686 -0.8834027640830592
Ni 8.600970322364612 2.298655606073402 10.225020360580682 0.15314030360282657 1.207345564455166 0.33911899389191275
Ni 2.3929302759565716 5.3810810275213194 6.92604061016207 -0.5890461620085017 -0.2120144522312155 0.4983924069756707
Ni 0.5315127741301484 0.3545476418045924 9.322938962184404 -2.425667682526494 -1.6968460682578455 -0.9458144935510614
Ni 1.4428856533575904 0.9594639304178691 11.46291776092074 -0.6795199398200426 0.13573444942155335 -0.12620388422329878
Ni 4.093147067369147 6.8017284113122765 1.6785614491729433 -0.3688664003576744 0.8936848627353576 -0.7481773930874405
Ni 5.659553480141892 7.969704449366737 8.124715069906923 0.2665812317335022 -0.3751735735226248 0.11444648657705453
Ni 5.327130786106304 3.0258098513526774 4.843940239633745 -0.6144584314340192 -1.4756237242751167 -0.6407255926606643
Ni 1.1011252431974072 7.691594626498575 7.174481879836686 -0.20397564108713903 -0.6463920469178223 -0.4588712089525968
Ni 5.026728299208648 4.681577300863417 7.018602761039476 0.37394227221868503 -0.18492762331675247 -0.24574758281760256
Ni 7.881957115026974 7.02486356371486 9.18282245215014 0.46168888090705007 1.0179470498512535 0.2579083865498526
Ni 4.499156403912831 0.2850759404119854 10.375977687063289 0.16653369419059705 -0.6973865356878183 0.5013298923374397
Ni 8.129225277452539 7.353841275102539 4.421532785686014 0.3216478336903428 -0.9048509066545061 0.6687832701288289
Ni 7.218979270180716 6.279768211435027 6.7937523699079865 0.19239127868364933 -1.5820756226824688 1.163823472802815
Ni 2.34320467115715 5.120232380867943 2.7196052884164383 -0.35558665252963273 -0.21632490668111132 -1.2139085623846642
Ni 2.2200102785191658 5.364916806307579 11.413902910436045 -0.6188758437754245 0.06366488514881294 1.1198444961187037
Ni 1.1169087031711162 3.371495728582715 3.9394301284706894 0.15336784623260039 -0.10677328630251288 -0.9391802760639955
Ni 3.4864946888162 2.760908817216104 2.7001928111954716 0.09958808140798334 -0.24676933921389757 -0.18919308346132577
Ni 1.3543042705872803 3.3311803658583705 8.308579233272106 -1.4499034366908772 0.45778697474948254 -1.1805662394787928
Ni 3.512585899502205 2.7761573983050063 7.325001330893255 0.5782675833357589 -0.2162076643769567 -0.27150309451515175
Ni 4.1249678281432525 7.024818234995808 5.945833351331883 0.08715242674779183 0.010533295431156053 -0.17146352739204665
Ni 0.45281033238990764 7.37064916412681 11.061647995241074 0.11664040890457977 -0.14408282138624864 0.9588690127421744
P 0.0360290790508409 5.845927041393763 7.885813682443869 1.027641908541514 -0.7817336317763312 -0.494414139054213
P 8.41301932168975 1.6812965840805068 7.837714472084013 0.6931483292367546 -0.6499895344610935 1.2914509768465179
P 1.8953025324661317 3.3330207118518587 10.288484193550213 0.6796484949781069 -0.5053076460382652 1.7866765560584326
P 3.91133357525385 6.2261080738219405 3.737243190290535 0.40940087013661103 0.17033378466297763 0.9006193850716618
P 6.951766471372519 4.066928936269798 10.447442945519777 0.9235073454134289 -0.795187957509024 -0.4236239557145285
P 6.18022634439808 7.8907599522667615 10.356990393227024 0.6710458409107604 -0.5933730715186298 -1.8171266450181736
P 2.476008752234038 8.700394334732025 5.753358544495689 1.0076929762234128 -0.22304525612408038 0.6508012317291114
P 6.919936644854603 3.899829146358596 1.5274980534877571 -0.3927380647689494 0.8665280998149077 0.42130584910431307
Ni 4.99990276327401 2.911617742318308 0.5542677910939677 1.1543404730130442 -0.8951555337436132 -0.06893796062229418
Ni 1.4693394937960067 1.031328081602011 7.199546848323367 -0.6215364213267232 0.8139477546150305 -1.554957169199122
Ni 6.853638860369978 0.9145341040940889 9.23321710884276 -0.6853766557111357 -0.5019227887264324 -0.30128443954264245
Ni 2.5552252216483224 1.3139163819124537 9.187705261766357 1.8431791191308515 1.7858964833592987 1.2018426323590656
Ni 6.628545507304373 1.999232219507257 2.4393849603892424 -1.9781239827715738 -1.0227221026423934 1.0276280245844431
Ni 4.02712125519883 6.7455661284075505 10.400099818193699 0.1663768568977586 2.0649023140093985 0.28943911016828217
Ni 8.249301054219785 7.349281205965965 0.45742116969181934 -0.012974043662164751 -1.0944653939239668 -0.5271903050439695
Ni 7.869908741503102 3.9360286613930704 8.072410260993474 -0.38546672791851677 0.007262080879052009 -0.19544780612178597
Ni 2.874448192696133 8.226845206801706 12.228252386257038 0.8140038046639465 -0.3777089383499689 0.9871753158860354
Ni 9.225482216223822 4.818723873225433 10.347994455644077 -1.4840615706298248 -0.3691343093070804 -0.3319978094660992
Ni 8.609283609438645 2.3969010717454773 5.793190703074945 0.7650420300532631 0.3499839616308747 0.09687556757282671
Ni 3.8512004965602187 2.4624917282129006 11.228606359548834 -1.3519788590282458 0.35264196807901205 0.5128687462149748
Ni 0.9943217153684211 3.153627773333908 12.367373477620934 -0.009543677824377112 0.7727103452317983 0.29092392224392477
Ni 3.306213307404841 8.427941536001482 8.042489680122003 -0.5767575744491357 -0.8636533493702739 -0.05794289506337118
Ni 5.733493686658589 7.598598226492656 3.441471485331174 -0.31640509723416477 0.9079771109883138 0.8949002231996975
Ni 3.514290259338539 8.596274267070884 3.796354559656747 -0.6564661433243727 -0.28597943375445584 -0.1914217156815284
Ni 3.632743267963743 4.615460831254997 9.643429324216891 -0.7851316017142865 -1.5750626816997455 -1.0647025608392373
Ni 7.2299850831664045 6.097419840434923 11.433341678314061 0.49275706306676426 -0.14557406121979444 0.5498154986426531
Ni 0.44199671317299777 9.27316802866593 13.810124957970132 0.7439597554616671 -0.08940239912423313 -0.1884880869745012
Ni 4.923387885515191 0.21291715255400945 1.6162389933491281 -1.3405276797685106 0.43016535637747205 0.13345439513812501
Ni 5.837523096881627 5.59336448458299 0.48786212425799963 0.629632053850664 -0.17895546489371764 -0.599733980739651
Ni 7.8165931021548065 9.048727409154665 11.205227619410868 0.5279384960639036 -0.44623655090772185 0.6850503827199685
Ni -0.009708505046435893 4.854615152970357 5.627624837016443 -0.1616156880636894 0.7002288902326199 0.9942754172659264
Ni 7.91126666476563 8.818711357200074 2.4700226415961057 0.42406001481068256 0.4096140145886817 1.2298483735433723
P 8.832835786056501 1.6667732624964275 3.6200675449682005 -1.5327842326465086 -1.0013153548318434 0.8583800167864765
P 1.7655898700285513 3.157399122758987 1.2692730330930786 0.4723533025994317 -0.5061658802735025 1.4825921851731498
P 4.76263411627119 1.083211333428281 8.33360340591164 -0.3476650836897109 0.5479252235984757 -0.4615482415641277
P 8.348525620223372 1.6398842663551176 12.502356056935433 0.8583553341961282 0.5564065215966095 -0.4731693707428238
P 6.286912017557532 7.568635943199658 1.3514231772043714 0.5187622288812743 -0.22989107540132023 -0.19845856792365177
P 1.7492624654262252 3.4256182191301257 6.008660769085932 0.6466794962512541 -0.16320257293483506 0.645373890065953
P 6.869503912037979 3.839260911962071 5.948752520838795 0.867630331740151 1.2585161737917099 1.1142690589134554
P 2.209421489748751 8.361117938375859 10.164449406461014 0.8736279440844824 -0.15672827806440104 -0.24408433618256672
