# total energy = -340888.8668068303 ev
CRYSTAL
PRIMVEC
9.05613234034237 0.00000000000000 0.00000000000000

0.00000000000000 9.05613234034237 0.00000000000000

0.00000000000000 0.00000000000000 13.25456508797792

PRIMCOORD
 96 1
Ni 6.3751277710228 1.9303508380548726 11.340300860513628 0.9625076379360261 0.34242260434384897 0.2058826283018648
Ni 4.502591281983861 0.30820101347352075 5.9553950537991795 1.0699015885416736 1.617455030623027 -0.8197085683582076
Ni 2.670517592350184 1.7689886715815166 4.928842603283556 -0.6486245357927668 -0.6998229130434529 -0.014903913695025946
Ni 3.3750665780553213 4.1028898239376135 4.802764939729355 -0.362521174865937 0.8910656799449557 -0.23875058267447916
Ni 5.00352218760218 4.723289227710413 2.6910215816369907 -0.5150557265639646 -0.3475221303539434 0.3307423397924433
Ni 7.188114885662272 5.8558944218955205 2.6835855913523754 0.6341394548027144 0.581385045918818 -2.172105488760478
Ni 4.897257530435362 4.438935727592727 11.664693333041908 1.1044237906882592 1.9219685186259288 -1.147881861871894
Ni 5.613434590096712 7.768531465045135 12.439939921664934 -0.35861695471552435 0.21373837690085773 -0.08078920353392538
Ni 1.8365021383599915 6.648342228331963 0.4123936275553063 0.35784510954650633 -0.6776553758074781 0.34983149521341045
Ni 2.9024723106059964 1.6453634086716624 0.045082332524470387 -0.33288432583611055 1.0751168141940257 1.6510614058235629
Ni 0.45125349153202476 0.12318332365045923 4.62119129704457 0.5664685338183019 0.9398243374058974 0.5222172773094103
Ni 8.270648724003223 2.2588167589207733 1.3505736216169537 1.3432211674402739 0.17739043439944288 0.012339495401959394
Ni 7.0647975312528155 0.5593502042762115 4.923593668965005 -0.8497858473595623 0.9770323139147626 -0.26506453797865964
Ni 0.6100935251418254 7.494465731293694 2.48517750421494 0.7335933246256786 -0.2811326471851159 0.40062800903998746
Ni 7.73594750079712 3.8699751556511477 3.946546566020747 -0.8924764442495534 -0.1942733261977106 -0.2137687159181609
Ni 7.715091227961327 3.945403682116328 12.74581532034721 -0.5831071708162473 -0.6277389505930092 -0.8291954248027203
Ni 7.810452301761106 8.528404363365928 7.11279684401194 0.2061677636424514 1.888128173037716 -0.24074807272048218
Ni 7.08339882712981 0.28248703123732993 0.3475236458140729 -1.1726639539125805 1.206306324557374 -0.7100227363945901
Ni 1.7927247945092672 6.698268686058286 9.242527492206975 0.533963619212061 -0.47570267868763877 0.4332208553743443
Ni 9.18798965188057 4.834244961442119 1.1849976367543253 0.08182124434286554 -0.47218206712889005 1.7897356545997307
Ni 6.672196080980454 1.9202170259388276 7.057883174192404 0.9873694341747125 -0.46574248215113334 -0.3595428089639034
Ni 3.5223826832311036 4.376493694938457 0.2864056197115145 -1.8002321832556802 -0.5412292996355389 1.9570892735884617
Ni 6.40353685825071 5.706024487392907 4.755313522978292 -1.385988383204471 0.488867755314687 1.6431308381225767
Ni 5.560573945484243 2.8228236264588884 8.832272017502962 0.6141283017881101 -0.4972510942823759 1.7267837363575422
P 0.3631300787180764 5.473390559209745 12.445864443457886 0.04113610791867754 0.4163292218253281 -1.3059028906057897
P 3.905937057271178 6.216799408891602 12.615986606767569 0.12491319043633325 1.4495082581349876 0.20316651492228235
P 2.241528602236654 8.637494533830516 1.5115771652486694 1.1315628129968964 -0.830676380223621 -1.0854752746102145
P 6.276624219292488 7.7734398887867755 5.6970643500313205 0.2391496178851107 -0.6790923653643207 0.5506359376614194
P 4.811287665897728 1.0513626307418222 12.609213525372049 0.7880598311046751 -0.827381511522433 0.48222865273161464
P 3.7062765070277117 6.223066252487941 8.119468367147444 2.5230626129379 0.3956966331766411 2.257979305906163
P 4.55391238409434 1.350251223304772 3.900910903808797 1.005043711526024 -0.736511526713738 0.14233987055321293
P 0.20872121067429966 5.544725713846103 3.4064895461341886 0.5244919322762 0.013857731818698715 1.2631534154534052
Ni 1.2445299340798333 1.06557170242196 2.564877808316527 0.04023647892254361 1.2176384617407416 -0.5183541948095782
Ni 1.6603965883969833 6.621662862385701 4.903844055504173 0.6594213692979546 0.15061290919528256 -0.6703287602390778
Ni 5.877547634379401 5.4159927922825855 8.748768137808222 -0.6378721823722692 0.7724866592567664 0.6957893664040276
Ni 8.458228393672245 2.214215307024866 9.965073729760384 0.22058265351620077 0.10151975121305741 2.0129673157030044
Ni 2.1503695738540745 5.283501575787738 7.267478301639893 -0.8799605711707297 -1.7384781419763349 -1.7833356646106577
Ni 0.5618288677044165 9.029054528880941 9.234495608412765 0.15481434887113985 0.5809471870504511 0.12436991633835355
Ni 1.436755399651921 1.1175991828568814 11.445621868688049 -0.4090717689319664 -0.001719810904584135 -0.6826011498485277
Ni 4.004567394854594 6.971881613191494 1.7887962442894818 0.40081595668107745 -0.487999750887437 -0.7504865008365914
Ni 5.613253467449419 7.74373577463072 7.909807129933694 -1.0055641028058684 0.03917692730977769 0.3374626892354124
Ni 5.5005046195095115 2.8862074968790825 5.369053047010126 -0.5950054649157301 -0.015141226516812633 -1.525886734195727
Ni 0.9149501089330804 7.722091618279204 7.2566752413421005 0.2193050723553578 -0.8096532410047346 -1.6271910269638685
Ni 4.893707526548419 4.920459341553598 6.578532126385812 -0.24435764444861144 0.19047734949038808 0.1641248276387883
Ni 8.176202319572274 7.182916665684962 9.245535939378513 1.298003690363371 -0.41031026932475784 -0.08674130735230222
Ni 4.633343721064695 -0.06481836178675486 10.645801464893543 -0.46077768194669033 1.630911156127933 -1.219232802811055
Ni 8.25050788562424 7.396079909284123 4.5678144528873155 -0.9381703467422423 -1.7847991365300617 0.24709664064632933
Ni 7.3783570582465 6.286205607334289 7.158392659241486 -0.40513695265393446 -1.6010459931373844 -1.8041682850852925
Ni 2.3892975140306687 5.338689646417923 2.5948327773390836 -0.6218585805528323 -0.6215685601162392 0.37978433282175883
Ni 2.3992139789699616 5.303850705211109 11.312705013972062 -0.6282662838513889 -0.5196492594719179 0.12004969169644486
Ni 0.9985472667911761 3.285102959144876 3.7219082971023365 1.0735885504749574 0.9909224416332933 -0.6639511388475082
Ni 3.415511265195854 2.569568884881416 2.5649701808666463 0.03355958112300027 0.8915927560930192 -0.5903399411192607
Ni 1.0029485471203965 3.1365642760998664 8.433707104068478 1.06708725902133 0.6460706590226615 0.037482570326490286
Ni 3.7984951028969554 2.6662702662711624 7.289069932423694 -0.5831277396415376 -0.4178286891889901 -1.1774680601694432
Ni 3.726082268509204 7.2662421395721175 6.25178053137654 0.14460064156293162 -2.6793005816294437 -2.047121335876894
Ni 0.9334698996187922 7.364066481375081 11.459685136637116 -0.7876353419727468 0.4501564547874183 -0.09502617306891376
P 0.16086136235359075 5.6657609228996675 7.977459155537349 0.8605531131783953 -0.43988824009219085 1.224579411834949
P 8.564918689060201 1.4597670319904996 7.961552964652076 0.18068890264505655 -0.10006219283092445 -0.2359272542930711
P 2.120411887991808 3.172897479146847 10.625138087677117 -0.9909540662021774 0.5627116378790308 -2.1386163558640976
P 3.9312580033627427 6.277167587234367 4.246921269904736 0.04321870147931911 -1.4121650415998388 -1.3579949833153386
P 6.549648497821994 4.21629976954014 10.367853367197377 1.6086196917195845 -0.9977649184764237 0.6120958447391136
P 6.405013007826149 7.60689761460084 10.111841033314867 -1.5005107173247836 0.18543258797762904 1.7469185594342043
P 2.2034747340403893 8.69124267941472 5.634263694535409 0.1987159353500965 0.22009362969492416 1.4411148918649697
P 6.804297883783622 3.7654764442954374 1.730039151894388 -0.23555778676879432 1.9638672157422434 0.03497574474423654
Ni 5.453394618948595 3.096608620107025 0.2464563030113285 -0.18495333434836533 -1.8228332084846477 0.3707998699349614
Ni 1.570143173250869 1.0993057954802858 7.202411801826346 -0.7505389513410815 0.7423936965261279 -1.2808508327331685
Ni 6.845448949248597 0.5697828687602897 9.268069407928238 -0.7393122293873268 -0.38899376723516876 -0.8402689090080625
Ni 2.71981012081098 1.5244549854712035 9.316779627077986 0.7654253815346108 -0.2922431552759806 0.08243702354999351
Ni 6.26891745065017 1.7616713166308784 2.592619458589163 -0.5376230703415192 0.7628187971496991 0.6628134256986391
Ni 4.383267681947216 6.644375642356246 10.436313199807957 -0.26967092640241946 -0.3820857272614258 -0.7941757141944258
Ni 8.24098989050899 7.0302664985464 0.5909995756641947 0.5564103782513515 -0.402666636736571 -0.8850886364259144
Ni 7.796016826771852 3.904895602049243 8.455551400945254 -0.9086826216957705 0.2826938210246486 -1.8423113718139175
Ni 2.9889855430855095 8.440061792148754 12.612063490227202 0.7540932443512433 -0.31414921132045254 -0.4488799020678398
Ni 0.0956092118265691 4.779663651680366 10.105876664539508 0.7226350258419619 0.24575786723024767 1.313481474283996
Ni 8.81062967237792 2.4194091541431337 5.652595117667937 0.02725755016437241 0.047917135396252954 1.8235150650430207
Ni 4.041036439887045 2.5703477122647764 11.086807942654966 0.17619307165723203 -2.1845257168017023 0.11348000889872713
Ni 1.1585510134098342 3.2747517998520794 12.48157186775847 -1.1438583425347977 1.0956190479124357 1.0325843401484538
Ni 3.1235506138918625 8.572670738364343 7.972567938447201 0.6202999778164607 -0.07637307674410074 1.821955948086017
Ni 5.474287116313846 7.903033142924936 3.6209487222747314 1.2129611108697305 -0.08026958358502949 -0.27516485963745513
Ni 3.1790918736842686 8.411815715303407 3.6760480428077424 -1.1749455508579056 0.45552029020249296 0.2663079234674575
Ni 3.7905709870778854 4.151783882574366 9.164590417076786 -1.9037890195034244 1.3871104126240563 0.5085042985986921
Ni 7.5476795650683846 6.150671530364918 11.550213858207115 -0.8598817981429837 0.13193950115549535 -0.7106642266333308
Ni 0.3653633209591994 9.045808373755547 0.06872427167562895 1.493811450927737 0.011885181473360176 0.9633337333817474
Ni 4.476627350494406 0.2726882960187773 1.7245384570960989 0.10725151149051207 0.7040127827550844 -0.9353351912862924
Ni 5.8664900967621625 5.6301340981771295 0.27517963803229284 0.5112836611160421 -0.28808953811892324 1.2419058189285386
Ni 8.092424039066886 8.943302011520059 11.186004288511173 -0.2712426417649135 -0.25207069682215294 0.8222585884735709
Ni 9.192517718062899 5.064343172563177 5.7792288277493284 -0.5122591376554338 -0.9583691902876205 -0.12229477897687972
Ni 7.8463689227193125 8.969401784994984 2.5789809232479985 -0.15305520008818801 -0.3013042370369843 0.10991157482117844
P 8.391674876924423 1.8107193295178294 3.618548847198099 -0.18568635585964796 -0.9726287855304282 -0.671004960370496
P 1.725138878671875 3.3490301975069494 1.39630256199226 0.8188181953334543 -0.7191347259981873 0.6633986087781478
P 4.9509151146959205 0.7950405771324426 8.089512492511652 -0.6398383049597045 1.265064516433189 0.6103680634147295
P 8.474103793707478 1.787019431119537 12.429455637226376 -0.3190913858170763 -0.5485826546768166 -0.8536407023292784
P 6.377237849863763 7.551600870382279 1.3230456960681232 -1.726073597664395 0.025878153318342527 1.5992405644975296
P 1.7946265823058443 3.2368699981707434 6.36208512919123 0.5840865040103812 0.48276549907169114 -1.1198498954353422
P 7.12078254153109 4.193423979187032 6.256857399180164 -0.8329363799023913 -0.7008063600026447 -0.3583451891113764
P 2.4295973030533666 8.52895678744017 10.266191036498274 0.8119137549041372 0.24432961942415338 0.48923310907390577
