# total energy = -381176.2078215271 ev
CRYSTAL
PRIMVEC
9.13624632047947 0.00000000000000 0.00000000000000
0.00000000000000 9.13624632047947 0.00000000000000
0.00000000000000 0.00000000000000 13.37181999595503
PRIMCOORD
 96 1
Ni 4.238341106021943 3.7953884868523264 11.345039562408553 0.4681048117357229 -0.029968778447948388 -0.5966219174732306
Ni 9.125775951736657 4.452412488151005 4.194819684148784 0.33364125860679317 -0.4716231093016265 0.6671310792373866
Ni 7.477231707301171 5.78258596509678 10.445262761631245 -0.18321166906691028 1.5074915195179908 0.5325256012139538
Ni 4.513168524647879 0.802438321312445 2.076015494606011 -1.2162917179048602 -0.2195117890495252 -1.1271765110037426
Ni 6.710654979140235 6.556745777512214 8.347144860484898 0.4133541983574043 0.9343291186192813 0.4553886497206351
Ni 4.252886009796834 1.3180131334003105 11.48825204711469 -1.0003643037724836 -0.48383559220741834 -0.4300540276105883
Ni 0.7627258004341047 8.912051746959007 1.358790940572716 2.77276120998345 -0.11228855969378726 -0.2490187973697066
Ni 2.96639292540618 9.3386139406436 -0.08187629658256201 -0.14489708975742788 -0.28160752993900534 0.5298933057974293
Ni 5.972217888935745 1.655332475280174 3.5711046088441365 0.5621501089486061 -1.0777830481722792 1.109677839998347
Ni 3.1610771933327806 6.491293710525205 4.053921410577184 -0.06097191169768209 -0.20709156100830142 -1.6256090271887293
Ni 2.275829764712009 4.23996735782592 12.546430341722353 -0.18598948892236356 -1.2885114346022195 2.285556701303799
Ni 2.3705452279245045 6.7604840653137614 9.141510394752434 1.4669799325571895 0.47318171203799797 0.6760893168719389
Ni 4.886603447320546 7.395087718708179 9.780095624192768 -0.5095764486169482 -0.05876359119245363 1.212826642174395
Ni 5.774765338443949 2.6286350437140085 9.683644274223218 -1.8441594807662498 -0.18515696571873919 -0.4094895731956754
Ni 6.952153372030742 8.829843804643385 4.923677420328165 -0.23549942272703311 0.2806209976560199 -1.1963003623845978
Ni 6.090358687122373 8.307360163262448 2.415245225543243 -1.745827640362871 -0.4499708211391734 0.7941206925867743
Ni 2.5184793246098263 0.5600537125512312 6.590180783702283 0.3656473791997445 2.2451839539137075 -1.665455983982338
Ni 4.772601368612577 4.282286449713667 0.41888866059380964 -1.5740216420297408 1.0119306684538443 0.36421064675321796
Ni 2.3353067267563175 4.447424097785999 9.855645983982782 0.25540233229854725 0.41341950437770086 -0.7783104650273951
Ni 2.79488731380929 7.749592339482874 2.0730599189959755 0.31677070810369967 0.5797655080375241 -0.27180699890881577
Ni 6.552141109482976 1.0516367424073985 11.360965866592215 1.524849551180464 0.23872204342938882 -0.10792076964339478
Ni 3.6345722831804497 5.041024278729593 5.779314275372038 0.3227276970180829 1.1065837744540554 0.6839836320183511
Ni 0.6693195612862712 2.047697699850814 4.433252866476178 0.425124451519455 0.7375186278220137 -0.026922535422456855
Ni 8.58304638902082 2.4932358766638316 7.7675962260273455 1.7178576375125059 0.6515568789482135 -1.8731445551446904
P 9.07517942089159 3.2439338091207732 12.060392099618058 0.5755152174016024 0.0693562791066354 -0.6987404786125515
Ni 5.725109840946128 2.4019099607506353 12.80316982033979 0.5933411898394297 1.4805874960382954 2.2609818401779123
P 4.085509981432513 7.912893602091163 11.832549653757908 0.1630663044672869 0.2598364568105009 0.6585410235755305
Ni 7.837565253081129 5.035652166028818 12.970585134562297 -0.6138313393729816 -0.5923865392356443 0.20337528849897876
P 6.552515695572656 2.5492502014401226 7.305988305967056 -1.98345850761061 0.35690614267200466 0.6972587518607024
P 5.266689557146555 6.360535756488624 4.918382965719151 0.3670938818382839 0.038478101470540184 -0.20554632800836858
P 3.2196039857837544 1.607120504664534 4.079087200431415 1.174378622610842 -0.005923307462970444 1.093518713739981
Ni 1.1758257355054453 6.039734747539039 5.295280525659836 0.6663209246312654 1.2276973886386404 -0.5317812668487616
Ni 1.94807607248812 5.168940860232261 7.467746456610787 0.30293611621345246 -1.3039524517476382 -0.6633181332491995
Ni 1.8639129735092923 8.9149113919851 4.249777858877099 -0.35681563984072745 -0.7686899112184955 -0.09782379041870894
Ni 5.430082182215743 5.753715427453153 12.164959176989138 0.9950997129394348 0.5360384994632187 -2.077880728546938
Ni 8.470405610980224 0.6126647856590882 3.1328699471552692 -0.42786139083464375 -0.10877180478978041 0.08033360405374551
Ni 0.5685714347807103 7.656786351703136 10.318405071050382 -1.9920493346034143 0.6628036555066262 -0.4220285862029506
Ni 7.7989920220901805 1.2538127321275983 9.410096843674458 0.16517023818416718 -0.2326161876419671 0.1751062663509565
Ni 8.643373021951476 5.271403860128868 6.6837834521410455 0.18052512337368265 -2.96362165384487 0.8469915724438769
Ni 5.2925085885962035 7.870839461340019 6.804116949389216 0.8716124563163505 0.6848994589644011 -0.9769901478229173
Ni 0.6651634829400415 6.77886619244635 2.7782492960552356 0.341170991324935 -0.24638727328413051 0.9840629955092988
Ni 4.989459305799013 5.544358348306404 2.652728238277303 0.30945232006541545 -0.03930188292341619 -0.3060954877780405
Ni 0.5939848169039742 5.316235419691298 11.418357023654233 -0.662537032108801 0.4278814454393018 -0.5142684547759788
Ni 7.283461063983547 6.558646116698883 3.5564491564915595 -0.1332152825441254 2.0407038623863243 1.404535035858407
Ni 2.170872569632898 3.8921504691889273 3.965319923247952 1.2776837478590963 1.3192723699341602 -0.27325067333387776
Ni 4.153410562371576 3.7444904598862983 7.838400305973733 0.7542899337430815 -0.6808826244955242 0.6785475486044443
Ni 4.641669825900291 8.571205814088497 4.504645320670746 -0.710262363209222 0.42844117459751374 -0.5956760086201935
Ni 1.9191781261062233 2.41444489038578 10.938188819662606 0.4372451460423889 -1.070360273345647 -0.5260222528777972
Ni 8.188406239173831 2.8738701612552258 0.6987391873198929 -1.0205060688276812 0.2484428702615786 -1.1107304496325776
Ni 7.132667322272131 3.693766021595976 11.147163090098193 -0.1106916475203126 -1.3861467631592064 0.8407862149641133
Ni 0.8535163323264412 3.4520666312914936 1.9336855712721461 1.4299848433900793 0.7237213169276052 0.9034596827339344
Ni 9.184942281413914 3.5717605913133808 9.747240769629398 0.2667570951897341 -0.3190844438385408 0.6191738346318175
Ni 7.113855791573325 4.215728896949798 8.680223156929896 0.04097001465445847 0.36807887145937257 -0.4233902424371676
Ni 2.4806461295521487 8.879005944852361 10.653155300529804 0.3279557781862416 0.14235632561344516 -0.14917771941065278
Ni 7.068686190905574 8.355727450061613 10.344065131818066 1.0720471741297664 -2.2160739239216287 -1.0661282375421703
Ni 3.509478801719517 8.690771866665127 8.193930013559697 -0.4197125364752643 -0.8062568137286761 1.3371546495312197
P 6.424343299179476 6.149598106768349 0.8559118560511751 1.020659049465778 -0.021826866067104347 0.9570666694261131
Ni 7.2933921634831105 0.24926511569140875 7.163698582115987 -1.812382445464969 1.7077390610212655 0.7705470190318924
P 3.4312359902068508 1.3668829137344125 9.541742840830963 -0.12504354536661047 0.6270424387466169 -1.6149991128833667
Ni 0.6089417653775129 6.0966261519399465 0.4047274791546886 0.5310482453374791 -1.4667513614861514 2.2294860835624766
P 8.43549601467127 -0.0650381950391426 13.356348507708482 -0.49344457605209213 1.6895703605320387 -3.61087322054951
P 0.8476810119489142 3.352582047620146 6.283725508362831 -0.4698770731447972 0.7329276660172216 -0.2780684064374953
P 7.970269227534828 2.94660381637577 2.9298324094288053 0.3180063802830136 -1.4155619830965298 1.2891909771677474
Ni 4.512419352468519 6.9275768700493 0.5442781564280503 -1.5675414336220357 0.8378896101426087 0.43908502746460504
Ni 8.11440264584681 4.982926889844839 2.1499076257307363 -0.7118093959813677 0.47828123804809236 -2.1855217621663847
Ni 5.483867262946133 0.4572216083125969 8.951951560882186 0.42239805372722733 0.01189906543043112 -0.5007010005041893
Ni 1.3776088666437856 7.464185147885001 12.383562137178718 0.7236174443598893 2.4113021578334406 0.39633683786380125
Ni 2.013171825877628 2.5538183244850003 8.223990090444211 1.0661081829375123 2.1382705424889044 0.3026491811006529
Ni 7.516654609178467 7.305251010907614 12.41852929183804 0.37538517531279864 0.606316261942859 0.22456477809240033
Ni 6.195087476049241 4.973671872555916 6.623316121020608 -0.6017145015047896 -0.26405897953228075 -1.3268596953631149
Ni 1.04074633706841 7.449347884235238 7.297509869595764 -0.3187756543488704 0.6682513088847588 -0.0412086130278258
Ni 0.25893309130358805 0.5336636657209722 6.209297993217247 -0.8051962336746455 -0.8021430486706186 -1.1775783604950625
Ni 5.47913468747164 9.112098991340293 13.151344849823502 -0.44372201201598416 -1.2743729383183084 0.09667116487150448
Ni 4.3430790311949 6.064311249520481 7.84253171645552 -0.808242476700137 -0.13108023847899358 0.8303531925562473
Ni 8.032925603218372 7.822664035708737 1.5376393531519432 -1.1963875227817653 -3.0809212936000034 0.21581531403454443
Ni 7.3933883769354845 2.0748323507373883 5.38065965899321 0.6763909072727577 0.512327271889208 -0.22417139930872362
Ni 0.3084186546241398 5.885907772125824 8.937684398988424 -1.970124766616181 -1.1031683210146033 -0.015037096838780555
Ni 1.2419904296874547 2.1082344664415342 13.348726137595799 0.5369424993347269 -1.193189584669758 0.3411684202217737
Ni 2.9538945407553947 2.8808045720373503 5.950258921459018 -1.3397897731612216 -0.5849611933058506 -0.17716957663788843
Ni 6.040630099655834 3.2211297388807436 1.9669542977833818 0.310107180040595 0.6367864055072581 -0.29357730070637184
Ni 6.9723992933656405 1.0106515424487552 1.1537662693217305 0.06680111678494946 -0.0114015569687223 0.8147586805521
Ni 2.0643987577028873 1.2882472436398869 2.346152364489467 -0.6857589787512189 -0.11031678067939711 -0.6268094968002044
Ni 2.979594801005877 6.027007956736009 11.487944155621467 1.1131917666888764 1.4895827575583702 -0.7173521801764678
Ni 4.671390034430265 3.620922731522355 4.2742483804039 0.08045804544675177 -0.2770137399207358 0.14724219295083674
Ni 1.0471417093312387 0.6624582404728648 8.400337912468672 -1.2424750611684474 -2.565461132508769 2.190119665949712
Ni 2.949326417710517 7.656475719336085 6.005819174804648 0.7710699814148978 -1.8316366657088907 0.6124794533307775
Ni 4.891500475224654 1.747919193153756 6.115749228630413 1.3034534006240326 -1.1195801867137234 -0.11533943070496909
Ni 6.90999873257261 4.495791384585164 4.300751716685673 -1.6656511307122797 -1.3811523952684084 0.529946527632868
P 2.7224642910557977 5.531613285011196 1.639518546923416 -0.175205253822666 0.03301682124565281 0.43866053833267676
Ni 3.56394910090664 3.013636453936306 2.2668707617963952 0.6224627897957344 1.5678178272118741 -1.1658253337241922
P 8.4395707804273 8.231200415858245 8.48367052667794 0.27734309823569653 -0.6030802715040645 0.9580166920442084
Ni 0.02332757714097276 0.844293291898833 11.375634109689317 -0.3908274780097979 -0.35019324942820335 0.7707051418763115
P 5.186098730388822 5.213324743736293 9.932066114400543 0.4647351239325415 -0.7682543663429736 -0.8701055327535209
P 3.5620578979660604 2.3565576351610895 0.1006923954044135 -0.5059946448029609 0.16521111872443162 -0.06892201978269422
P 8.946002037428537 7.845687375854922 4.568361500900701 0.46365577482543374 0.021600351878595055 0.018410898407019902
Ni 7.844938203675562 7.262813147820699 6.427833345185763 0.059894619473103296 0.43105650073317375 -0.6617050231258087
