# total energy = -340873.3070424285 ev
CRYSTAL
PRIMVEC
9.17516146723356 0.00000000000000 0.00000000000000
0.00000000000000 9.17516146723356 0.00000000000000
0.00000000000000 0.00000000000000 13.42877624682937
PRIMCOORD
 96 1
Ni 7.716292263013703 6.906364078612228 8.290053631808577 -0.07605168884894 1.1554972123253067 0.4227574939491751
Ni 4.3842865783691005 5.348027166007161 8.160546230729812 -0.6382534769710879 -0.1232201190046265 -0.15400342293407024
Ni 6.727815440638955 7.19872141676127 3.492878374464971 -0.4761181689585027 -0.35219845278369016 -0.5043288270647638
Ni 1.3035335094624279 2.0648883901932704 1.1265538240633288 -1.6026932989328204 0.20959658681834226 -2.6038795843859672
Ni 5.380048478778318 7.333697213946513 9.62441751811159 0.4203149459459535 -0.5203683970261296 -0.13625535492202984
Ni 6.475122324584386 5.289333659475042 7.199113196146752 -0.6673604216393733 0.7652536318434369 -0.9255930242978639
Ni 5.358688703382543 2.3067456408086597 7.120165521149782 -0.09308139063771712 0.27755161470207684 -0.1230036321184462
Ni 7.040073703544628 7.4007768178634 5.909815866883673 0.0395592503498609 -1.9291830340964968 -1.0126469777945788
Ni 0.6258560993542085 7.872967316561062 9.345514636423186 0.2224158500701976 -0.03869818790114626 0.36038921612459873
Ni 7.86770994916339 5.214473518816052 11.843790850861252 -0.07543076743548945 -0.013304944639022247 1.0363985716882216
Ni 6.771718587232074 3.0876436150072855 3.2083758918641774 1.9070800315498702 -1.2554922993637216 -0.8342167892767117
Ni 5.231089735844295 0.11203055392503895 2.752805280259258 -0.22150208000667662 0.1590399569167132 0.9610891603219447
Ni 1.6428584980629186 5.36459750722914 8.734881964619092 0.8121788356400658 0.51263529004793 -0.3632881349389485
Ni 2.8767984094252808 6.7251271183919785 6.238686676753088 0.7892008866876538 0.5695572000459544 -0.5814117853916954
Ni 5.185819490224556 3.5391257747580998 4.739807561612471 -1.3785362978018 -1.6149199229059992 0.7148270997617688
Ni 0.895635200693147 7.217998430552732 11.899560233502205 -1.4011969726241094 0.2372953382851913 0.5666078876096435
Ni 4.494562841462665 8.03700084943291 4.776508206622394 -0.2352978482391883 1.5255627751974048 0.2525193543237974
Ni 0.12281503846120469 6.262139306430552 5.087639759726262 -2.1314044114966904 -1.6771275067829956 0.9976826431752626
Ni 6.5651765322774835 1.1484274084892427 12.876074480635967 2.2124574102149634 0.9672166133759212 -1.107078454702287
Ni 3.193139619088308 5.620254200368261 3.338554914746623 -0.10790971389980125 0.10888519043919312 0.17378806176016523
Ni 2.2645949500147635 5.442063393683835 11.197773252170844 0.5790322294159254 2.981184088208666 2.08697446331809
Ni 0.5350522809867836 3.984800057436094 10.716499343833224 -2.429427663789558 0.5387486993055302 1.5182114770386563
Ni 5.2619458031363875 3.383726068624836 9.45329433813995 -1.045735018597799 -0.4705712709983444 -1.1116994984140662
Ni 6.613474581110542 5.290553955921623 9.919474188701113 -0.1349083539758322 0.38827488679127325 -1.1611078736438647
P 9.128211952351684 3.7679634715562194 1.881881541367417 -0.10350798528767981 -0.3563947502532249 0.5028555849533469
P 2.6574294790397213 3.9135732806330865 12.897707675837069 0.8034232009346227 -0.5823816055041325 -0.30357914911409006
P 8.83262495744177 7.522393580265029 3.3960565678320447 -0.7051929191061145 1.6521790643677738 -0.9854429065759609
P 2.4412259792862683 7.969343210357119 10.50862138540027 -0.42505554595473244 0.33988723951650496 -2.401289767902761
P 5.923126273312647 1.8282426311692899 1.486485307320766 0.3218805185264392 0.17830523290422842 0.4098947790538941
P 8.76205879224894 1.908323438580941 4.593594944441315 -0.12960931036042195 -1.0421393308267406 0.15290273367072377
P 3.2171877167310594 2.2780182109271427 8.025908996994787 -0.3216434628149687 -0.7977122665927746 0.7134428178197326
P 5.794774942551695 8.327036871785076 12.256390512256303 0.43807021304684557 -1.351673154862369 -1.1152208813037632
Ni 0.7444340483490176 2.9939652186194583 8.775678401612122 0.8074114961584093 -2.011111750551504 -1.4783627204728345
Ni 3.2322074557013702 1.5947623027774154 5.709821206998851 0.6655591067645764 -0.6919280836764083 -0.034083314836954204
Ni 4.888562615966689 0.11587586400595358 0.4916987265526873 -2.3940675391227093 -0.5923615995349798 -0.12367906091891602
Ni 0.21115349100008815 3.9001867203657175 4.51627219050216 -0.7173110425258873 1.4618073872173147 -1.2900145015103075
Ni 2.1628882875310156 0.813420250774169 9.738386783609279 0.32562918693559406 0.5118264209933895 -0.11002033248490085
Ni 4.472643381230489 0.154758362361716 8.181132540032003 0.11148740394873059 1.00449606655267 -1.18793887779378
Ni 7.20030871965795 0.3850815177666119 3.9402986903293127 0.2878666234748397 0.8338023274471124 0.43936836303297877
Ni 3.3366758417221147 7.800639520407757 12.247863117388249 1.0538118820686624 0.8088034914099296 3.0370626445438407
Ni 8.784923294090122 0.6198032454759471 10.60400636178106 0.2826675957724035 0.2228367396577001 0.1750458454266663
Ni 1.4719619445742145 2.0417027577082516 11.63330806414872 0.2535871334666794 -0.9940440179814106 1.6695340107064538
Ni 7.568764845235067 8.547965579583556 1.431588482514924 -0.1448819202487763 0.8707673347072359 2.5417064532913325
Ni 7.512144925146009 3.0148295353075993 10.223272952931998 0.2291030322823861 -0.8789827806384927 -0.3109929250796579
Ni 3.3817442337943 3.8806803275429442 6.516098594737964 1.824394639434497 0.22696053201808652 0.2907066640267961
Ni 0.6336109456448052 4.595682293626254 13.165370067475058 0.27760380809625096 0.59587681177709 0.8769145852555542
Ni 4.3638167936148164 0.11052490996350689 10.478017635042622 0.5685033048601436 -0.211341594533907 1.0339434252795097
Ni 0.7197143289025844 0.3300406429291059 2.5738263272232436 -0.9506383973022661 -2.551321607783593 0.6947922925980808
Ni 6.779480773651673 0.17516850856785915 9.283057478745299 -0.2768124225432071 0.523806219063085 0.7016142006159206
Ni 2.6272615488415654 3.5431261450641816 10.369620444973567 3.2412863970860433 -3.2369260632348187 -2.4726782469480773
Ni 8.86365535279766 8.954746353712286 5.565851916753928 1.4931172530741899 -0.551253002420128 -0.4142833950398929
Ni 3.442300298060672 1.5982029882470956 1.8392051138337535 1.5637156321180425 0.3917921559159124 -0.6060568376338853
Ni 2.2809359122054316 3.976349733922559 1.7470699795685938 0.5021945543305802 2.1826565248034475 -1.1542869940672895
Ni 6.663717764129125 0.10955417790299443 6.956025556407405 -2.9186525453333476 0.963554848253618 -1.052272819716317
Ni 5.0382186711559 6.20339074893092 11.942573389453834 1.107124477448874 -0.37965706321527515 0.3952011815974613
Ni 2.649346161976286 8.054571283231411 1.6869901061712254 -0.3190474199530183 0.9816474440892707 -0.26679926128157927
P 3.6110682141388004 3.476734678241232 3.3963254000567424 0.3928164834153686 -0.0757135887832309 -0.7707897311703178
P 8.514485416173255 8.945433565041018 7.8334214540467455 1.3222785037503357 -1.6460778365660422 1.651696982525033
P 2.0782015491706196 8.893181021708141 5.576688699709233 -0.006354224352801961 -0.5656825475818967 0.20151072448641424
P 7.097308359437602 3.448713735776156 7.990604811527493 0.0716000808354896 -1.625190451594072 0.7983362733300187
P 5.602848919472305 1.8532265952597946 10.911444912480803 0.13230048403933986 -1.557262677403847 -0.5548273500349478
P 0.8054837362907733 6.855029051404599 0.8400612489868718 -0.017872509405046637 0.05575257228027172 -1.2103313865563672
P 6.978389094444201 5.083617369033174 4.307024380494211 0.3400759584885434 0.6800591001529642 0.7136688177876096
P 5.060807918159507 7.13384385154498 6.85418126650487 -0.1537591681337481 0.6569878201557976 0.9827208796591075
Ni 7.7530754844748975 7.359782197387315 13.11960528066381 0.5420862483191955 -1.095047748789998 -1.796562704823893
Ni 8.278289240050647 1.584293443788335 1.8036192509160076 -2.2552516225623545 1.7029609229063316 -0.12208292007638975
Ni 7.665893102253827 7.530357620232183 10.678643546021615 -0.5270211264559568 0.23483196434636328 0.6770761062652404
Ni 4.527336517456526 3.40168185919594 0.7291344669605063 0.49810932851761314 1.14957699018613 -0.3205597428324866
Ni 7.706309687571005 3.315031636327513 0.1257281521588673 -0.46101139522405116 0.15990487602016976 0.9806472849595305
Ni 3.160650373093274 6.124612814417121 0.6464359860435227 -0.23587506089889698 -1.869753270074954 -0.6462637488700741
Ni 0.7235018354676085 5.6831682810765205 2.7661670675912453 0.3176795930712142 -0.6257807984253739 -0.9721729289399321
Ni 5.551706570650977 6.984921809255967 0.8749910878750655 0.4420217414954259 0.022297120835303535 -0.5789952055304028
Ni 0.17330778586585607 0.24635858472585634 13.191543132463886 -0.11655761938278637 0.060964969719146625 -0.015442816917631467
Ni 3.741107774570209 1.786036889407879 12.22637672476719 0.3702938768328204 0.5388024353616011 0.5637688754989517
Ni 3.3300880759428337 7.385252445024202 8.488597698699381 -2.0913237414257204 0.4750244216736916 0.7289553116330348
Ni 1.467695494591811 0.6973425332206609 7.534670863536974 0.25235711771432023 -0.7927780625159507 -0.7508523688164424
Ni 1.7816419871679408 2.414599661331569 3.3085411272575085 -1.839702730546477 0.36972463459291166 2.999432750006209
Ni 5.660276253751582 5.1491830713434 2.5816013588685958 -1.4920350757536047 -0.20378769344604905 -0.38464834578227947
Ni 8.428339827173714 1.626251456195929 6.975980614615425 -0.2064505849901928 3.1823919367426807 -0.037922228967070176
Ni 0.7173810853960786 7.138293804752433 7.087747841412518 -0.05276880706159944 0.5228109450293512 0.5488726751134095
Ni 7.238358113371987 3.5208763790269164 5.757869691445842 1.2115912271053975 -0.8568556097221502 0.16437062510100725
Ni 5.755092370134716 3.6961494844330534 11.909793290847096 -0.25324029165022194 0.7935817893641688 -0.07168389879854752
Ni 2.711581280751862 0.4026216735329792 3.5153446743077956 1.7576714270753342 -1.637989146020637 2.8257891842437077
Ni 1.258318314810203 2.802360326183906 6.19026292821087 -0.42576259932408606 -0.3661929672905694 1.0316124631534878
Ni 1.7060937094150153 7.355167091277318 4.029344547800762 1.8100674241785473 2.1157150257858914 -0.06067649194445034
Ni 4.874873275377987 5.7425866253475855 5.157509530180027 0.6642319033127205 0.1280296245781279 0.08919362554753671
Ni 7.799767880088771 5.527493320105682 1.4911316089790225 0.7201415699961469 0.2379982778894869 -0.48529186503797067
Ni 8.732588174305972 4.80494019631158 7.839840396858981 0.7616756846841914 0.15529823048609384 -0.6919525091564406
P 8.62909235537799 2.2906524079718085 11.99150727696169 -0.4440372292635578 -0.4663567186963646 -0.18116712783305575
P 5.308931803910341 1.2215809691552708 5.194116588545174 1.0637111434602455 -0.5357189113402709 -0.7247613281563453
P 8.963444406579638 5.840109414300202 10.022741546113906 -0.4523843156766726 0.725576367858473 -0.7107830115993823
P 4.2038570323390685 5.140457492992292 10.27048925025339 0.8834217902464527 0.3594253095494326 -0.05518512981257592
P 1.708167295858076 4.977029520763106 6.22086667856852 -3.2307831835618743 0.4452425624255687 -0.08327674584246948
P 2.3709809447372763 0.5380507236840942 13.559034948593366 0.7081535443963353 -0.9812946887355422 -0.9573911426450672
P 4.483506772153426 7.212704362510052 2.7013729963423523 -0.281722715360631 -0.19981251084838492 0.3119555461032434
P 6.182040148696398 4.986911169432028 0.17789903655659736 -0.7377202023098585 0.40534495489968253 0.1132969463536436
