# total energy = -340872.5030484862 ev
CRYSTAL
PRIMVEC
9.23878094113340 0.00000000000000 0.00000000000000
0.00000000000000 9.23878094113340 0.00000000000000
0.00000000000000 0.00000000000000 13.52188977763806
PRIMCOORD
 96 1
Ni 6.177021295811466 6.780600100796621 12.093167131024352 -0.7858268280090982 2.656907558646224 1.4194296935820523
Ni 3.6640913269092317 1.9174166197765046 5.707900938639945 -0.06854252495608841 0.4531695305821293 2.765796091519527
Ni 0.8349548376809367 8.332659885044158 5.2395021302686775 -0.18347597847189046 -0.4929786921592671 -1.0289446865133376
Ni 6.150395128816207 2.7529627394448446 11.292279374598904 -0.42482311822895225 0.9136790464690975 0.2340603762876614
Ni 5.715183869744165 2.995369876718122 2.838487983410322 1.304727896461082 -0.15841980683421103 -1.1764524744207352
Ni 3.2786216650274977 0.5629327877416984 13.159841684056252 2.256882216187242 -0.5949221611733044 -1.965645133578273
Ni 6.801553656225226 3.2281779204771475 0.6619605102163945 -1.0034923078785039 -0.6166865494335896 -0.12117403510887516
Ni 4.272465059260985 7.784643109312816 9.071362330078774 -0.7982578546835994 -0.2016099690684399 -0.146982768641863
Ni 5.077227560460138 6.011684070083797 10.341879500511775 -0.7883966456188035 -0.6689218525892221 -0.34783554782930415
Ni 7.267040400808533 3.1313093011345785 4.885391662915744 -0.5746109604197781 0.9424388922106092 -1.2983168507284155
Ni 2.9459423980836212 5.083740901102627 8.06122357382369 -0.7484077639306917 1.1247532462742307 0.7376422978840714
Ni 7.648759117582677 5.099234336928807 10.91991307588489 -0.2935952984285008 1.130074401376828 0.01582128330297275
Ni 1.4009410425607103 8.86480443492614 0.6393864725910601 -1.0843879550833069 -0.12298332040347207 -1.8144673530184556
Ni 1.7373712546121771 6.14650560199282 5.9672372183150655 -0.027635245218765314 -0.4202992622166697 -0.4240595005900503
Ni 1.3801075912857945 3.5237450039304092 9.851373212958357 0.5576393655624461 0.3808801369890989 0.5398360188324379
Ni 7.5762254475341795 5.313915892261496 13.474739069107077 0.9117435200092815 0.45718585083037394 -0.9940165071775848
Ni 6.8148205458175894 0.2510102901899962 11.919208274817858 -0.4277906854977084 -1.2437176753262966 -0.7737004770592095
Ni 5.14692492472531 7.076518257929902 4.084570425713878 1.7703965879514867 0.5432417020798773 -0.7193915792039998
Ni 5.286753875965155 5.648221184670733 8.083750493665654 1.3241597799334486 -0.12417271272588293 0.8330991307325006
Ni 7.058299381693036 3.82468905795662 7.192144374444738 0.4121987445967224 1.4769380722111662 1.679938236758913
Ni 2.3257615035459067 4.80885944842743 0.7393630178799174 1.9247746206161558 0.32495504368670486 1.1980471698723754
Ni 9.282110936317128 6.986532530471951 7.3712824913096435 -0.3332252541152971 0.8106893955787328 -0.0986084911035334
Ni 6.754722275066669 1.1820558418488238 9.630911876198798 0.05469970553572515 -0.48819489761737855 -1.4999638436823781
Ni 8.160356618402393 3.1950753679636117 9.8146878611524 -0.7063347460200416 -0.4386183722408317 -0.3229606389644954
P 4.005362660232564 4.091227891340798 1.9769005115873892 -0.3529247894267535 -0.49239685151386803 -1.1726539266102514
P 1.5748980510109938 1.177953823061213 4.899089079705186 -0.06162780011412613 0.6186639848749346 -1.1352726577483157
P 2.221945320851349 5.689232133765788 10.302355071288174 1.8289624613108373 -0.40200997698917856 -0.11393046617258443
P 0.276629430050458 2.2561380495291594 8.512070545950133 0.5027727954315535 -0.6518823806084322 -2.324095737919262
P 5.515774019492377 1.8981445224995759 4.558702821606748 -0.09203495165107375 -2.066902632268879 1.1898443223466089
P 8.202633280501734 8.62508578293934 6.450401446565521 0.20999510780834157 1.7198993505328832 -1.517423176809406
P 8.719395259930177 9.17687198134038 10.660319958096492 -0.24237506680094387 0.5161214488243175 0.6180381783654776
P 8.386734470548408 1.3416835008856285 1.9782114946188352 -0.47715458064281696 0.32730837441022986 -0.399039581506945
Ni 2.0393223357731847 4.941528344351062 3.1502081516569596 -0.7388756560705404 -0.19238716491859126 1.0316795689459974
Ni 5.979607022267165 9.008190316871461 5.265681140260962 -0.025965313715510124 0.8230214347815246 0.733706196054459
Ni 1.3181430867621315 8.668387949735584 9.281019836274746 1.4876816838809153 0.8531830459665692 1.7345646658545417
Ni 8.266251526833917 7.364564973605877 11.684684589417259 2.1665508774908364 0.09825265042601143 0.6311685450998484
Ni 1.7576226626807427 1.055539974106608 2.4019611219163064 -0.6407099089313805 0.7505474359815139 1.3026897829851307
Ni 2.3906547016634274 2.682784958564907 7.606427946675122 -0.18498495891724914 0.24227993598397626 0.37130046372046377
Ni 4.660881892298683 3.934076225626244 6.663087425190726 -0.15256154828122112 -0.9146123569166442 -0.6568399817240236
Ni 3.92147452826971 3.841013984077585 10.07782405147469 -0.12481883095031407 -0.731588635490824 -0.3420477375029335
Ni 3.3066613655238917 7.12555770776017 0.04713718481141806 -1.180251536451851 0.12645019590614998 -1.5566548686165191
Ni 3.778726122217061 0.743583293065009 8.28165719424009 -0.17387316527480376 0.7861870395619944 0.11137556096121465
Ni 4.138641315705705 6.279091348886974 6.055426926736278 -1.0519684011020207 0.3400836717980272 0.6560095154029282
Ni 4.4777692518247 3.2091367927265484 13.295101134187194 0.1108112038173124 0.4545265588306559 0.2503236322240592
Ni 0.36460664650744823 6.337369579770419 9.515813294082099 -0.43181523327606924 -0.07960418208688871 1.6168719044260478
Ni 1.6010992340778059 6.986661873406696 1.8757164576148817 -0.691141583219371 -0.5421507830085438 0.28419020306451703
Ni 6.75839007114478 7.063620919579666 6.703639206867439 -0.9794722908148228 -0.2581040475004265 1.130294230697118
Ni 2.274661805540781 7.913995282838356 11.248170662216717 0.136623536894726 -1.4546046988212884 0.7959973407841968
Ni 0.6161149069962106 4.358330290369219 7.451250608471633 -0.45209558079166007 -0.1270819159528779 0.6156105427605914
Ni 1.317533327212622 5.672417552249006 12.397017705569894 -1.7018093258003917 -0.10959352936012738 -1.8945469320798665
Ni 1.253443903046728 0.8159044711492843 11.77062927404255 -0.6291702837228971 0.5672604335919779 -0.1141829485030227
Ni 5.112381122367478 8.366778703473543 0.6454563517429979 1.2318222094402915 0.7899400788465234 0.20214193031250996
Ni 6.061795218516233 1.732835013115067 6.856139146321717 -0.4836964955263928 -0.7755079625815935 0.42636757989793667
Ni 1.512952024049437 0.45022243052724614 6.908441733619966 -0.1824537078549632 1.0086764231826049 2.0861098013249495
Ni 0.7187087989574333 3.1444560865732507 4.3067492518712225 -0.0691711596790228 -0.14434481679838365 0.5692329839373164
Ni 2.203550907774472 3.2801275863391655 12.258161597974947 -0.6848310676203109 -1.3283463072109705 -0.5088290289279623
P 2.2358589251174346 7.635325929931358 7.822521187752739 1.5232307846301185 -1.248642880542056 -2.1601956246967697
P 5.559796811210769 1.2849296688759577 13.296939651616777 -0.26622230573218664 0.27718934626665165 0.44604037573651567
P -0.015765055989142466 3.785535103853253 11.72723749107009 -0.35306722854188877 -0.552100695132404 0.12225698376040879
P 3.1964427075594815 8.513398158787474 2.054421275648393 0.9096848377080398 0.7090673144598563 -0.07758972276002121
P 1.82012301650549 1.8232826796256767 0.3404971234710756 -1.1289875960705524 1.3386883125669267 0.39668805055563294
P 2.6009201196526988 4.135740338455007 5.735215394823665 -0.16025994536674334 -0.4984553990031222 0.10857511539794204
P 7.736315045623642 5.690710338734298 8.505336398440472 -0.4572467859752964 -0.46132249870656683 -0.34071282074159387
P 4.396782097112545 7.985300195006782 11.532130141154767 0.4334322000542019 -0.25376736779828557 0.15812001620560512
Ni 8.010023173105086 8.840312426354167 0.34293523779100926 0.06593491212991226 -0.11327509197677267 0.5945768620187437
Ni 8.907820199509738 5.651122161921431 1.7936649953253996 -0.01354148612986055 0.9988800059174734 1.576653166115317
Ni 3.4870947594924533 5.181034504373641 12.141021245245497 2.1355796259203026 0.8603862485832279 -0.4951165644378764
Ni 3.8654782763064 6.343005236212857 2.213614711975698 0.6910413101960808 -0.7398560177059387 -0.2110906548653655
Ni 3.109588926878558 2.7164141215984734 3.621162406867536 -0.4365265227088095 1.3549250861407633 -0.35315670293190143
Ni 0.3651665166392708 3.8827178417516293 0.3932662692125108 -1.4628126885533774 -1.945018715577173 -0.3449263446023092
Ni 4.577187774737945 4.613431512809562 3.9963539248276096 -1.3885967673615955 0.8921054340633797 1.0936153872188457
Ni 3.581043924022217 8.598912316215687 6.185168976822263 -0.05128785164069877 -0.677537362172375 0.5032484495163914
Ni 8.051542255158067 2.027478218463011 12.727140601796355 1.6723923060908554 -0.0564925357700898 -0.5424235770539562
Ni 2.857305532659434 7.251260562769706 3.9416039844283732 -1.3559836093122646 0.9448292468196566 2.0036082430856075
Ni 4.102453010320408 1.6346267705197877 1.6716705870306092 0.2026857186311219 -0.809307941850174 -0.3309883943649784
Ni 4.718929153655798 0.7799933291955825 10.724900885414417 -0.9115159773795075 -0.1632678789551317 0.597244638658894
Ni 8.67503987209387 2.2302417462371023 6.363347184335743 1.399886481342802 -0.933128927663593 1.526148729607862
Ni 8.38606927831258 0.760076365001142 4.422888120734509 -0.31408467663110423 0.6006986586457654 0.21935083799162866
Ni 6.998201110942114 5.247073311341756 3.4024721444358716 -0.1392362919272247 -0.5136860999099476 0.7263597829917168
Ni 7.742440357461899 7.412394143118179 4.470526047479009 0.378445045185045 0.19490890289918045 -0.7841527827407849
Ni 9.063623003190527 8.698543331093155 2.525753397004045 0.06081995950085009 -1.6041248891730244 0.6675416844122438
Ni 5.913762229701167 9.205937186533676 2.7504063687274303 0.8868069046686018 0.006868959205691396 0.5253151995084437
Ni 3.6675004371178543 0.40110075554560554 4.117212886930965 0.32227389731011596 -1.5751202744105581 -2.7416179516114267
Ni 6.963897516891666 7.652001929732343 9.63583429874393 -0.21071527380381774 -0.13892827376850267 -0.7121737212993219
Ni 8.227790481309539 3.4515716463429844 2.4585098529865963 0.6586850053525624 -1.2126662053371309 0.7469298938335845
Ni 5.365412857851909 5.721299942801369 0.6831598172210162 0.4162191786100251 -0.8838599062251359 -0.36424612797684364
Ni 8.651176100633513 0.17093777480210487 8.535300537030242 -1.5930622036009596 0.8827332488198604 -2.1453354197554857
Ni 8.422747239093693 5.349706930061508 5.850597607518696 -0.5432129057244709 -0.27487278231833306 -1.6227769570565729
P 0.5289959732990607 6.633694243270041 3.915925716369171 0.3127608156133581 -1.0214923440003505 -0.6407441046034255
P 2.761139060676907 1.740540156513417 10.391653433435769 0.04453022120189105 0.18187083876829968 -0.7004055250198002
P 5.739851415156149 4.762101977517298 12.137991848938162 -0.4679513168769941 -1.6148723574975155 0.275236593415655
P 5.924479215722853 5.430740278678929 5.401724962903319 2.7348554360766126 -0.7295260965348405 0.6144540605586449
P 5.820376630815647 8.884298262948347 7.948478109241237 -0.247921964761102 0.5600469465626742 -0.1335382131011829
P 5.690045146498468 3.0907972462163946 8.916888986991536 0.38883153062569165 -0.3305320235538501 -0.425336567530261
P 0.24611373623181199 6.986634157063537 0.008718637679883817 -1.1832939228226007 1.5255895146702823 1.6130047081611574
P 6.630913370173034 6.907799638336771 2.1749014477285677 -0.6904242454373721 1.6283950745742986 -0.7015913177977852
