# total energy = -340858.24017346924 ev
CRYSTAL
PRIMVEC
9.32237447908826 0.00000000000000 0.00000000000000

0.00000000000000 9.32237447908826 0.00000000000000

0.00000000000000 0.00000000000000 13.64423737020328

PRIMCOORD
 96 1
Ni 7.445612828297756 2.1677317768073867 7.70382302904963 -1.0734175721147319 0.7927646927795121 2.071373266445723
Ni 2.6007747239378936 2.3171228305352427 6.952161825688239 -1.0999017344481896 0.1234887992849809 -0.2627166065717733
Ni 8.188829824703348 0.12075924447266953 11.04480548685687 -0.29785947302149346 0.13245732133217833 -0.967175732835657
Ni 2.8171283947594903 5.000689563718508 6.547200667708711 -0.8172529077288635 -0.44523227801292353 -1.7206987065057269
Ni 3.3039800883559676 3.402331140888191 13.441797762185459 0.1141199564755712 -0.4869044609407292 0.7007801347503996
Ni 5.789492972150884 6.0857300713277995 7.835980741003926 0.8786847897820996 1.5740540379295729 0.17455733582602193
Ni 9.183797548467489 5.999535395336053 3.842326715030881 -1.2250751205244448 3.826491073861268 -6.730991238953634
Ni 5.818149951817619 8.533822943287234 11.228921453909585 0.3737856920361627 0.6506346242442601 -0.8784927283759515
Ni 2.3241239338955935 6.556668471400817 2.189613254580243 -0.022510265287374136 -1.1020344645204763 -2.071417489420097
Ni 7.7754011538314 9.07977849214952 0.70191794447924 0.21311822681835554 0.7836259637030375 0.7689657905877014
Ni 6.01880474373265 0.6661703666555373 9.015907174488927 0.7781903945097629 -1.3158306912424629 -1.3080790723215021
Ni 7.739416787691647 4.123071892018409 13.511083515041383 -0.30175700830368674 -0.05819383473191268 -1.0980160873897025
Ni 6.135231880706578 5.343659727003865 0.849663599081794 -1.0921719699040995 0.4640584095804911 0.7166063031493787
Ni 7.679632399076563 1.242542027280563 4.816142902957072 0.09204677872561567 -0.611258950660115 0.37003908050953693
Ni 9.226242320238029 0.49708579648461754 3.0473584202440454 -1.373499506708841 1.0407491353474334 -0.4216192665796739
Ni 6.368487016764281 3.124226060400865 4.098401159750989 -1.7756868898161484 0.1316394534165733 1.4529051996316784
Ni 6.908867785587302 3.005990382745302 1.8043279005319477 -0.9886644988370523 -0.20841002270940878 -0.05957683112236836
Ni 4.656199853365593 8.013084417846715 5.747498471075821 -0.5549638756128119 -0.8414130499148348 1.1508584280017147
Ni 8.587799492496861 3.2176269319952104 3.7542395969856694 1.8205986627271742 -0.2669082760556178 0.2616876510866267
Ni 8.059798837205859 1.8269523715642182 12.534047378911911 -0.7858173149274015 1.0213769014684086 0.791768904525146
Ni 9.189083334892679 4.205267269286335 9.557079412919528 0.006511061645640399 0.21161927367532588 -0.6820697028250898
Ni 0.6275058178045992 3.1221564932290966 13.3186044456923 0.6771496398156532 1.1630562556194872 0.5917265370541422
Ni 0.46836262795788447 7.502199642408714 5.73044318665803 -0.7629514660728215 1.5638719551902487 -3.0477682038868026
Ni 0.1837673102408963 0.18734989881797057 12.880515297165045 1.8491217098675314 -0.46377970199780777 1.1658255908345083
P 3.7147425600787005 5.079379728118934 1.070727865812825 -0.30065683326097253 0.6577460384780608 -0.7796664648346573
P 3.826023746247151 5.381070416464699 4.310910283267914 -1.2357552259461104 -0.5198500626288143 -1.315990870969411
P 2.5342782255765335 8.05391641880322 6.096982177527458 0.4490454811114266 0.4095186266613979 1.8643711798274343
P 4.9578625745874145 1.160505130381647 3.330845307615433 -0.019969244033075283 1.8274041156847818 0.1606486961647298
P 7.973455003219749 7.407018197256675 12.93423268435947 0.351414266319498 0.18213566239391216 -0.6081283754509333
P 2.044005220484385 1.7175543050745836 12.59824311521024 1.453510694426161 -1.4821183308605248 2.6616173054170678
P 8.036138650350239 2.3937807172624916 10.209709962636886 -0.35328422964870126 -1.1195956133326912 -0.8021240225072249
P 6.170190785635094 8.290937794218555 7.528753494354949 -0.9854837871162253 -0.02566989396227837 -0.12938022506875138
Ni 4.479988327776581 2.8030516090416078 8.395559075938758 2.799582443941353 0.04175651511149583 -3.546529821276434
Ni 2.077631025838293 6.801408773024368 4.332673366882746 1.5433090434372325 -0.6373145100965864 1.4063602619926037
Ni 7.672892322206344 4.718389414639761 6.86198742795943 0.1764964618302638 -2.4866218536123625 1.3534814117157015
Ni 1.4955419528418916 0.645681651655033 1.218184526801303 -0.23024203098283572 -0.5803483771241876 -0.2876123413721885
Ni 3.4854494332462296 8.654575662097649 3.0413687945329593 3.002410344577294 1.2721257941553445 -0.28965405439256564
Ni 2.4353118963175677 3.865848930741716 11.317580965758161 0.06543380412377764 0.5488801313125773 -0.508724385029298
Ni 8.220553865629144 6.879353147452987 7.139688849624514 -2.588650426141039 -0.3447042012891741 1.178859284090015
Ni 0.7762610855814887 7.5738980258234365 11.785332978176626 -0.8178067233498045 -1.772894928893308 0.6818244195835033
Ni 1.9199337362994215 2.560054591477159 2.257589213798178 0.28053435147948463 1.67224523899003 0.6967337325951678
Ni 2.1346280244337446 6.096655894414792 10.183130940279101 -1.2615127945261888 0.28187595310904356 0.10346607630615086
Ni 5.800661176978713 1.0820759924713534 6.471721129136919 -0.7573510891669086 -0.3391938129939062 -0.3866116401562374
Ni 8.199970062407234 9.16125604656958 7.309832441555402 -1.742192871823761 1.8850202235363536 -1.0307238899009474
Ni 4.098796428436048 1.3648888721557197 0.940374965590306 0.00248085744032476 -0.7180615475386666 1.6582959758987892
Ni 6.130896976495442 0.5917256116696298 13.094865589674873 -0.9708822351529667 0.776872704139604 0.47638993456265055
Ni 1.0953324092202466 6.866106053078742 7.574338974144268 2.45897580976032 -1.6989551441810482 4.216345132214204
Ni 2.8040491031289014 8.82173516190384 13.258188000076109 -0.047946703082607754 -0.9306868938810037 -0.05094666625119613
Ni 2.389044950941509 4.341047656028688 8.744755653251248 -0.3401224954557626 0.7402954192362026 -0.33438944962672734
Ni 3.768877589657338 2.040005921760563 4.889849325870889 0.5895570402066491 0.07899868729240588 -0.016014373150385324
Ni 9.117067990739937 2.238581824129178 6.3768118973245915 2.0527291689819744 -0.3630117413491103 -2.5207841013163685
Ni 5.471665253290117 2.115563768279394 10.605897833835554 0.9217116869655868 1.819678979126382 0.7649137320055149
Ni 7.464994045190124 8.005617195753983 9.407238088496193 0.2584614308398452 -1.3311634649447912 -0.5592416770525593
Ni 4.751539778886641 5.053827099209852 12.425602991348725 1.4142296374383516 -0.5898470606432422 -0.5873947424480077
Ni 3.591808405600745 6.847032474549744 7.609199994138984 0.4642054766813167 -0.9127696472809506 -0.7532594355960381
Ni 4.382476288962641 7.086309864629799 0.9772356349469327 0.21731683828073542 1.414932319932331 -0.82378813774422
P 1.0091657003524415 3.7883054184229445 7.103312943749564 -0.22429995446678788 0.8696368206472184 1.3301612489325223
P 0.7327871236498517 7.834505009097209 9.630689815374474 0.13140291192573497 0.4816925777224865 -0.5401494363077989
P 4.052613384431817 0.6339345273615871 9.945380555166325 -0.3601053663355927 -1.7910739137951799 0.03712184455296188
P 0.3937631215528267 5.64553686284258 0.03450304080824762 0.49211557282802343 0.8019988097832704 1.0988478392623784
P 5.7312094858540625 9.129457426646603 1.863407517623674 0.5099893677846508 -1.8263792739646931 -0.9394823806854465
P 8.781742174665618 2.1190223692736554 1.1996665618013023 0.4808541409815912 -1.220664650161575 0.4277706308930504
P 7.688880194726986 5.847440852960391 9.286432232150286 0.20784103757981626 -0.4184835491641696 -0.21206433163254446
P 5.949819171340379 3.352540337895338 6.6064303750322635 0.3463106265443455 -2.293478527254037 0.7394089028661911
Ni 5.068724253896724 4.9968301006144005 5.858290232575272 1.0226683665863225 1.340002146282344 0.2136033939848902
Ni 0.8275388073306352 2.0758970641538386 11.074809549660182 -2.9799700132959064 2.3641373272221795 -2.2703733086951416
Ni 0.24649943371955393 5.040356267844063 5.4836603527491885 1.5707290873213982 -3.2809993994049496 5.071678905975188
Ni 0.2509890893498401 7.650453366429562 1.322892506605728 0.6748747277385474 -0.5641517127596671 -0.5554385012563854
Ni 5.066086021871452 6.863654268546422 3.3865819211585286 0.8026780952384822 -0.5724221802985755 -0.1715954249842206
Ni 2.7123542260950675 5.974383628536817 12.543215934377827 -1.9011760073606097 0.9607194356873519 1.1665177318055264
Ni 4.461604604971505 6.853828485667846 10.04109430791074 2.0988948689047597 -2.5649602816129504 1.2427242010647759
Ni 6.327328732695109 4.139376725277068 9.036128337337043 0.8477603322891013 -0.35651302099864407 1.0032390542171172
Ni 7.576955764707851 7.803619981889697 2.640433037926266 -0.6803280375436348 -0.6723136518795905 1.3532921785230305
Ni 1.5584400145892763 0.2817669092489051 4.881526309785509 0.1602686871174917 -0.5667438989668755 1.3250727786660212
Ni 2.855266229442839 2.3160227903268256 9.563587362661021 -3.4501103674044193 -2.4368170142750936 2.15854857601165
Ni 4.079666915659164 1.2463455561367858 12.207949781501252 -0.5171360061317609 -0.259170798202044 -1.1004390950088985
Ni 3.602641004941261 0.32210295987415866 7.677858351181124 0.9737952950347035 0.3651467854142421 -1.0403351877384663
Ni 0.33869585450942924 1.911422408246159 8.639203998541214 0.42448630371482376 0.7797772793809087 0.7906923836315156
Ni 8.855044006519728 4.395676771463648 1.6483599114902068 1.8384930265090917 1.1143947858580423 2.494238489617356
Ni 3.0003037342102634 8.11096002927191 9.210024185063592 -2.8702047342446053 2.4683935035297937 1.7126879203861085
Ni 1.7860737587344742 0.12547077261956865 10.986776501387927 1.725715442994028 -1.0527237912108063 -1.446473842184038
Ni 6.994903981210039 3.6703867015054 11.560407383866558 -1.209029122805176 0.5817462859129787 -1.7933886779712855
Ni 7.275544747601514 5.949017447120686 5.016453699247607 -1.7217060647243188 1.029495416810485 -0.7319321348731718
Ni 9.29098621216564 5.06504191591092 11.761155399528064 -0.002891462615182117 0.0030367299437947704 -1.070122703413544
Ni 1.0064901788285792 0.009148046241693927 7.562946100087431 2.496421613311604 -0.5400041689791861 0.11382093717791365
Ni 6.0711498773789465 8.909337516467374 4.393567118080896 0.42007866156543133 0.28982708963532017 -1.8172755118912123
Ni 6.798192553770946 6.056420525435733 11.367286935141719 0.4584698597491201 1.186225751757415 -0.09807678696977948
Ni 4.64138660005055 3.934731957012863 2.5927323113294056 -0.34231204690791367 -0.24379123042218012 0.58384816274733
P 1.1636747377618324 4.477089069261176 3.227284912130129 0.5013453189564075 -0.24337831125447762 -0.22931951916856633
P 1.6526985446512017 2.289360798834678 4.4857616743958415 -0.7051358406159339 1.3337530800488384 -0.27304729907382
P 4.3414205510145925 4.235462440769924 10.028309603319014 -0.26671364354630844 0.7117574596975096 1.137356793970854
P 5.518752567635165 2.7840992213830287 0.02819458988421391 0.5778250964817016 0.522806574153977 -1.006457304044099
P 6.9193181675672655 5.473995846952017 2.87088400368997 0.396568237148317 -0.4718923038026131 0.15017659298881234
P 4.274653703788451 7.523398722357365 12.215631418210878 -0.31960714911123017 -0.9219615981928637 0.8561711820606158
P 7.981807850904003 8.230482194628843 5.052993678916356 -0.3587578511687628 0.5264904507634675 -0.6604618947473271
P 1.5328594185562507 8.518646117360934 3.050306155107618 -2.7314497528291737 -0.8697167819555344 -1.9113611754237276
