# total energy = -381166.44839924684 ev
CRYSTAL
PRIMVEC
9.25307547854236 0.00000000000000 0.00000000000000

0.00000000000000 9.25307547854236 0.00000000000000

0.00000000000000 0.00000000000000 13.54281127805777

PRIMCOORD
 96 1
Ni 6.231039337702281 3.2491433276400348 11.678155369560598 0.5100991538896376 -0.7138382534859383 0.3186033904370642
Ni 3.959131786809886 4.814282489527979 7.752230093677635 -1.6069412755758972 0.5669830115608752 0.5096324986658642
Ni 3.4621861307669297 3.4240079425415315 12.672346481282599 0.5139318973721665 -0.1889213178571779 -0.17094185056062175
Ni 7.4749117290653055 1.0363721802736978 1.965901877274927 -0.11227313307481955 -0.8282528583837928 -0.2564590556978357
Ni 1.1184191979650713 2.714620933258896 13.275651610073213 0.10968043264697884 -1.729856718855911 -0.7383724911818768
Ni 0.2768529349303775 0.5879080116778997 12.038759738631965 0.9271629398881451 -1.3030538511927687 -0.39852356110247494
Ni 1.6005784398577154 3.756452427893472 11.22100441397837 -0.050261210148397316 3.4700410448900754 1.186577478669879
Ni 6.184912757890452 3.0850863045580397 2.785120113115733 0.7890723315295893 0.06268426640309849 -0.7636819164809429
Ni 9.133266370396454 8.319162309212018 2.5385053025919913 -0.19518863892312835 2.562291990752168 0.18793247158134732
Ni 4.685775781318011 3.5383944580147197 4.634254658671618 -1.0081208077894508 0.29860766404142763 -0.949652379239913
Ni 7.975475337506742 8.341018072805907 0.1904727021284967 -1.9886683339463236 0.7878646843747333 -0.6969106244926643
Ni 7.947040637454234 8.66835486065411 7.702026608938003 0.7130633229931268 -0.2207096660123683 0.7259615191120335
Ni 4.106107633094962 9.069605213103497 7.255412130072273 -0.6952640900281768 -1.9919421196015885 -1.9277043926684412
Ni 8.65342965037598 6.583044824001506 8.776351202402514 -2.3948329565338238 0.2693891334959425 -1.6938527899574762
Ni 8.172565839009646 2.00894440712662 3.904392444613131 0.0006435471212698595 0.13423035407220107 1.3444280432641813
Ni 0.8589472394677009 4.492293979138399 5.229651184099109 0.894837231172246 0.6499201146757387 0.34818521785923906
Ni 2.982432688423147 3.4740208139322917 6.326185933937208 -2.249881873610009 0.6313860604272933 -1.6484468510188512
Ni 4.829818402768513 8.25724998312958 2.613572725669109 -0.18352431521132262 -1.823375197031047 -0.8366302838142107
Ni 2.372692045839327 0.940963722010954 8.339188739841253 -0.30283070098383974 0.9990885223838535 1.4601330848386853
Ni 4.3274504446654305 2.201010488802478 7.538835673693598 -0.03697220634897504 -0.7170621597398746 1.6542133211889833
Ni 8.608570741864897 4.435766942815336 6.853326224933416 -1.6702492916059233 -2.084830677502209 1.2957886849899232
Ni 2.7239757922738925 6.207860384356517 11.767524345648178 -2.214057407712232 -2.270867988943373 1.3216925493398786
Ni 6.358398664588948 8.31673800351278 6.378203021413674 -2.4652120204780186 -0.8541135282006388 -1.4230469786196653
Ni 2.9710791651675574 5.733085096463841 4.6504660464008705 0.3534878610190751 -0.40928131383961125 0.6000255438381408
P 5.651621022509308 6.504430697204855 3.593720445178389 0.3129369361799062 -1.4149472323306664 0.6705665872814968
Ni 2.0778150457503815 7.684882511229807 3.2102554285477223 1.057089781488986 -0.83788421082597 -1.0927592098661374
P 0.900835910843459 7.483924224298348 4.988074673015196 -0.22329748134420255 0.0897412705208906 1.3948368347340365
Ni 6.65865170136208 8.385719679038797 4.081207607764243 -0.1871392862560906 0.40124147425427026 -0.2598058606828816
P 5.551956149660116 8.863520722517926 0.059410294551621876 0.30810351934700486 -0.15587158649106056 0.9598419181784051
P 3.4955712260449805 0.8964906667352073 3.774219257561816 -1.7261317045958402 0.49433237797368407 0.5110244939173845
P 8.712667837729107 4.1638560753428315 3.6522794568127215 -0.6863374769625082 -1.5768961353640583 -0.7821663484383755
Ni 8.095459963468626 6.552518928956526 6.104503534507342 0.21189978103022217 0.855203675941024 0.33797331032324374
Ni 1.4906611597002977 2.4421826405006795 4.2276726842989465 0.3929329543885749 1.8271989416525112 0.20724222765355277
Ni 1.0335407392661915 0.39889637012157714 4.122513335403162 0.28090639010692264 -1.837820168811783 -0.2011145174892601
Ni 5.575829083644975 4.766971516092094 9.35232644831806 0.7559763203065689 -0.8834508437121752 1.611098235167064
Ni 7.27549870569023 5.655757147118313 10.773955965886326 0.5240679573649039 -0.5873060393889433 0.14436384296177718
Ni 4.388576259356895 9.227175830478753 9.438851954400391 -0.9343095782352555 0.7544089758194491 1.9979302188642238
Ni 5.116191826759752 6.752616679895508 7.992912757698395 -0.8049884885392137 2.2947748774679577 0.8332310283246747
Ni 4.172859317500688 2.560945860537758 10.351474432418234 -0.5342628956200347 0.7485928833583043 -0.7886846091728675
Ni 6.5650938581369225 2.5087307572522706 8.983596953924172 -1.9839914972959445 1.6419399031382689 1.655434595190594
Ni 1.1626303912129996 5.697099887057982 7.469889159853296 1.3057020874488934 0.3552827481359688 0.26301151210437285
Ni 1.2532827688291477 5.015555381015828 2.909930217788123 0.49912491426632105 0.6933337057746833 -0.6585127414407562
Ni 3.7220217351191858 8.023739377686983 12.556948604691371 0.23339626034110125 0.6390919137119832 -0.1437920296187072
Ni 4.989341419008423 5.110038531759779 11.972955569125485 0.07244340267239137 1.402813682291926 0.0468886941317386
Ni 3.341738851045648 8.944660938840881 1.0646440262028984 -0.35676987420445655 0.1579546942723344 0.7608380192742445
Ni 8.623329396789645 6.391793012942186 3.7525642856995045 -0.04098724104563908 0.44373486753179064 1.0029166378806922
Ni 8.423092849722844 1.6829030498047268 8.461087827059522 3.4115718450095898 -0.9798330165883512 0.11816841551333197
Ni 8.58696481130108 7.596561908561017 11.288745252121686 -0.24009938339288972 -0.5209288975152899 0.3914208886194227
Ni 5.097482108729758 6.668293405707903 0.7678599673177202 0.13918152742988935 0.18884521320360378 -1.6371141996148515
Ni 0.9320992759809174 6.028063880379855 10.111360832521534 1.545061764462281 -0.9754670263101716 0.8209046455488379
Ni 4.25736765319205 7.184476205066565 10.498197669750681 0.8032535081259778 -0.85378005612062 -1.8576158633814717
Ni 7.795854641958649 1.4337825065200935 13.120139801927271 -1.8309396396418662 0.9914400046996602 0.45187420880947343
Ni 7.04786380299197 7.4471339973511395 1.989438924630464 -0.6366089993891295 0.05364478190864955 0.1553887333173711
Ni 8.520139102293852 2.694476988574773 11.240275793672273 0.053695175530610754 -0.29817237627622195 -0.2533580481750088
Ni 5.949301704380197 0.595357662511702 7.984015000597681 2.5157979609556866 0.6158167452341266 0.14249593651510295
Ni 2.3058385776065347 1.7521345583608172 1.6528592399770377 0.24835185320966904 -0.6299285020451602 0.8661992557205791
P 0.11827188174459952 5.381986411533035 12.050325157309357 -0.3739070481053754 0.21402736889618623 0.2881229624600199
Ni 5.420692025044144 5.8421973590799094 5.884351593713561 -0.9659724565561751 1.4521464670887827 -1.5314783693508913
P 6.33822696067926 4.102156569989716 0.3067986621610746 -1.7779993399994087 -0.6322558646267563 0.13939544321290834
Ni 5.425670179495251 0.9165328275922631 11.624390376181132 -0.9085275841751451 -0.058806785725563235 -0.33910690970705465
P 6.760500299955623 5.445453254247044 7.661316779341188 1.1554553033437778 0.09565249379900301 -0.3074149779204125
P 2.607627624860864 9.137476519606961 10.890112594642964 0.13525056780659933 -0.07409379379162077 -0.49437068741078727
P 1.179452481904656 2.4629280350720184 7.237955278422724 -0.7086729072349149 -0.2171504879062002 -0.7066381361930734
Ni 1.9541569489388877 3.5029459269697605 8.981172648224932 1.2940223371181199 0.755774231598092 -1.5129648839277363
Ni 9.24967005626061 6.447811130129913 1.3747173516729814 0.5615099042614459 -1.7050550864311989 -0.45903935909934496
Ni 2.08586522116388 7.8323210112742805 8.822437068683517 0.6230705985830625 -0.36249777782716924 0.42395202847790864
Ni 6.4542697766110875 7.842813998537392 9.62620266896048 0.9570610129991582 0.40075733552900017 -1.1676451605417504
Ni 3.8393414754269473 5.6541656181859885 2.4046753002264065 -0.26889393902707887 0.02514693157927282 0.7257694577058855
Ni 0.7437048145396296 7.717277527462749 13.215941515885504 3.4027231363697075 -0.42486245610731993 -0.8979184412007309
Ni 5.755514550719383 3.6736836703374407 6.6775807172740285 1.3004099858120184 0.0016928143213906332 0.6409467075325349
Ni 0.2451084098831468 2.798777652093117 1.9721310474914415 -0.642130443427991 0.21917188921160316 0.38067830539093794
Ni 8.412285257903342 9.034721119645003 5.329799992780629 -0.028853691006898698 0.03319499869472993 -0.011761768521618452
Ni 1.487200509580012 1.771529003954718 10.507311948810791 0.1849589907753202 -2.4429966607232445 -0.7300955958850652
Ni 6.84378722972218 4.521487431356317 4.580815373538767 0.4782722391870279 0.26942384338861985 0.2174230248412965
Ni 9.2510580175388 8.873403006818634 9.514298753560213 0.6570143025183588 0.8845492189826767 0.6499800213793967
Ni 2.854351621671823 7.257501474449707 6.452729139592297 -1.060854904958373 -0.41698819556556577 0.4967013924264929
Ni 5.0095778944444245 1.1610758745814274 2.400232898828681 -0.09536350180367448 1.0397695450429836 0.7004734021432582
Ni 2.1258477590509246 4.541418555311118 0.6944506953142795 -0.13927408714369563 1.4293960607661447 0.3769381216222153
Ni 7.3415841686824255 5.177456437579035 2.1232282134652216 -0.8303411083713893 -1.333400067584794 -0.12156047191401646
Ni 8.442237462286672 3.858319532637391 0.04867210079602938 0.21885770040529404 -0.039263059265680765 -0.38981523469519963
Ni 2.7313967585746126 1.0605597188149463 5.956074030110242 -0.2048963531291955 0.4475375291073324 -1.0485130955635684
Ni 7.4023953788174985 2.087752848502218 6.532387938577665 0.027725490939726444 -0.5215243650074438 -1.3510288364101508
Ni 3.940625636434026 8.350150858016393 4.65974225427677 0.4395375416209914 -1.063514196958091 1.9832376498490554
Ni 7.457719515366132 5.92796411299683 13.303238728438508 -0.6235421389028423 1.2239278942938792 -0.9261391266093211
Ni 6.249443704251074 7.834810088499832 11.851124029356088 -0.20371107457184273 -0.9229792408241008 1.377286227444783
Ni 0.7968368975762411 9.120487873561922 6.997136594196702 0.94230468062559 -0.2238978339323628 -0.3059666755096601
Ni 5.275696336849285 1.7209239357519301 0.27744605704992376 0.6401404095811556 0.9207686063260272 -0.8112244421465965
Ni 5.3634525019316115 1.230686759220223 5.1837679601647215 -0.11044662138904203 -0.07098995805531645 -0.06575622046020288
P 7.270761131194011 0.39339911815242806 10.804021057786947 2.0188152898433493 0.04301764121210656 -0.5020631709590386
Ni 4.0668375819973885 3.362400967940295 1.4911173363070627 0.9193393300786683 0.7212304321849514 0.12093183719108205
P 3.478739882278136 4.977256902812987 10.123603576302683 -0.3691937017901061 -0.5787329530079517 0.06732639316080018
Ni 2.9551916350698817 1.1035217469125043 12.813571541338378 -0.21153879814637763 0.259512754922495 -1.3091645920761972
P 2.87032242944619 3.705495742833543 3.3018460679879262 1.6508508324746536 0.8244887633556705 -0.21488303202826217
P 0.24793892558313455 0.5789575120486153 0.7609192356192541 0.736809260459815 0.9871550041710613 0.6432311326913374
P 2.622506569763055 6.895040013188122 1.0665668152269503 -0.8375983041544348 -0.6592138812728389 -0.7906838989910835
Ni 8.873948938254722 3.881646535186162 9.327150681346742 -0.10574073127294047 1.1063935128201203 -0.3548376901787502
