# total energy = -381175.31432131585 ev
CRYSTAL
PRIMVEC
9.17513233230982 0.00000000000000 0.00000000000000
0.00000000000000 9.17513233230982 0.00000000000000
0.00000000000000 0.00000000000000 13.42873360492531
PRIMCOORD
 96 1
Ni 3.0022408657208355 0.859043767648766 1.955840899615338 -0.2328694413033538 0.25539873275412145 0.8607629151963562
Ni 5.786526467272246 0.17607812602073689 7.272921730548766 -0.19395013853033696 1.1352358909731095 -0.6554914381159291
Ni 4.411100757269713 2.589809500548037 2.601105005735113 -0.2641140011399322 0.34933732918581123 0.3453148382899795
Ni 8.652727648638628 1.9741673085672222 1.5314396570426054 0.7920661240505907 1.0969580784388333 -0.5525362400079259
Ni 8.084117184047098 7.059521001977475 10.532612216768948 0.7353784415505593 0.21845583698118506 0.7397822270452097
Ni 7.889723659233054 7.435049985652087 3.7807122929010593 0.14226942232659368 -0.5463915605627686 -0.5847117962992059
Ni 4.491786869376887 6.670018292041865 0.11700770774040953 0.6985589587293646 -1.1719905819946397 1.0566611785919995
Ni 0.6380194217759237 2.1313740227864995 8.406454256608436 -0.2580413125832911 0.46366425946586604 1.4845469949066756
Ni 1.8700479089547348 6.472358420183228 6.153650112386319 0.47203937090343867 -0.27828463621335947 0.8391677055240839
Ni 6.505251268932854 5.007209092908002 6.684662720462863 0.2207446330153618 -0.8549123699528501 0.6027709677937618
Ni 1.2445424499151059 1.3184297891008088 10.889413838216818 0.11260866203736734 0.34471422859150314 -0.17014789390441662
Ni 7.188651811824686 2.574477854729173 6.185973185429571 -1.231513419950621 -0.3668030900707425 0.9741141118267029
Ni 7.155602985828548 2.2867548857083775 3.631142958681556 0.5677276030363836 0.4137550333402487 0.08217117148311655
Ni 8.712586210770445 0.7125948958727071 6.197710014472953 1.4226759684334918 -0.10746619860447944 0.8834922384730719
Ni 0.6244071957215453 0.9701876484335586 3.533878300296641 -0.5763870784835944 -0.5310857834436338 0.12086781672236603
Ni 5.986149817410499 8.766756190970668 10.321834658478695 1.1223099269400607 -0.3746338989690709 -0.3091784975787385
Ni 4.935009978037481 4.757205092146541 8.70582138583792 0.2021064490888842 -0.6997727765318077 -0.08040790893510669
Ni 1.7152359042260161 7.997678264083294 2.873077942911108 -0.5419546078373376 -0.13964998242587562 -0.5901316817631965
Ni 1.5364951548560069 3.914239826073464 11.778906199411058 -2.3720527254145147 -1.5205131285886393 0.0826617379662899
Ni 7.1650350216764185 5.836650214195318 0.3818919378190654 -0.9363502628143681 0.1370855641328091 0.8152608169994993
Ni -0.017439173673198333 6.684239746870852 8.306718735136135 1.9956949017758017 -1.7006988663450322 1.4593324433142607
Ni 2.7656142076307715 3.9176896757610122 0.3199891562447325 0.18402568032777342 -0.45400771021270847 1.1611135300708197
Ni 2.845869088527002 3.9022112278277845 9.803445197211005 -0.7229864956441098 0.2734051966338711 -0.9278620228376989
Ni 4.17746519225981 7.917441733451359 2.3334306179703312 0.6915982111408154 0.6022215230481951 0.21179513713155781
P 1.5234205915454857 4.945350351967978 8.094437372686869 0.2645783423708605 0.24099901238902366 0.12085984630256605
Ni 2.7830744841079094 4.606787975716586 2.612358305314309 -0.6378395293621208 -0.6651279327644287 1.0833816253059794
P 9.082215584474064 2.797791396072875 5.243624722958668 -0.36922944012404796 -0.1684080283951745 0.058969793665988764
Ni 7.810560619062404 4.569913119614843 4.671319432651245 0.9203356325536666 -0.8704562312247203 1.9331031950865092
P 7.332848188658476 1.212255159887229 8.45622109089096 0.08632993084649648 0.1946494785902067 -0.167351304995886
P 2.676340171833318 1.2635257983287678 9.22519075121899 -0.04733246653737654 0.019796465900636873 -0.30749108257398655
P 8.78946464303631 7.148244529846065 12.921583579682371 -0.36107621488929426 0.3267722994011018 -0.23879120610442747
Ni 5.666387286929815 0.5981672352922404 2.967051481394631 -0.8725624789344456 -0.3255741653279425 -0.6449141768207151
Ni 3.9070098219410494 0.6092755677835021 11.006028850301307 -1.4390598091081541 -1.0876583983044625 -0.3064508142349303
Ni 3.524397636248387 6.611086418256968 4.166089863423049 -0.3682387940760045 -0.5448175312074294 0.4003675562897492
Ni 7.058823691934248 0.9743898589572209 0.112276092091823 -0.5743240253069787 -0.8802148532733809 -0.35371308965600373
Ni 1.3002630274482954 8.201668977123868 11.872464104408287 -1.4177268519583324 0.4632616247108086 0.3818715543680907
Ni 4.706851966919776 6.534006133083853 10.188541091176058 0.2529106762249451 0.8240601604586839 0.11521961729765319
Ni 4.50473298083734 3.980676957955207 4.299974309236001 -0.49459977270245786 -0.35966442214343214 0.8575027563878458
Ni 7.006351111181356 3.4011297358435786 13.064183483522458 -1.0331448406376142 -0.6312842447421063 -0.06169876256137761
Ni 6.486873479240943 7.6912930762740075 12.624660705657044 -0.13669912732766779 1.4998990518827136 -0.8157560114683627
Ni 7.056291355461473 3.5287099483578226 8.705485576001314 0.30020406199427013 -1.2669409075202955 -0.01099660822081977
Ni 2.0452654075800143 8.064528276911686 9.670769116301908 -0.8507857493789864 2.1926216064359596 0.3881697286719767
Ni 0.4184502518617122 9.009612763789043 0.7226389130348316 -1.3480260450280848 -0.8630517112305329 -0.021591867238162813
Ni 5.317034955272689 6.932115116974039 7.81438114408872 0.5596913629954684 -0.42877207557437125 -0.28312370947321563
Ni 3.5937983358138483 2.7555674379290025 11.615975120244807 0.7458474594026832 -1.388379252034151 0.22141003451350255
Ni 1.4989046384467402 2.182020752241992 6.36752978285572 1.1807994385355214 -0.22556236611897926 -0.46919727346895324
Ni 0.3874942735084719 3.4257099148673587 3.3382488851822973 0.6747510576764896 1.039633019465119 -1.500359793569216
Ni 3.555134328943297 1.2776188013076875 7.196780061394364 -0.5824132300730164 -0.31282303630986125 -0.6334887085925929
Ni 4.285997830435357 5.4385779308337225 6.053015427963541 -0.22501626380752213 0.8952992584103291 1.3490436876593217
Ni 3.538389712773682 8.092228000865695 6.547071521262226 1.2655129168245172 -0.6176987927481878 0.14651251387366382
Ni 0.997162536947897 5.951807297781529 4.032500856865254 -0.451763394263222 -0.3381265480716563 -0.7146350383556209
Ni 8.965829033180055 9.186692814240313 9.220463723136477 -0.3943858847850175 -0.31954544263535933 0.6173969452370528
Ni 2.6065357664533564 2.1553211176920857 4.215360323056381 0.3093952415752349 1.2012780181048472 -0.5585413085514253
Ni 6.868026818922115 0.2937932364497367 5.130609115215737 -0.6110301224787607 -1.5142527495012243 -1.4180793502017448
Ni 7.675319171204802 -0.009966946052083625 2.191824380941846 1.7176663474373062 0.49985690733633914 0.9673109728619406
Ni 2.251081971917987 4.324395758473624 5.359286438813005 -0.41539488293651683 -0.5149179154345196 -0.8326836404616368
P 4.620146968123688 8.9873080175379 -0.06816939683123532 0.3160104328989074 0.17725082349778506 -0.2736378814699675
Ni 3.0818901878953158 6.571752626739632 8.492599572343511 -0.8570980647502594 -2.3048163208643597 -1.5743335168432047
P 2.775321497443074 6.442979647046183 1.5921643516491693 -0.6448244453203863 -2.2759698289463124 0.48048364501605
Ni 5.980094230192994 5.579966717230307 3.8084422947911563 -0.6549443073632075 1.575474058205551 -0.8591729450014172
P 5.047864103454612 3.2947991293834873 6.480760088690908 0.5720686536138987 0.27440689842550803 -0.5941449166876477
P 8.991308375154313 2.289635877202766 12.705703730404764 -0.06033299256210254 -0.24455407673013366 -0.6619325657555827
P 0.580558321674309 8.163995884525272 4.789841037196031 -0.17107991880038276 0.12204769596308013 0.5778924593845274
Ni 8.332561412343443 -0.02617114693819694 11.652877501742994 -0.44444192090114426 0.6164518077149641 0.5297552375576683
Ni 9.205868840429076 4.533185065627463 9.651995878414429 -0.0775868945465438 -0.47133540285787856 -0.24176571535171912
Ni 1.7143642666719814 5.998820674906519 10.745202781171592 0.0395988453385447 0.22699138525602194 -1.4614368912517735
Ni 8.082438134864063 2.264872195536032 10.585118745510785 -0.048663526643974254 0.19250980653938457 0.1292447279321516
Ni 1.5146675154765474 5.936081121280313 13.005500255818765 0.4092700009857016 0.6945169274495072 1.102967774968023
Ni 3.649069331871799 4.898116771671442 11.921156530716312 0.32773389198342273 2.6994557164210797 -0.6081659135570882
Ni 8.688244585182506 6.482212512109894 5.887921770150071 -0.6951671594389963 1.7366534300627703 0.2953187088775107
Ni 8.34127778788379 4.958021209463999 11.90670753261006 0.8572698144414334 0.8152217362314477 -1.340462373748214
Ni 5.124834287041953 4.79255687631176 1.6707089879130623 0.2772988752613224 -0.4202915489071858 -0.46025446245336865
Ni 7.124013005843899 5.840182640072195 8.94009829258495 -0.8726118441151425 -0.26240138932419965 0.2263025867191135
Ni 0.26350704274328096 6.22748331829235 1.6580729959192029 0.4282581120524302 2.2598081315847853 1.044073571734976
Ni 5.827511782576175 1.6124285485106549 11.639018464633843 0.4927856023118545 1.1038997998639892 -0.6232531469075137
Ni 3.253043102979149 3.650583228676175 7.492185368562457 -1.3081081257872245 -0.23442495871593175 0.20219978013363885
Ni 4.543534614690108 2.18182807446689 0.3661428234874797 -0.09866325560086879 -1.053946350763998 -1.4265300520722592
Ni 6.34276885372863 7.0109570275195185 5.655913873583176 -0.9077747651695206 1.7651121996240953 -0.625399246716239
Ni 1.9157584173147466 1.3839769331642218 13.233171067419425 0.3259063518563806 0.9044960944182486 -0.703838204850433
Ni 4.194989694661982 8.615439911590236 8.762557650499865 -1.0113084614888133 1.2055511915589046 1.2707595099354374
Ni 4.9991441517501425 1.9318791244983153 8.978692568451178 0.3285913548877115 0.7895646977849757 0.9536522444279254
Ni 7.460281599058356 7.920909933403203 7.683827271245396 0.4539467750677859 0.6162458623517452 -0.4940446715299363
Ni 3.4002764485538393 7.651592279470762 11.852844919336786 1.121358618770385 -0.6037860393218375 -1.3352319785872102
Ni 6.3418788659103 7.538591351939266 1.7040660983493645 -0.3900803154311282 -0.8753693522556215 0.3604154413768438
Ni 8.826009194380735 4.40689854674605 0.6520344361315877 2.0096379942194553 -3.0404788693142413 0.8491186460892086
Ni 2.5725602521102973 8.216982272678436 0.604862329220442 -0.22987667722361704 0.6140779081661489 -1.9744113098066767
Ni 8.856121978089599 4.511403301908742 6.964530858851984 0.8417066698958536 -1.6785002187608062 0.6871370900456683
Ni 4.964856682914061 1.608042835344038 5.083272773439147 -0.775095300524207 0.31771918805989796 0.23286892708272153
P 7.816542805222726 5.156855498237546 2.7392329501663912 0.532439983478683 1.0618792324578292 -2.4800385439678903
Ni 1.0196140853134026 8.350654772938775 7.306305448868296 0.9833222606885322 1.4441531644706613 -0.8857702358739713
P 4.812494438468787 8.496016391555328 4.448307753155204 0.029355056123349446 -0.9368536848133479 1.069880505495751
Ni 5.9081520190226104 5.397152209186704 11.792468879751837 0.798139326827864 -0.2018010020333234 0.28773781120645925
P 5.569470366053299 3.6705024405689057 10.584165449280638 -0.06261381817647926 -0.9077935342225979 -0.07569379128888899
P 1.7141257132361403 2.571321609270353 1.6781757104548884 -0.07483709971554853 0.32663397405102457 1.2564348657826492
P 6.303930519347271 2.4114908072568233 1.6001146036551808 0.6546064644078146 0.642932370503996 0.1733373473759918
Ni 2.661109452468079 9.086032439447521 4.739134669381579 -0.09115512014928172 0.7103970890148733 -0.18166746450824198
