# total energy = -340856.9422733175 ev
CRYSTAL
PRIMVEC
9.37951023344332 0.00000000000000 0.00000000000000

0.00000000000000 9.37951023344332 0.00000000000000

0.00000000000000 0.00000000000000 13.72786132206450

PRIMCOORD
 96 1
Ni 2.7692254213168153 2.615654696883231 7.164227649822387 -0.23645870131650887 -0.08639086599141896 0.623121763535972
Ni 6.620649377686613 5.83347396401236 1.7494512800459903 -2.0855066205233115 0.2231992652034414 -1.825606657464727
Ni 3.010822851229492 7.824396988531132 3.535638350681156 -3.4221686466888293 0.1587771901736298 2.2565729124769396
Ni 2.14602260915407 7.585725965875724 13.61685810519369 -1.8856354885228492 -2.7299276597576916 -1.239928897707826
Ni 4.4721318187555115 5.809706284557483 4.9514341817482785 -1.7806249505477139 1.6217621426388134 1.036245591050125
Ni 4.118195992303347 2.961186481981185 5.255794605769997 -1.427153030368239 -0.8644961569865435 0.5898398615543906
Ni 5.484265410821939 0.04472900938611589 12.353222320189982 1.1286749499261401 2.0835466685834634 0.3012211904048748
Ni 6.1105540819194335 2.080441072157819 4.367327045001406 0.9770379703417174 -1.090255212497361 0.20373447161061042
Ni 7.832360192894663 6.205165203727383 4.922729127997804 -1.305233118232275 -0.7572366750762314 2.5135122502453036
Ni 5.081406057914905 4.411268175510564 13.308008647475406 -0.6942127659455269 -0.754540873411623 0.5569521096874342
Ni 4.733557533738279 6.687759774884579 2.944956177115866 1.4100089144887846 -1.4938052802801498 -0.9919704232818335
Ni 0.5942285664626421 4.597892294734592 9.67315946306654 0.5118156223601121 -0.526055677218894 -0.10601301109772066
Ni 7.289811791005197 5.755164431349074 7.04443817018939 -0.24573832684622196 0.6011863969154614 3.0494453344789094
Ni 0.980496503352418 6.471233776377935 5.768241344804475 0.09922427031066136 2.5644964546026543 -2.002475157922429
Ni 2.556188600693839 3.03422472977721 13.6372304018693 1.5395349211067808 -1.1163909903524645 0.43019081029876877
Ni 8.724098388953673 5.6728592272383604 11.636532051569995 -0.9945296993685776 0.0862337715882644 -0.8995024978583993
Ni 8.322627203591752 5.935673109766244 2.950062382599384 1.5905494644814349 1.5619765379397486 -0.7318452315863202
Ni 4.802900254420957 2.4620464544078873 11.74920998638741 0.9695100373957883 0.37359980127760173 1.2317864711063495
Ni 8.333019701159236 7.463088866873154 9.515316371627549 -0.2513335615458123 -1.786537202267091 -0.8717140148912214
Ni 6.473953834405525 2.1574093348281904 13.523014227339731 -0.7786357095772978 -2.187268312543846 -0.9879913840294275
Ni 1.0208752957964768 8.576342960992868 9.92663041524517 -0.24246171297747918 0.4020742545682108 -2.3133675528684803
Ni 6.8308160681149594 7.362559273977584 12.248629523371818 0.6036032338870702 0.11128480101962125 -0.37664578719277714
Ni 4.860565484605876 3.692122351057394 9.815572321880738 0.24604557367399565 2.847967263002644 -0.26502879964471776
Ni 8.145438871870331 7.830390495702271 1.0301028581673168 -1.0526106626717096 -1.2588157073099997 -0.286037540685901
P 6.454922807722832 7.8430903528379865 3.4411078926629903 1.5460444400905244 0.09134049668721043 -0.07447277439759432
P 1.0133341694027433 6.610772753193328 8.43791264231148 0.47468092229134373 0.9236212452834739 0.8942024258017246
P 0.21604576757211796 6.236258280835875 0.18671791432842832 -1.0737225049496604 3.942380463532436 1.4084348851334452
P 5.5097682997082105 7.687512413170249 0.19629158063450292 1.559304133313908 -0.7008498116460704 0.009480685796925606
P 7.396006608206507 4.030919647659451 4.250200408382314 1.4945922949578194 0.7686541728845536 -0.5993943380120452
P 3.258657655584747 4.7666672055913635 1.5708110001084616 1.1933585061474543 -0.7461318234123214 -0.9378407313169655
P 7.399308195881376 7.861539849873402 6.741436837230423 -0.5876796206782783 0.5302620019907577 -0.3116917509188955
P 4.300214771901352 4.218378543312637 7.714152098721845 -0.7369660977526533 1.2337420521708236 -0.7381747733487738
Ni 6.696510858125068 -0.03567590590945949 5.152437090476777 -0.9455771807292748 -0.6165842195277703 0.9926671922385422
Ni 8.803889884266473 1.900476405346167 9.650439474927806 0.9191400695836687 -0.3973022871008641 1.5548864638621867
Ni 4.849994776340033 7.909328455565035 6.458079950936924 0.8748947266120481 0.03266020923718246 0.08772321164959732
Ni 2.3000247910678926 2.5375233749183033 9.77957751261632 -0.7168132769538623 0.4106709950982863 -2.655472883082227
Ni 3.0026814361676006 5.79326400275622 9.493338302764618 -0.3329545169524137 -0.4896365151599116 -0.6553574836412261
Ni 6.103800834402657 0.1485873905368294 1.1720917631096293 -0.0803387462600681 0.17685024562525672 -0.623995681500493
Ni 0.5003293494970859 0.7812147347896534 11.913010942857865 -0.2019077028145168 1.728034835155824 -1.2514710940194704
Ni 3.6478135437389887 8.249935997682007 8.445806438297755 -0.514774704988436 0.7078943771976776 0.7603027155960649
Ni 4.686584945454923 1.5298731888421806 9.541632464068966 -1.9514099638154976 -1.8232245303857955 1.0886359317263834
Ni 0.05598348396303261 4.633271808114149 1.6540428998506431 0.34395061095260115 -2.431169843291645 -0.4051608639133345
Ni 1.8031546050210667 6.012866480687174 2.4019772556972043 -0.5634048072913136 1.5633420508287075 -0.26746749099319744
Ni 4.34369818230104 7.577481376198994 11.976859146324811 -2.215888033163068 -1.955567437627297 -0.32301386079993405
Ni 7.848305360642608 9.350227608373686 10.642813252350356 -1.0728341888074362 0.5839872594283556 0.9870254205717324
Ni 2.783585451800405 4.089532208398807 11.529399283324688 0.20415741808064194 -1.1594592822968484 -1.9068010668568707
Ni 1.5663313459223334 2.279633735371404 4.521490554494795 0.9811982723669941 -0.4049556898810639 0.3803600028195708
Ni 1.6201884948686254 6.186349905784809 11.232411154508787 -0.00023268483609637346 1.5036448920783911 0.9364633913534646
Ni 0.13671855802609484 5.070103747834745 7.106914151278969 -0.5926675608111729 -1.0627834894396535 1.3739481642104854
Ni 0.5579383026193647 4.620825197760313 4.175232795288788 -0.6148325269439863 -0.5066651885074241 0.7296888473649498
Ni 4.664486818858361 9.185382712391261 3.056165280598382 1.9454218645528623 1.0417624071032963 0.48367386981857347
Ni 5.592476822767842 2.525114282606227 7.714811478305775 0.7227602385659165 0.23478079939345375 -1.199138088943709
Ni 0.5948729388298678 1.318308951358279 7.56933714728397 -0.29640217174967665 0.782829178833355 0.6240607304104737
Ni 2.825671315144538 4.331739306490082 3.562036982814444 0.8688999424811938 -1.1475949267590946 0.9437573539117166
Ni 5.024997682128943 6.278991330400365 8.612915548100387 0.27850472264396553 -0.10961024153067574 -2.009687873620784
Ni 6.999816087222289 2.345196513346775 2.032903837345977 2.1415147604578153 1.163025402381552 0.025353648273440204
P 7.989054294304757 0.6396966812714273 12.87563572701797 -1.2856816784629082 -0.7191272697990195 -0.432768598328274
P 7.982788781330859 5.229527286782869 9.231026224045275 0.7597003061253754 -0.41893246377613014 -1.194811179433581
P 7.242417124752043 2.2602650463128713 6.330027122606315 -0.5844734550361547 -1.2348342567937378 -0.5345344041138664
P 5.57858576780625 8.306738312906448 10.262400005877208 0.8252456961263529 0.5727386830977297 -0.6924469322943558
P 4.398990396344646 1.5384648204051905 0.3176052307139955 -0.8101216960007208 -0.34687549790888 -0.8811445641765019
P 2.9912665719621603 7.030111905943384 5.888086163549071 -0.10698951607837703 0.8066381083274947 -0.27806249290022433
P 6.854133531068718 4.019420367860052 0.5949432851581676 2.1012119470737103 1.2068837943273987 2.7694681410544755
P 1.1673175922956858 2.391343704711414 1.378785220822056 -0.41392292637668066 -0.05844066063539612 0.8511703864119148
Ni 3.068328629736931 5.429263961601971 13.265342192435037 -0.44138667901458817 1.853223390740731 1.0533706807661858
Ni 2.949208847149347 1.3324344940808694 11.432494871214168 -0.5237098026945367 -2.347056203370177 1.7650975443360764
Ni 5.934613225086527 0.16437498250938232 8.37936292429207 1.3825688159999607 -1.850066590279304 -0.8350403136192714
Ni 2.0438891199732665 0.4001608677534554 13.598627150751526 1.401993757493792 2.2567847713774296 1.6088204948764808
Ni 7.209391868492918 3.976434071513682 12.297665603951968 0.6189812590050372 1.09744710226011 -2.209280812259195
Ni 0.9877468649225126 8.199793134869942 1.821948330089629 0.7646766762940443 -0.2948145155475826 1.2134136250261167
Ni 8.683063030778815 8.212793136339736 4.532280743304933 1.6015990374273772 0.1080657798616913 -0.2726482638631885
Ni 8.992249212921896 0.970732432984412 5.501179481998332 -0.324047444270771 0.08903884513722729 0.4103614342776674
Ni 2.3037859747543195 0.10809135421227074 6.084751048699083 0.0752865285481413 -0.6800328749007193 -0.12937276886958365
Ni 9.134874048672037 0.5471443620050503 0.9496810597529495 0.1575929400575415 0.8286436660643083 0.3889456876060527
Ni 8.666433158768752 2.347428836831487 3.700798398214364 0.4749290337464079 1.695885761227105 -0.40351252967663404
Ni 7.7199467602716565 0.40053323431792204 2.9874434835068295 -0.766713504218415 -1.9949616231542031 -0.4650002046684701
Ni 0.13435867319939906 8.40052403779568 6.935713699022421 -0.13940547051523733 -0.36742426859450916 0.8611071859096524
Ni 5.365201905296995 4.14309859252146 3.8174710665281606 -0.39813969540049493 1.3938713854969735 -4.762235841881154
Ni -0.03936205351236662 7.828373900957677 12.318106371053789 -0.9475960109315165 0.2893298382839275 0.7057673035523457
Ni 5.916332559239031 4.493620277173476 5.8648859444758115 1.09169708715021 -1.7184878148973373 3.3330629528694082
Ni 8.969513279615416 2.6695775024026025 -0.01664487922676591 -1.2294375112581988 0.13318777174029967 -1.0404891968178274
Ni 6.392971141266847 5.896804418503019 10.306535292252473 -0.36518972283703555 0.35390000885582923 2.090934476407102
Ni 2.8797348133205096 1.3987382533809982 2.5928906250454307 -1.508035822057235 -0.7086127434209408 -0.5254147012007855
Ni 0.8034254155114959 4.556772520965776 13.135971542887614 1.3622049076316283 -2.2292958219285413 -2.235636419434589
Ni 2.4535298589283965 4.674869936915404 6.1359012709324015 0.695424526865441 0.1582251743249017 -0.29486362361796314
Ni 8.099122849317773 3.295603547207778 8.020791743780475 -0.30679817027202005 0.9229507015790106 -0.40136231610285067
Ni 3.762609372013748 7.8806365331291754 1.2450165188293307 0.037176866160613393 0.7511850695655128 0.6729739111714088
Ni 4.87661382696866 2.4650478977486765 2.280499464185013 -1.8710329081183261 0.2632303129833983 -0.7595738078498403
P 0.7590659588367148 3.062700923472951 11.368330578245395 -0.0920910016999898 -0.6902054445583468 -0.14532697820599488
P 4.5785329851865 5.381672325629577 11.466004110211994 -0.4860539400149758 -0.1883379345498821 -0.6056158934417247
P 3.7672991272337315 0.8599200827935068 4.676807743772302 0.17613213651230955 0.9367282149790772 -0.11665557841323136
P 0.5701204107787942 3.195045815780889 6.266617880227961 1.0301659605149485 -0.8448560141581127 -0.14911652715541412
P 0.5328406085841003 0.43514831759662126 3.2518697038793425 0.233895568575023 0.009233345672809905 0.8115278323196282
P 7.04546616453361 3.0197990427205403 10.332275482752875 -0.8430179325081094 -0.46954745771952033 -0.4424426310829283
P 2.525967818056264 0.7832435228978184 8.228178347314415 0.695508601938815 -1.0315821241361847 1.4556135997017772
P 1.9493155162070768 8.45819864749104 11.709838553364603 2.2341338667471327 0.6139686362817942 0.5997013277295026
