# total energy = -381173.3064075864 ev
CRYSTAL
PRIMVEC
9.18372336109063 0.00000000000000 0.00000000000000

0.00000000000000 9.18372336109063 0.00000000000000

0.00000000000000 0.00000000000000 13.44130744393590

PRIMCOORD
 96 1
Ni 1.6699223334764925 3.8469055837084922 12.162676148956452 -0.3806232837832864 -0.21982392097330528 0.5200079283629174
Ni 6.756097912092373 6.556186622433526 7.5619852474817595 0.9086862212401964 1.065933605032861 1.438698054893361
Ni 3.8740159350073213 7.515628567179896 -0.17702912458562026 -1.122550582195957 -0.4212834805068099 0.04132045601534174
Ni -0.19424860584757989 3.3929449553031987 6.295532349861158 0.028557242812402434 1.220124204277073 -2.1148945867671256
Ni 1.8684193297410232 8.268840820609698 12.217395527731457 -0.6295402654678061 -0.17175971847622676 -0.9833009205322936
Ni 6.804955320259639 3.3791693702936314 4.406262294649654 -0.07855388644550343 0.05676121605044418 0.1812964543220684
Ni 2.0177925898614353 6.259451337604099 5.238157934537105 0.08272010200805109 -1.7070080963925116 -1.069966637451654
Ni 7.789652504190217 3.1125842491884774 2.2165660161984913 -1.060021096203168 0.8667001066163977 1.0436989620043766
Ni 8.40392420721352 1.6089056756074478 7.627820604987152 -0.26095385824439576 -0.41539488293651683 -2.278199746718096
Ni 8.17732501752947 7.142751032140918 3.924189370729169 -0.4715616599360717 0.6562118612217215 1.9139222512826843
Ni 2.2442172888020298 7.358807307430978 9.659702863196372 -1.2889572638903866 -0.5082793270720795 -0.3439336416717367
Ni 0.9838063627666251 8.443349931510902 5.763995892032986 0.7149577118023623 0.08687783293016652 -1.2027648870630188
Ni 6.037352172356509 2.319009531680642 7.35747566754672 0.48561582403629266 -0.2432297014917553 -0.7300302898647685
Ni 2.4274142019826006 4.725080760621752 9.530868081952892 -0.7416146522682583 0.6858155430207672 -0.22873253631684476
Ni 6.964412308607055 7.3218795558819965 13.257713013696664 0.574756741969023 -0.39887066002924854 0.2060878023341354
Ni 5.469421537305393 8.99461210870044 0.5704286077995182 0.5450784981782999 1.2620599252789104 0.7186788694076913
Ni 6.439599254635885 5.65461131845068 3.2929590041867547 -0.2601935830396035 -0.11016611403414575 0.21063376983360496
Ni 7.462317053192869 5.235438634056216 10.420589035848838 -0.055412158221717474 1.8931266546935719 1.3947625298526753
Ni 0.5192513911166403 4.120856050932095 1.3896158113294756 1.451119054265533 0.08868506134223436 0.004178042637089579
Ni 2.9182474795968365 1.2207647923778686 8.774593056789296 -0.034096170352760635 -0.1756323140577556 -2.7417444498869616
Ni 8.29493177861782 2.911763770919 13.47262591543093 -0.43659645671479647 -1.6189938358650569 -0.23162168493918173
Ni 1.0217167727129555 0.5113919606825149 10.073856642785685 -0.14845343965011853 -0.9540944741716666 0.20630300366873505
Ni 1.209193300969832 7.599687186908278 3.421645927484466 0.663847009169476 0.72171534224117 0.06581124206785441
Ni 3.4636688087423195 0.9033881709701048 1.3207957437386775 -0.407325475664821 0.36496577975168754 -0.5422394860676081
P 4.686086671321337 2.120723761052925 4.148874672469222 -1.0943131846168186 1.7520029159356472 -0.6109617311346703
Ni 6.399604139491441 4.948961568197246 0.6034881750778127 0.48293004967401343 -1.0414399907668708 0.7958559301103262
P 3.3074904096271807 7.515132646119552 2.5274635207900884 -0.09251471950096969 1.5423387091041632 0.37131023391247664
Ni 4.204023849496525 3.483340344135982 10.903426963923522 -0.7699001294765128 -1.396053480749957 1.6836133716176551
P 4.273792595708315 7.221657583075722 10.180365792590326 0.626576811964108 -0.5852812956494308 2.249945379858093
P 2.340242300042056 2.819605107204992 0.6262830947793113 -0.9638178721070175 0.5154588755396542 0.6853422029287746
P 1.7511156315228846 0.9073546210805263 6.857620300123551 -0.27614804948633087 -0.8264170907266347 1.2240788180494466
Ni 0.43615430722192616 8.560313831965471 8.045146442618 0.8341406846231376 1.4690404146306442 -1.1471737800612758
Ni 2.173070984089282 2.579818090805117 10.400856887881133 -1.133223231418455 -0.6349665786897 -0.5034245700829394
Ni 4.833577268157107 0.17690147083119828 3.0572256832690283 -1.6026966413669301 -1.4522791360119054 0.4350303977792572
Ni 4.759831969739222 3.9944512828843015 5.686735064320659 0.22896213582914762 -0.3470336207532991 -0.2897604980634429
Ni 1.4725273840127275 8.533524910983532 1.075447064484273 1.8627004769932307 -0.5693599964334839 0.010582660611852741
Ni 6.480384169987546 7.63880984833545 9.985762695021833 0.1157369232537039 -0.4242996416253144 -0.7309106355871928
Ni 5.209512983068209 8.568900613288102 11.765028275325603 -0.2027029450223025 -0.7092658036239076 -0.5550062988149732
Ni 3.9733195354796247 5.606304933683797 3.9236117145311007 0.27574747161380253 -0.23352815793327525 -0.07083517764500705
Ni 8.644951026264255 3.380758154431401 11.318790239876673 0.7804316251354559 -0.02507982578676326 -1.693058319080639
Ni 3.995048224901383 4.231336242708828 13.355578443093968 0.7995274654246424 -0.34972659420443 0.35259851643558626
Ni 4.67641621064462 6.209308208169272 1.5060580762983493 0.1926949259669972 -0.40285561281892557 0.5495756147177051
Ni 4.088768121583142 0.354650599326652 6.749068690248157 -1.1223135264844863 0.010934901744948908 1.453518150625329
Ni 3.224625673932961 5.7262535442237725 11.523730536436346 0.5766447030203553 0.8314351127665165 -0.7358618089448811
Ni 0.6302504632620668 2.780987550561504 3.6106846070814274 0.14291425499944418 0.4326996927635516 1.990926790963197
Ni 2.947111922053551 3.3453181660634534 2.599037787010466 -0.20317448534208232 -0.16666944843751294 0.8885244015803407
Ni 6.429497158962202 3.3518477933579884 12.020601193774109 -0.3922400420866084 1.116677925465264 1.1848707803914176
Ni 5.424237618474011 1.3806717831689304 9.473325626623259 -0.8284361780391926 -1.9663426738659298 0.2984958210539117
Ni 8.452432633893878 9.286489203883162 13.362138376675524 0.05168894373385937 0.02352096594007562 -0.520750977176529
Ni 2.156218851760911 5.709934067849105 2.3915177825646685 -0.4744916890986732 -0.7755748112637868 0.07894726522918016
Ni 3.3179782216811318 0.0997288068629322 10.558698459293094 0.7915686155888819 -0.24728253140489026 1.2967703321769024
Ni -0.22625663680347738 0.2939829229445159 4.090862010504596 0.3616156323325321 0.9967033099811287 -0.07688549760414501
Ni 2.8141775267112226 2.492361493441042 6.09309278116689 0.6911909484000677 1.255937100210624 -0.8990525548051742
Ni 2.096570568669483 5.553278115120301 0.09148182330387102 -1.0282654010581258 2.144348373251868 0.851530855075127
Ni 7.044916827402969 5.230286565262638 5.761925880792215 -0.6019800964613504 -0.14601166297784532 -0.5316272577694005
Ni 3.140374196014445 4.972774962817119 7.22835894599671 -0.6938602677021147 0.047326038779473334 -0.8518820677669586
P 5.9250536033585135 7.640196590559747 4.696876627873164 1.0859445009371491 0.18501169839012654 -1.1548431236810754
Ni 3.4352543687292507 8.105765445266437 4.96481542979859 0.11943596937184592 0.6821262670946382 -1.455843456324396
P 8.949547578272474 2.2852042460671633 9.556285873040212 1.086312168689213 1.3150999837240254 0.2629965997060374
Ni 5.520510590244209 2.355615852912733 0.6035001139181543 0.14526655728170465 -0.615931673545436 -0.4571411136353675
P 9.53885792125844 6.998199226773854 13.176486654246249 -0.4603056274062782 0.9465595992472019 0.5451507461771321
P 1.137266379773209 5.705415675965967 7.838015828041807 0.0332487347508008 -0.4103082124422288 1.4672694387731504
P 6.590579666340747 9.000508059084536 7.859696762102198 -0.839157935332071 -0.18986799804116333 -0.11426779490734514
Ni 5.352411718234125 3.7191232571597426 2.444247966864292 -0.878643652131519 0.1069406651183126 0.9434609057172203
Ni 0.49272696136688465 1.6400936000691086 1.7501256261468636 0.48382967867014737 -1.0755155922943413 -1.68374655476141
Ni 0.7925094056004286 1.4003157673925737 12.22933161295608 -1.0570990374603666 0.5855864855946754 -0.06921538265339693
Ni 6.894340499525054 0.8628750938293003 11.595654702515965 1.9012924783338156 0.8339586505193185 0.300511823042676
Ni 2.299999224367439 0.7017733006317421 3.33480188446715 -0.32302877319826945 -0.12974017951133138 0.61791913628911
Ni 8.668589930140673 8.506377824791343 2.0322183824834545 0.5454808758230413 0.767601049029691 0.28763445285937556
Ni 8.19740063675008 4.448917016073279 8.464354025161157 0.7560501109672978 -0.401812773376708 -1.3443182571591943
Ni 4.079024191119707 3.202548003024294 8.277184233263826 -0.21058054799816636 -1.0449521176851875 0.23230045617376122
Ni 8.352008619174129 8.210900710059455 11.237927555870511 1.34540506246547 -0.9991623130445825 0.784094932919656
Ni 8.862614453138763 6.924756991226179 9.158745448972438 -0.9729321757034598 -1.9691487758561568 0.3802692428779773
Ni 9.094834081506717 6.319669011542589 6.203122970499977 -0.5366229112117791 -0.006475580422014654 0.8842784818197932
Ni 7.774141195469443 8.360558665603401 6.044367618615715 -1.160155022812292 0.6874029421125452 0.30918029735095137
Ni 8.42807739959696 5.196077195822211 12.803207790497325 -0.8520697582977326 -0.0835225433046884 1.0452578218510644
Ni 4.97939642734505 4.908984820499481 9.515773714271742 -0.38195794343430994 5.338437800937134 -0.9303194832392558
Ni 5.725261702103084 5.797813116486807 11.978597598335268 -0.99131916285108 0.33262413019618847 -0.7162905716811728
Ni 6.39231226315971 3.3574314971485335 9.797127180879485 2.1141271124734815 -1.7770248919012817 -1.463279857997783
Ni 5.753869000306286 0.7316112177624657 5.336441223346366 0.6785861151518636 -1.0807105062317195 2.1570100278799367
Ni 6.767504096480295 1.2387373389536847 3.4900086456529467 1.8868601049585696 0.035365009762855226 -2.771296709622782
Ni 4.7614574887703505 6.576638774311064 6.0743148220541805 -0.06771642951036724 -1.2748840736267721 0.1896826215032346
Ni 7.881508105034014 0.4659049789809225 9.46058321048941 -1.0362821007150154 -1.4182446721350155 1.053890300715082
Ni 1.2996070572492944 3.002131608581764 8.0625670474211 0.4089324151406248 0.07662864439833254 0.34718762983266016
Ni 0.5644141873843409 6.036103185982308 11.18447185742705 1.3837399534899264 0.01456581362931685 -0.7225553216439622
Ni 8.827624467214461 4.951661582859122 4.198486064322679 0.7548422067021258 -0.4814192694564419 -0.8551185724263853
Ni 2.990909098660636 1.5748983480804948 12.520429928399592 1.3573835749835848 -0.5345164063917375 -0.629536151702748
Ni 6.638224823027173 7.9332951209466485 2.2877646681342747 -2.4610422053710455 -0.8798376724396202 0.6411457109172184
P 5.026775256054624 1.682568320515276 11.838659695574076 -0.7120428521484123 -0.09133561159120399 -0.18686469243846526
Ni 4.72801036836712 7.612103580863568 8.21700696770803 -0.31270527978507434 0.9396955251375171 -0.6070629103008964
P 1.795169952383482 4.147654155637373 4.881990184114732 0.029906043530813012 -0.32479434973912447 -0.37016120790969803
Ni 2.5398688942773706 7.283234448068489 7.164996765186703 0.31529592333038603 1.517269424840361 1.0372190107069879
P 5.887464623729073 4.577369754425828 7.558612065899084 0.06779381971552197 -0.6103400383902715 -0.29042358556873854
P 7.910794998764355 1.7133337937033104 5.317474997905194 0.7011058935209344 0.16084538555656816 0.9651756716864925
P 7.235378065745252 1.1600511973790342 1.3283695603769377 0.1509335257594949 -0.151245657683275 -0.1128922547160572
Ni 8.385198595323846 6.173206991720865 1.8565539591861155 0.4880110637413466 -0.8383259263490788 -1.1787543830810343
