# total energy = -340887.7676080132 ev
CRYSTAL
PRIMVEC
9.12201096555128 0.00000000000000 0.00000000000000
0.00000000000000 9.12201096555128 0.00000000000000
0.00000000000000 0.00000000000000 13.35098511508231
PRIMCOORD
 96 1
Ni 6.4190312169884 2.102112632292919 11.313784481275704 -0.18950881492953167 -0.24159730809465485 1.0874833061791787
Ni 4.6584557870773144 0.12600963132026835 5.427215062688795 -0.07003170790710521 0.5662625884550828 0.37668795328462223
Ni 2.84670587717472 1.8593668057235704 4.612658732389726 -0.1284695403290239 -1.4700829969625455 1.5265109980432872
Ni 3.54553399440636 4.4295298067088815 4.817609332051976 0.4407873548676925 -0.08993024660324513 -0.37352292529307934
Ni 3.6799924320311095 2.6803477681541943 2.70058403667704 0.9638962907534366 0.8380060811158148 -1.1775901875696042
Ni 5.029885818502316 4.8019267712674125 2.4280366011714603 0.5761690489355175 -1.2434471952737296 -0.2018645082814072
Ni 4.850857236628277 4.636261935059606 11.386974934076393 1.2132449606587365 0.4845531870997332 0.5117570012080347
Ni 5.725238449659667 8.082238304755213 12.363104878787158 0.5005091962083573 -0.2845645556848002 0.5847287655800704
Ni 1.6674305787179844 6.510552350278027 0.2842491508234242 1.558582424656535 1.3641550893794634 0.4850661221804098
Ni 3.112904393237503 2.0591388399150223 0.10697655600791839 -0.24050047548605033 0.19745120970505992 1.685860001559987
Ni 8.429513251863368 -0.02125610931839822 6.97300545320878 -1.1550043318492884 -1.023268976284799 -1.240077250360232
Ni 8.558826875456884 2.5241698230678087 0.9566553640808394 0.6389947260124866 0.8593094705792813 2.1919544051656055
Ni 7.279437509637081 0.6451250158758455 4.684032992861305 -1.3696791045214862 -0.7417030982170065 -0.41077486766600224
Ni 1.000930867384723 7.212345120985112 2.5195048267990643 -0.19499349219318676 1.7753709012376264 0.013996571389408153
Ni 7.735054577753996 4.013675583205689 3.8558045929345584 1.2927984920133475 -1.1482333316740418 -0.9446438702817278
Ni 7.743027215100266 4.020252552915828 12.52087370253852 -0.01038828521285953 0.23358652197503643 1.2226659968623201
Ni 8.516208841496042 7.487282523292434 9.179656328051198 -0.941514580624127 -0.376089657578991 -0.3895216147141808
Ni 7.2986302201365705 0.7013923144376324 0.2584347727613973 -1.2166742980552594 -0.13263164212651352 -0.2852397273749539
Ni 2.1964068568334225 6.743455527308901 9.296678042234992 -1.497694073811595 -1.1825606442010022 -1.8244977406712644
Ni 0.06569033560835168 4.973694232629286 1.4501169179625981 0.7397616582199195 -0.790604966124032 -0.3592772140073425
Ni 6.735227473663207 1.9808993541953837 6.56506639838449 -0.804119455670699 -1.096445400468473 2.330031900898039
Ni 3.449205561481167 4.813456992784216 0.325686796600506 1.0339115436003097 -1.1207315267093474 -0.489027677931319
Ni 6.327209057345881 5.674830218566426 4.2091648333764615 -1.0419603820467152 1.305887721097138 2.464771076285859
Ni 5.465005728590546 2.963932836599119 9.218588157490728 -0.14875682982315025 0.6367807490803034 0.29930083345371034
P 0.028242657308682827 5.825890715653661 12.567054793876311 -0.4282326581311334 -0.469290861624024 0.1487653144635825
P 3.96095948340695 6.642721163218663 12.601033371509176 -0.1394152407072502 -0.848121829393578 -0.4349388665067155
P 2.249934815583899 8.670480286347448 1.3930550922693925 0.0081226291071344 -0.5582536021076773 -1.7337727660808657
P 6.54415783767352 7.769672608336487 5.585758345148051 0.5465121453010331 0.5726952314543041 0.358278340429183
P 4.935482129833487 1.1381076641961865 12.524424901301566 1.1102784496968234 -0.17640544477835424 0.8833366867318141
P 4.08591278588889 6.092116597748525 8.074702611721168 0.9963312713536906 0.9652823724676861 0.7868030758794384
P 5.077292908077338 1.0224405686004052 3.419854579873203 -0.7411801358340009 -0.5255124031209144 -0.027633959667184665
P 0.38441430144637656 5.543765168919724 3.7205853796179564 0.15331051063210369 0.020699951551512736 0.8883117713489023
Ni 0.7423109178062439 0.22445345852532447 4.511498370400093 0.22420790897361387 0.16866539582161919 -0.25305902887735127
Ni 2.140251759003168 6.775008562298318 4.782803388049195 -0.18634764359273068 -0.995816279390485 -0.26860468992143416
Ni 6.2325043423241615 5.622041142682137 9.062301660477088 -0.22670959234954505 0.7138243695288674 0.9233024284914744
Ni 8.248122069219667 2.4479827897542465 10.028592604453655 2.3741615442274013 1.0207827195278356 0.3240865250388225
Ni 2.522354542939768 5.446907659374298 6.850337214405606 -0.8616124076808452 -0.9315091326719829 0.2948721082583954
Ni 0.8482393547854592 9.40342472357343 8.849753338108076 -0.05248135772816768 -0.33008825114821216 0.6757386184007396
Ni 1.5517726051328966 1.3479686422148414 11.160835727974879 -0.03259824565099547 0.15245124795560197 -0.49362506749401436
Ni 4.272622100767002 6.955870668321785 1.629447438390597 -0.14653591091243148 1.5770825403432516 -0.7682304550835737
Ni 6.131377731774096 8.277367235503585 7.70122195229223 -0.8806833082693671 -0.46057019392157456 -0.08020556311631347
Ni 5.329206355393827 2.581337464085061 4.855686429089508 -0.4106913068132605 1.057255360532573 -0.8607053224855435
Ni 0.9178111059439691 7.364372551205876 6.886891847858363 0.16873995781329648 0.7509984074760034 -0.1766882661260957
Ni 5.114647541867931 4.285493257855776 7.187956513194505 0.19602913254655271 1.4051153338419091 -0.001638821155003629
Ni 0.6618365394666555 7.4309267412269175 11.20127633798314 -0.41777469602260303 0.26184063172472327 0.8430066196541999
Ni 4.824102379263733 0.154507704928374 10.499361332332763 -0.6890970419855165 0.5661471459231411 -1.5549006049295737
Ni 8.476537216989254 7.503081845813876 4.73567451980033 0.17376569316266205 -1.1784679621888672 0.38015174346350655
Ni 7.1940372455229085 6.041836074804997 6.962378310750651 0.414341501971338 0.25526786360321196 -1.0480816644531046
Ni 2.695088937435171 5.515797084132921 2.5222012931601143 -1.396514993767408 -1.1943776914405881 1.0579356744290491
Ni 2.3586691830524886 5.5056077981880875 11.502901094775876 0.5699580350287992 -0.20730341990879136 -0.021141152853989396
Ni 1.276233150119792 3.4062408911139643 3.7236293945864354 0.1741189627370227 1.9808568083217046 -0.22397779524067876
Ni 1.660817120965071 1.3868831398340529 2.4003330546947734 -0.19791375116377527 0.30988683649967275 -0.43522580161951496
Ni 1.1072752680515698 3.7064645070641498 8.272937587110736 -0.15502697910257815 -0.07940903535694711 0.11580222927400056
Ni 3.7736116277802814 2.52742638088545 6.875409972998237 -0.1124335699120838 -0.9084913316205709 -0.2211063872301547
Ni 4.59380809729125 6.893904849679659 6.064805297731666 -0.4630227692271251 -0.7989137431000435 0.024983666528531165
Ni 1.055954835888962 0.8958106405529671 0.032006398920892555 0.39592983223336975 -1.7749255861700917 1.2552526725490898
P 0.15983495917347942 5.817252171526752 8.02045766293017 -0.23955019575763908 -2.04837346311644 0.8566908020095116
P 8.489727644452307 1.7841010954900698 7.961352506841581 0.9098874406371492 1.007841071765503 0.13708710679470584
P 1.773975663620092 3.4795180030162447 10.518118922922163 0.9903061482055332 -0.5661450890406121 -1.0478579784780726
P 4.2514864019897605 6.465526105494054 3.8726666297018135 -1.1506979911644504 -1.2800113675510083 -0.38852891178360827
P 6.97942369993285 4.179915106087197 10.584807206500402 -1.2461897910158732 0.49320469212714413 -1.765842392921901
P 6.528322027109303 7.817845946809777 10.169124476798252 -0.4358354101790558 0.23742800720831367 -0.7135250931208936
P 2.311900634226024 8.684528182815706 5.7898277585772915 1.7950724934316118 0.9295900612723991 0.0863381583766126
P 7.109968794970012 4.202163690169067 1.6062565506040702 -1.347420550233602 0.4396097896198236 -0.5959544590925607
Ni 5.559482393344925 3.0272031027704394 0.16123427561388895 -0.24198168801726708 0.5901008285252611 0.3182665759229358
Ni 1.345204672974658 1.3478591780865172 6.797306405237934 1.0091399930825846 0.24919466082593858 0.14716120320125625
Ni 6.898885467518405 0.7580016884004319 9.209509020247316 -0.07665564098152605 -0.48871991688291316 -0.2785828841800686
Ni 2.9983228169142686 1.596041723029295 9.02230164358533 -0.42819769112814 0.8790863960958925 1.0943854326156508
Ni 6.599008487974579 2.1333281528866697 2.3297733897781385 0.3616040623683062 -0.04558334505675375 0.6250788872623428
Ni 4.335153484072134 6.741704101255716 10.179644891731265 0.9373411659727275 0.9878857116894987 0.8224318808266415
Ni 8.62071971801346 7.823072858937253 0.135347833667382 -0.25826988365432935 -0.5856811021910107 0.33798488028746954
Ni 7.6238390233767275 3.8159195133775397 8.060149355860483 0.40990763456970053 0.6185380008200315 0.027173217980682233
Ni 3.3676912739225 8.795123440465805 12.413305128036582 -2.1567431473717953 -0.5122866484592598 0.5739293609717212
Ni 0.2542477698530012 5.045931435312488 10.50563636348894 -1.3050269157587395 -0.5403283850878243 -1.2848584112306647
Ni 8.744861161543664 2.354126421727039 5.392676393599339 0.7618446061618879 0.6844268902033568 1.2235172891190218
Ni 3.8636367513161463 2.502249631370911 11.378510620353735 -0.7417174963947097 0.7962361962678802 -2.2419826733675907
Ni 1.009085944944867 3.4631166277890193 12.62957796737182 1.181161192750314 0.7765528589063401 0.02954068977159428
Ni 3.423061878833099 8.679711761169447 7.768443873496049 -0.26259473628192836 -0.6208406808112791 -0.1009152848598391
Ni 5.780572566527491 7.92614245776507 3.4042340487613565 0.2931512689125467 1.3814557854414402 -0.17101229878724097
Ni 3.0274493970591685 8.51948364333507 3.3474924056434983 1.1586529843454692 0.5125522434158205 0.6382473063235008
Ni 3.440804189632294 4.450738481571673 9.397224492904938 -0.14258643934638024 -0.760898954419167 -0.3869831645630432
Ni 7.246014462455461 6.275396036605815 11.483755818731993 0.20075070639193812 -0.34556629217915324 -0.05181467067844625
Ni 8.190425351582181 9.102553444863991 2.5873671131535794 0.20219052416225822 -0.3277567748015581 -1.1914407202994513
Ni 4.999719329138337 0.32206627055618686 1.2066486281463111 -0.8005700477565438 0.27780281148093444 0.9473049620536589
Ni 5.785179181927796 5.747103909292402 13.611328895072024 1.289029768999535 0.07389221930377597 -0.38507257780389165
Ni 8.114320416364864 0.09871475092265822 11.26090144868127 0.19092497855076795 -0.693648923022257 -0.36083247430960436
Ni 0.09045841904381423 4.727044185483046 5.998063194290334 0.38124291964515633 0.5964126296759019 -0.5954356104746132
Ni 7.838087688539039 6.57050220455685 2.599196536621135 -1.1980507694168012 -0.18183021533835136 -1.164463163269343
P 8.873435902270993 1.9410452894747239 3.350963330712441 -1.5276996190347498 -1.0654162990768101 -1.0498508405383855
P 2.0320738341868925 3.608266061946754 1.3465273645252407 -0.5740350333116502 -0.7620878325209456 0.9054983104305179
P 4.9817489680718 1.1867371032041603 8.202991833513787 -0.13057321693558804 -1.353756776864275 -0.8218382131067007
P 8.670899898839357 1.8558000995423443 12.30582959804372 -1.3571033247390045 0.2642790659628868 -1.691504344329958
P 6.510078005721956 7.857326009091997 1.1420456362126452 1.1734406841776048 -0.8270398119122983 0.6056801710207569
P 1.9467283021368824 3.339522504900436 6.025539602700748 -0.7446570386390078 0.5949219040629883 -0.2432780382311875
P 6.770301604780383 4.012736016104241 5.888384698714949 1.104174907902247 0.9513104836686261 -0.7732729026034877
P 2.2009040081054034 8.525130167954455 10.290351437911827 2.0994368574511584 2.002782404750202 0.4866620059126199
