# total energy = -340894.396985217 ev
CRYSTAL
PRIMVEC
9.07625816600825 0.00000000000000 0.00000000000000
0.00000000000000 9.07625816600825 0.00000000000000
0.00000000000000 0.00000000000000 13.28402126819284
PRIMCOORD
 96 1
Ni 6.527426946593767 1.8700358999304667 11.455315896140291 -0.6008832638527458 0.5692252706278327 -0.6015052137074608
Ni 4.457078031891777 9.371417943447774 5.759460248589309 0.4987564751833088 -1.5181379434882436 2.1587660913390954
Ni 2.8805955454980285 1.6266288120218717 4.894245076272618 -1.7407049744243248 1.2017045641193047 -0.04565636438653427
Ni 3.3191603336158337 4.178255385141385 5.040356493327214 -0.47650769108743735 1.364359749191102 -0.6779675077312582
Ni 5.339807659333281 4.573789633928343 2.9580459781645363 -0.5511586429341088 0.5415234338371899 -0.6141337011047489
Ni 7.2585830648968725 6.454517365820788 2.7637142174362594 0.28736962923376314 -1.1494139822457043 -1.0143300219239564
Ni 5.218911902343852 4.488127910620069 11.362567430560443 -0.6866439524593336 0.2768926409618393 1.0025703102848669
Ni 5.66770563326399 7.907136158848567 12.345863812250764 0.15092606956032714 -1.062864479189234 -0.18820603695770813
Ni 1.7427232285122454 6.617445273757517 0.3648909864185121 1.0375167444530649 -0.18654613275678195 1.0709619114853879
Ni 2.979490453017308 1.7607668294803371 0.45826389855097766 -0.11539933740862705 -1.174250838783726 0.10665167312298407
Ni 0.656395888517353 0.15902693223447212 4.520445742595463 0.22761076400757577 -0.002069223824202888 0.9002645728354044
Ni 8.674279640249502 2.1126079721000957 1.4017300294926194 0.12335304503806499 0.8075364517720479 -0.30201051907538956
Ni 6.699204206111929 0.6994463956158707 4.996863972462526 0.166163712445688 0.7524114857734461 -2.2161317737427577
Ni 0.8729826339406805 7.755172370614784 2.4630831378860023 -0.39396473808719895 -0.7887157195211191 0.5832413824012666
Ni 7.545238522329088 4.085877230889253 3.722714364000079 0.9395302032042464 -0.4350437675156959 0.17775655948961
Ni 7.5911825404882824 3.88061765549016 12.7700227636198 0.8442096388233654 -0.12539090140370016 -0.6235331400417777
Ni 8.031553503954505 8.943808198774882 6.664049135875656 0.7635813863473365 0.25375296962058236 1.5174116068451802
Ni 6.937573970812631 0.5513118806458891 0.13243621907742048 0.2249275607484578 0.15501438069708787 1.236493903884348
Ni 1.8076184734427567 6.524023349831677 9.447263693694183 0.6952268090323382 0.42447319108870124 -1.2087229044186667
Ni -0.024411503603510954 4.6780123049125475 1.5398706767433024 0.008704726862849526 0.25656652780997746 -0.14785282995164215
Ni 6.067315121907425 2.189719860342001 6.962687069162033 1.3712335934927997 -0.07032712766033694 0.46940527571470125
Ni 3.385126576994149 4.546324877122787 0.5259183259232898 0.6170508747515437 -0.7374561500151945 -0.25607416155459123
Ni 6.1812221602120285 5.877131211099882 4.908976750684746 -0.3319859823915573 -0.3105015872655362 -0.0836770666046817
Ni 5.247792555402437 3.1317446815081236 9.227532932488486 0.4675394261505561 -1.6585672272823047 0.11739219946893975
P 0.24155008551519871 5.569309919936484 12.563920911475314 -0.9122338293821386 -0.5976192483894933 -0.47127523904390445
P 4.014628605336173 6.152441345991798 12.5024029421586 0.5719007605774666 0.28893800216214754 0.7230518016644063
P 2.498839056404009 8.525637762455517 1.3893627202978902 1.5653896773863558 0.6090506301548865 -0.2766584134638461
P 6.320424729652484 7.843520666300601 5.870448362310744 -0.1779203387609839 -0.8815685390877979 -0.04787985440041431
P 4.767077624982913 0.8185486840181283 12.604264878428618 0.5812996852938633 1.7595167078141891 -0.33151032830671934
P 3.9023280647032763 6.314897288510851 8.151872010933081 -0.17624886459583194 -0.7443659897611504 0.5331364953250753
P 4.792364079860731 1.0636739075722261 3.792946448653547 0.4033369233307183 -0.8281425580581738 -0.6634687998944508
P 0.20636052549840353 5.9792844952527355 3.5191765547497016 0.5734624486376317 -2.0235047248992184 0.3390200064202032
Ni 1.6837457038187542 1.2226536432649306 2.6232092049681786 -0.1424550559748385 0.9106898819337863 -0.653369763787236
Ni 1.949525767776819 6.375127336812791 5.053042379178874 -1.005325761542817 0.1831219375665814 -1.1299098507745058
Ni 6.094870641293303 5.39813169344845 9.239886627296167 -0.43886057015862484 1.8289316080729017 -0.47961409792690307
Ni 8.663714875899975 2.1258774613432294 10.226305241749579 0.2845218753723229 0.4838145091614958 0.03293197484133038
Ni 2.3510866518971847 5.0286009239238565 7.179508889668396 -1.1463535981528257 0.904164936331075 0.21383479326940594
Ni 0.595968885416113 8.878613437329307 9.06827092517098 -0.40109363582249635 0.9414914406956754 -0.21187946931524798
Ni 1.618251425858115 1.1034642227855636 11.527647319276614 -0.25294281501446114 0.349870575981462 -0.21816761631680492
Ni 4.059991742981306 6.642513898442561 1.6648598261052703 0.17292854197334734 1.3931645892379363 0.010454619674420703
Ni 5.518700705148718 7.821202147799324 7.943499279028931 -0.2235551058809634 0.05296961021849587 -0.04427851020240116
Ni 5.187181304263143 2.975623967095574 4.934455622232848 1.3189975190062186 -0.5470752168933546 -0.19297106244651926
Ni 0.5369051362713155 7.265780537516438 7.243311353131826 1.0320094414815904 0.10228825394796578 -1.2690098742341822
Ni 4.9520245349058545 4.651446097652183 6.981231679573505 0.45948415994624736 -0.03572830663954492 0.3080754943225469
Ni 8.339293108795612 6.91896764184654 9.36567357973917 -0.10185476595497295 0.39881923796602287 0.032030288962667415
Ni 4.737743159022715 0.24991839542092342 10.326479901651403 -0.9143436766362899 0.04050413076163347 -0.07086320266946505
Ni 8.241115225660877 7.476649240379455 4.683560621447655 -0.4283784396803783 -0.34980989794685563 0.986168986108708
Ni 7.332000916119656 5.9826154819505675 7.097679162501333 -0.13743009195642136 0.8978042842203698 -0.04977912830565621
Ni 2.277913859641271 5.246612641858246 2.6280577420090006 -0.6753982043421851 0.029041638647988696 0.5941891396620218
Ni 2.2810088636302646 5.405320089809984 11.451197997871063 0.24687218334034905 -1.1567668230663497 0.27984169628783423
Ni 0.9550220226682888 3.3963992894701907 3.946310703501705 0.07706804592859631 -0.282980499027132 -0.8092806881566643
Ni 3.88373988825325 2.7809200797879754 2.9908974941122266 -1.5848009920334318 0.21836739103243683 -2.1607586962890917
Ni 1.083950268016249 2.9949927017363733 8.361919312444181 -0.9865806197248298 1.6447616888577803 -0.7617726152733719
Ni 3.471904680040389 2.727469996236118 7.214339029867115 0.1121556336603488 0.2838173931061306 -0.4511792396249778
Ni 4.094000481828107 6.813038634352274 5.966451574020953 0.483556884624735 0.7591418625187443 0.2193886332080996
Ni 1.031707326782679 7.5075266702051335 11.573477884210408 -1.0092577496073714 0.5961971712309861 -0.5309132624215115
P 0.3154462555362818 5.4026607462065375 8.243372491033496 0.014382236863601036 -0.7544269735415782 -1.348450277049697
P 8.455605355478758 1.5282603274684619 8.084881058022926 0.4651873809786118 0.12174044913530645 -0.9107736998968442
P 1.871533482505786 3.2060792347921634 10.472976152046568 -0.204171559148029 0.46510973366314096 0.5249804418768443
P 4.002675173507714 6.0129574125523435 3.8589417360575657 -0.3320528310737507 0.6365583486568521 0.2684247127001442
P 7.03735835161907 3.8602414562077825 10.425605346124703 0.317829231275201 -0.5751015269029516 0.2948710798171309
P 6.3935067593280746 7.634458138786 9.955258225255406 0.02874159090906663 0.6904052192739787 1.2239127247852277
P 2.3186027243998 8.454062391613279 5.755846990266674 -0.3062615810422596 -0.15050517997282467 0.8933950994090808
P 6.7917275804925765 3.8706337716546964 1.5503646462801774 1.3697320692466088 0.1972761175797764 -0.22685974477416415
Ni 5.291385822731283 2.8540474907537283 0.3607395059945659 -0.08009500568037818 -0.36780479186237947 -0.2510186014085548
Ni 1.486064803876581 1.0215328415285387 6.967495670667514 -1.0138065453203187 0.49936171286747544 -0.477860605570906
Ni 6.667364692934833 0.7146228066715781 8.95433393521487 0.4820376197667311 -0.16572611068763718 0.685265326944252
Ni 2.634075301084375 1.5926745307232644 9.233284557203516 1.5372206711513074 -1.5533160340512733 0.5559390950418878
Ni 6.500370621399662 2.0002166688868757 2.6322418969618626 -0.5480090415615336 -0.14483255506807963 0.1250268331960621
Ni 4.260086927560055 6.861070191858886 10.421075385740814 -0.06779716214963162 -0.14434018881269337 -0.7496385510139992
Ni 8.251353244721244 7.32350553860148 0.2026319986987596 -0.06897935538319089 -0.13156977652090246 0.32021110124381624
Ni 7.743763514268259 3.8942138900224545 8.236252166607205 0.2802777553839883 -1.2386469456716087 -0.24483638385724288
Ni 3.223514726472095 8.313226095727021 12.406877141620887 -0.23899278059227227 0.02415885663439065 0.22946504360749514
Ni 0.07570143774369552 4.680853173676638 10.317685915243967 -0.046881237932570874 -0.2521236615472755 0.8893301853110877
Ni 8.39310624266876 2.3041170165803457 5.777845116859412 0.8878134915562451 0.5012874691352787 0.43754082290593677
Ni 3.6775908395669976 2.6187364250098906 11.577063913758947 0.4813125686752485 0.08693156898623738 -0.278005928630676
Ni 1.3205592386586964 3.4665950690915293 12.732441609611508 -1.0141670139835308 -0.32817072241052514 -0.11130794094807282
Ni 3.0313068101233624 8.473903091671753 7.900724690174593 0.4603909880312329 -0.3759999260786621 0.44996670737411537
Ni 5.40023738531193 7.867291386087036 3.573494328569441 0.21741685419370946 0.33445861230176593 0.23720843499833988
Ni 2.999185932947267 8.530802153275863 3.6820645271510886 0.6351784375901899 -0.6862883688921277 -0.5529460738518348
Ni 3.4229927255046517 4.485804388563815 9.343926865493923 -0.3210014583555955 0.12187286094811269 0.3917993550047639
Ni 7.32865177690576 6.221520745875171 11.437741537712464 -0.005185657965997521 -0.8812672057972952 0.36956111243185386
Ni 0.7146763565939683 0.16682253025836247 0.3493687699317764 0.15734508571279354 -0.768642860030644 0.41493825501507253
Ni 4.867833165398801 0.33227999130867614 1.5715531706564403 -0.7903527409039098 -0.5148292123754553 0.10617524770719779
Ni 5.8968720723200025 5.546265300792629 0.39320346572427956 0.31235818085830075 0.7821475793852981 -0.09364909021572904
Ni 8.153057370232093 8.860297548620247 11.085715239428847 -0.8211180471112245 -0.28968799295429465 0.1206947814796115
Ni -0.051296287520807136 4.897240241423257 5.6847245247002425 0.19932348702710834 0.074396155523388 0.3143970656652005
Ni 7.941771159499592 8.920808960921187 2.49410124971118 -0.5166012166742135 0.1506242220491922 -0.1068848721797127
P 8.482752443253187 1.6587315366819024 3.6032245193798444 -0.1429826463435344 0.7731590027334426 0.28782702848615593
P 1.9506058424826553 3.2566612208058334 1.6394345044795584 -0.7953591929795658 0.08291653428957332 0.8173421250085602
P 4.634527952680089 1.187247160681165 8.143596278859286 -0.4139864326247644 -1.3079741713125217 0.7282145768122684
P 8.643610964358563 1.5140650599060392 12.4344145084907 -0.3337351038721801 0.8558209978100487 -0.3539066937240486
P 6.384140061038805 7.731419803344413 1.3094880191109708 -0.7446683514929175 0.11814861801899007 -0.15085150756864987
P 1.631911194196635 3.2818750656193942 6.079843988495128 -0.7662519912009642 -1.2121550700286672 -0.5419355816739441
P 6.8865381718973495 4.000478719063913 5.9618952924887685 0.28714877147220874 0.8018373445047416 0.1606255562362782
P 2.409283618399903 8.5924390215728 10.162235936300002 0.7443595620032472 -0.08788262004559703 0.7431148909628685
