# total energy = -340862.9399017817 ev
CRYSTAL
PRIMVEC
9.31342268232635 0.00000000000000 0.00000000000000

0.00000000000000 9.31342268232635 0.00000000000000

0.00000000000000 0.00000000000000 13.63113551078024

PRIMCOORD
 96 1
Ni 1.1753073595516415 0.9836743770235337 3.9791327784547414 0.5041719897719252 0.0729419395753647 -0.5443259362829916
Ni 7.861366845944333 4.343519504646128 11.672763952809385 0.8682880199288079 -0.2729567962425428 -0.7416997557828968
Ni 2.420130105067017 1.8230931520652505 1.8800335548928333 0.9536926107475575 -0.6730371603091763 2.3093494328480224
Ni 7.9040968286347955 8.395547510110456 10.354592416605906 1.4329454686802998 -1.370676435437749 0.3877897196247386
Ni 5.595150362050504 0.06763593729177805 4.266218097424933 0.4734347085890685 -2.9232309087326493 0.38556494405927794
Ni 6.0667727669028 1.0853396976532395 0.7616638041420076 0.3346571014658172 0.23925940399009762 -0.25797266412888475
Ni 0.06573506774794122 1.6641968498241906 1.8973993625921874 -1.1388079245950837 0.24321016110772953 0.06172395937235821
Ni 4.879749121774741 6.650631226986737 6.096825318808986 1.2557157282284375 -0.10233761912866246 1.5737079674440637
Ni 4.837540690747457 5.601408982008653 8.197928790905113 -1.2416973024621583 -1.6679324705472889 0.9840033459159571
Ni 7.2292182899035415 4.487169734161755 4.774932138951824 1.008203340200928 -0.5981075008798216 -0.7549396515119385
Ni 6.450485776241741 2.2614293846996496 8.79987950564783 3.625814158130059 -3.252818308985043 -0.6845839846065113
Ni 5.483566246397837 4.028306718212233 6.381825362468717 0.08394369000250705 0.5229060758463188 0.8038325205578994
Ni 6.781065709894306 8.999550903184687 8.407152965958447 -1.19656852844432 3.0882656497802166 0.6752529370135725
Ni 3.281128080172771 8.571515315898077 10.967598163923514 -0.6835187765667906 -0.24736634936794813 -0.3753082993282762
Ni 5.452263833184532 7.789448596960952 2.2202119018324065 1.0664084877867506 0.2584120656591485 0.6780204724563806
Ni 7.301835045578681 9.147261784935067 6.085975181530349 0.19013359299772417 -1.2039092850801072 0.2608612985305894
Ni 7.036998561754357 8.444573366449296 12.76127766486997 1.7322468163546427 1.8695246990039158 1.5461886789778725
Ni 6.727886067095147 6.874591099209394 7.875402173737386 0.41596746761053527 -0.9939116061686043 -0.40010041867129154
Ni 2.1310880360176476 3.2804575137486838 4.310615182753058 0.28058911597681996 -0.8195177925036402 -2.1621329509287985
Ni 1.6260490710316589 9.019695836174982 13.13800188192231 0.7269783904123222 0.9315171030917827 -1.7721999597088125
Ni 7.056258719601758 1.561385978220002 3.1077484745136776 0.000666944160037561 0.34402440161333014 -1.7903594042266586
Ni 8.22810148596228 2.2887735933263276 12.851202485024611 -0.6430341861891828 -1.0201808242777786 0.29550691362891685
Ni 2.877959331112737 4.945725407166902 5.6259787220556685 0.7434349933064487 1.1070470872437195 0.23248608982200605
Ni 8.883468404437101 6.332847935927173 3.288920620826021 -0.8957039500479155 1.2083788908156865 -1.4862639775977822
P 4.332045368056187 5.486406840277652 4.113794623860829 1.1913013665081098 -0.25829945134068416 -1.2757153112788158
P 5.597227255280663 2.9172433474571946 2.012051319635054 1.4411886825256985 -0.2300430275981522 0.1260087374933572
P 1.2921256186812127 7.65460886518403 3.5017844814145422 0.7006927172429158 1.1307434024193945 -0.40654720273789985
P 5.110908269633783 8.833362191081676 6.6555794483911495 -0.4131459390013401 0.27656816774288495 0.03567996990011274
P 7.905493842018311 8.391514798143374 4.150844350133918 -0.16951385986484355 0.2974853775115264 -0.10376021050780194
P 3.0506208718927033 6.585874999949512 9.215724754149885 -1.391728371012042 -0.9382572500290938 0.5035490114759457
P 8.969645503354897 0.29482942982614674 0.06330240177611278 -1.329407401485633 0.8905758847927308 0.04451582302418785
P 8.906062767559826 3.1535993851029143 3.745318373824765 1.4974737302706727 1.6606176820534304 -1.757823379272166
Ni 0.35923267814846976 9.08297122902568 5.801411006046275 0.7854031102081184 -0.721773706282931 -0.0665748597067563
Ni 2.436614862992501 0.1236859769229337 8.46670671515546 -0.3927054117588011 -1.2589074956928576 0.6220812380865995
Ni 2.181138368837732 4.538374931378879 7.689705566746963 -0.25609781570367507 0.5531275937350216 1.497598428773995
Ni 4.161879824521435 1.548766290655578 8.038157958285971 0.7878513146382947 0.826999445592666 -0.5922934653012057
Ni 6.310980019763876 6.85773380438164 4.377148410814114 -0.4551639353043387 -0.5557120666327462 -1.7448997292319628
Ni 1.3920120756025753 2.1442665289354776 13.578764261132747 -0.8085507519691754 -0.1400284488112169 -0.226923508132564
Ni 2.921127044663368 5.182472608560006 11.743031863315705 -0.3688324617959454 0.4486109646771693 -0.0948780775268237
Ni 8.004020539246385 8.77440822629732 1.9889596197477972 -1.6218531596907229 -0.1271510786279165 0.004196811690166966
Ni 4.978303759270485 4.130251441518642 10.929484844794441 1.1686080386756519 1.406446908169139 3.7600995338099117
Ni 1.2407434664355104 2.558639325331307 6.286802374806501 -0.771628167911213 -0.4939055748489107 0.09737513291706455
Ni 0.11396462645817676 0.7535564698063391 11.564027881774578 0.3415751687418892 -1.6032075195650777 -0.7494133223770707
Ni 2.198750050892585 5.736537429884835 3.1098477199579735 0.7171135818031005 -0.4409007405171052 -0.6001116757940439
Ni 6.855712791686821 1.0127043151329869 11.155870863593139 -0.4179850122611962 0.7558734761801176 0.17185510640351048
Ni 6.851875661593431 5.227791722721251 2.4141425057052697 -1.1175837251089848 -0.18262674309771773 0.4340644343215621
Ni 0.7880170646086453 4.2029799582644625 2.1099093131235516 -1.148113775377042 -1.477597817282352 -0.12989881657638275
Ni 8.179457479948269 1.8082289296646448 5.02094712713117 0.6392603209690475 -0.8187796287860349 2.3006673316929924
Ni 0.7458263290842195 7.417135216831498 11.61322324240395 0.1120882707575231 -0.505659115840413 0.3968675135562907
Ni 2.922812774146143 0.4555027330910384 5.641545176517055 0.6576264821810609 1.0164653230994043 0.4995730575473332
Ni 0.7781923351535082 8.232907212001574 1.3425261361894314 0.19921395803243755 -1.210644804031728 2.202942785856309
Ni 9.041899035550323 5.706948686421975 7.835394504460267 1.551572054776973 -0.3544911054726088 0.16780150515942713
Ni 7.1523825538101855 4.506374011473816 9.316717645670993 -0.002208834725860712 0.6782480150861545 -0.498918968903102
Ni 1.8402764166824916 2.265341022173493 8.473781190929584 0.7505335520244429 -0.5010995214941887 0.11335479617477252
Ni 0.8675834961956462 2.9649001306801885 11.498271393154756 1.0407131399031755 2.035406875653443 -1.0841915228017844
Ni 4.973023048680797 2.161133137185789 4.094506525745758 -1.007751340265174 2.905802171733241 -0.7803686331080044
P 3.62487719332061 0.5995068726638224 3.576114906840127 -1.8293296148422686 -0.7529593878571161 -1.3617315675396355
P 4.725872754291781 8.461710063953753 0.3482437708737363 2.3069418518477947 -2.1130673037504 -0.02256065890933534
P 7.556203242449194 6.703503526841522 1.076802083195448 -0.24542079560580313 1.1617493638826057 1.952181808984515
P 0.1350436957309152 4.239730723673479 13.369240193873084 -0.08722981695294654 -0.22757579700458225 0.5457780953484858
P 5.083824836838694 3.5701235821093564 9.060670238713493 -3.653573073410882 1.3934486961372583 -2.6727288419491972
P 3.2065461923381537 4.972967168145456 0.3542965641933814 -0.8456592267856985 0.6271697083531006 -0.47419806911765433
P 3.818037577148028 2.945695853368128 5.831099403130492 -2.142199702339982 -1.8654492433829615 0.3642294158062953
P 8.267255114390943 1.718168133540675 7.249583019666176 0.30109957722534597 -0.6403885210362197 0.18082388556102405
Ni 7.591361412601002 3.500235659243352 0.967252950371436 -0.2419145822247576 0.4536181880837736 1.1853379498358232
Ni 2.8978248614263284 7.762421044701204 6.888194284195813 -0.5607568281455052 -0.7093514213591784 1.3724468970746104
Ni 5.977783014372859 1.6567647386238875 6.154757601138866 -0.5311847709153432 0.8291329469959011 1.1523720364327639
Ni 6.200802230917283 6.8167361182867365 10.167573303612421 0.7994264210704038 -1.1822636817858736 -0.034825078098985184
Ni 1.0895121109586725 7.6488997371567296 9.337464225758454 0.9418789059420811 -0.8359101178187347 0.23863514014253742
Ni 0.10375804667821208 0.5433758062564229 9.224816517249804 -0.19788469769805275 1.759274767006712 -1.0106872829650466
Ni 2.8816753867128884 3.3942768508149745 10.103997087213141 0.4393513937521143 0.3501102027960938 -0.16614700027513965
Ni 8.829757896552206 8.102137445881961 7.802353275255612 0.15007452019330927 0.2747714808537784 -0.5149739654834357
Ni 8.027229588257857 6.758462033349025 5.860406881232137 2.1753484211778082 0.7088904225623598 -1.0592250826644338
Ni 8.120438321206015 6.360639188836576 12.77252362260727 1.5585122335402322 0.237682546421281 -0.881628702901772
Ni 1.3144405791272347 5.977699193569848 0.5506197863210789 -0.6220434428701287 0.09593068716105416 -0.07381225799545997
Ni 4.180869893114689 1.699792750836167 11.14488475034517 0.1741619001598162 -0.7082116513277803 -1.4773759310795331
Ni 0.037777104574772125 3.454702336363301 8.477584792701768 -2.0103072523723378 -0.775647059262619 0.2658088723438519
Ni 3.0497919772851505 7.271650243072187 13.144421624090691 0.7479938163217247 -0.9272313312322354 -0.30131143612583594
Ni 3.26486684438865 7.162468990439168 4.6845444416961115 -1.6061527182363307 2.8337508622929453 -1.9716715422780107
Ni 5.066390109812421 5.894372001954422 0.7811092990982886 0.5468317334239808 0.23922572253868477 0.03711156014031673
Ni 0.5864373467899066 5.130336069087205 4.881091185965171 -0.18820140897201781 -1.2290191927738576 0.9192508841299201
Ni 3.0559015824823925 7.90056704148578 1.8751263125476711 0.23142859509176916 0.36529359540475154 0.7528136063078712
Ni 4.647546870589341 7.883337209755754 8.715570679294922 -0.7341404553784001 1.4465705156629023 -0.48359056607614775
Ni 5.313279628369847 7.319893771916258 12.12507218196345 -2.1759960820641364 -1.0580403183277134 0.3544299132173702
Ni 3.520175696937397 3.0236864538585233 13.136161549625092 -0.10397875427651125 0.5639143999378804 -0.33208239876010553
Ni 3.661423063433377 3.785841075369273 2.145036748980923 -0.07814585237380735 0.8793738454293243 0.48401068433270195
Ni 1.121373329525384 5.174211602752151 9.902338205302671 0.9873136412361125 0.16183937403872128 0.35857504573399535
Ni 3.6302510381358664 0.7553865573387444 0.20243096464042748 -1.4478848635989516 1.9685962457867967 -0.7866765776039032
P 8.562984220836075 6.200913991987964 9.884767502307065 -0.9128005005188861 1.1028176225434039 1.6752963671115275
P 1.1488479260678568 6.62489824046238 6.389485652521661 -0.5094352950533936 0.128601695031514 0.07590590729969508
P 6.241697469364062 5.298573734152707 12.64121460932162 -1.7257203280900344 0.29990607113787704 -0.3716753305613792
P 7.318627146448538 5.061584383773126 6.873090706835499 -1.2051580698855437 -1.4044579027635682 0.08836264500580912
P 5.21810576326221 0.00174347270262742 10.223242424261006 1.0954560399720101 -0.8513601338252176 -0.071592881746638
P 2.200594108558825 1.2149359725306996 10.529601871212435 -2.0270556754752698 -0.12894802262733923 -0.5591491173387532
P 5.489163613354456 2.286966789350314 12.580843141624122 2.0722338146738055 0.03255402267662135 1.6837182726266355
P 8.33298925079663 2.559151563571929 10.453090242224055 -0.6537860253890483 -0.3077317378298829 -1.1497585100693166
