# total energy = -381167.9747982869 ev
CRYSTAL
PRIMVEC
9.27115092672627 0.00000000000000 0.00000000000000
0.00000000000000 9.27115092672627 0.00000000000000
0.00000000000000 0.00000000000000 13.56926652355522
PRIMCOORD
 96 1
Ni 5.9873462861049 3.468930876541727 8.427884955869848 -0.4189959700242139 0.4282272588144947 0.6247027348698467
Ni 0.36615390348898164 4.62983656914691 1.6030598549658106 -1.0358563260315063 -0.8561837804661061 -0.7360947508912936
Ni 7.340174071897269 0.16328907098539364 1.2577818017850066 -0.23499317251457594 0.4925341484226808 0.10812465812408475
Ni 0.2618358415435249 1.2923613401246796 0.9973412684403452 -0.7441425608964346 -0.4623668808106811 -1.0326270204609314
Ni 8.211133793663551 1.1301718276268953 12.63517121107139 -0.9893388991962575 -0.4429082578654372 0.8941800572042213
Ni 5.495873309826173 6.635677863158178 9.937004875121481 -1.0156381992124186 -1.0286166137499575 -0.3482453816732132
Ni 0.2186248617876273 7.805993773848718 8.323387960713507 0.780783609158236 -0.18792115872743764 1.741824946961381
Ni 3.9258039179489708 9.022109169604942 2.597931288826905 -0.1191037828434078 -1.6355309142881316 0.7421450708504316
Ni 3.14914107120355 0.529201924552977 5.300277986682909 0.4249442171878488 0.6249099657846464 1.5832609012398218
Ni 0.127075955870706 7.354646338331991 4.891625127821237 -0.4090152046624182 -0.4014011397605861 0.3523768873430835
Ni 4.420048968323778 7.734642997114812 11.825398303391744 0.19478111907206455 0.10421966664272374 -1.2674985797959781
Ni 6.946020365807706 8.396083981431833 12.686789270393595 -0.6049114111755324 -1.0291925408580855 -0.034154534394521825
Ni 5.864420097342574 1.2129353910239298 8.672430101128453 -2.044255070072692 -1.9199016087945708 -2.6782664839379744
Ni 7.170521282986958 2.096457522155395 3.5107354227177736 0.20683625046438575 0.6915138789571251 -1.0780291027448143
Ni 3.462237105647512 1.868887854053725 8.55015752849915 0.5697983695224833 0.16472029513094213 0.2541617750232268
Ni 3.361329900089842 2.0497309220074107 3.4123175211560826 -2.7072878108709895 -2.874965388858042 -2.0999091691018865
Ni 2.547443382790025 7.009759527715918 9.251525650950555 1.280098013727544 -0.29904063781378826 -1.0414420476494
Ni 7.102526662850983 8.193416624440774 5.290304082627512 0.2366854726153343 -0.1600974516469501 -0.535185150323988
Ni 5.958151432163232 7.491850099361756 1.8577411494192166 -0.7717819198802579 -0.15441248544703084 0.004315082435586117
Ni 5.414324267186953 8.898534000285006 6.65359436212365 -1.6123789016517005 1.132783829888191 -1.0513780758161895
Ni 4.7945478346685535 9.0070250072159 0.41287772229171876 -0.12339161158548427 -0.17728681894204307 -1.1029724029537133
Ni 4.601448305326845 8.327004636649564 8.731429850735942 -1.3963684408872143 1.0262828234104584 0.9652312075147765
Ni 8.423322622549843 4.782550965503575 12.57324177780383 1.0030338801848468 -0.7013198093039534 -0.3181552471560521
Ni 3.14923378271178 4.417527215299918 9.251715709542427 -0.35918825383796205 -2.7901704065988335 2.1015500471394195
P 0.5589882779171522 5.311896592894309 6.070604928955883 0.19868071123678685 -0.7015666352074369 -0.5593483778337528
Ni 4.399949113339487 6.627352369719113 0.24364306228352708 0.5008827774976923 -0.48000387716615395 0.8561971502025447
P 4.748803976507809 1.7773723242797663 6.24511950935778 -0.15327117275373606 -0.3035076724462063 0.7619765037540619
Ni 0.9581734375583635 9.32232757555574 3.059774594190366 -0.27426085976594705 -3.109486763942522 -1.9211213401342848
P 8.20479232650061 4.269680173125335 3.6105922068871967 1.850831750580103 -1.6864426135363342 0.9153860018578751
P 7.903294501736237 1.7526832496380835 7.7030283728083395 -0.6343482283794107 1.536022022857516 0.2117390870826418
P 4.9331886240758855 7.275619048716631 5.057550914100696 0.06596987913290574 -0.3728680653178998 -0.24652045642788512
Ni 8.782635343846524 4.935951427021143 9.964998187916486 0.9361587156288522 -1.1951875889363934 0.9772467439184136
Ni 0.30001073217236207 2.1817428385762887 2.9664725136528127 -1.8148417056387387 2.5350812346653306 1.510342872923857
Ni 4.3888979015584555 3.7322871868202263 1.5802769289333392 1.729538416284544 0.6950087794842611 1.837151167769217
Ni 1.0501617960242955 1.1595242911325536 4.824782911732562 -0.6968512320096386 0.2546549126095614 3.169080307235439
Ni 3.430390702570463 7.2987969257741625 6.819682393542512 -0.2603221381976678 1.1776464947288363 0.34181530977715324
Ni 8.836649068541396 0.11723555638716031 6.765147630171386 -0.24580748952126055 -0.09173053303677751 -0.9167707980205437
Ni 8.645542836626635 8.904096690778813 10.86424697218903 -0.05942333626363959 -0.1250448309181911 0.2801666837274207
Ni 4.591778495018443 3.1919923303075146 4.531266620711721 3.3867015641304707 2.468655241831613 1.965135798042022
Ni 5.120132109271114 1.5966219678343108 1.7054671327266446 1.3270664120572824 -0.11851525732978944 0.6474816804375751
Ni 6.711469521136308 3.466029006334124 11.606308956947883 -0.23219838337825816 0.4666068870339577 -0.018564136155432547
Ni 1.087617245349267 3.152997869945923 13.215298639980093 -0.1284435721870949 0.35606153528352225 0.09591963141746063
Ni 3.1705852430571784 4.638124977982684 0.10522107203561813 -2.0514634148956734 0.012343352056701323 -1.4090298384049669
Ni 5.786477532373506 1.7196594104065124 12.841940125186548 0.2213979503286445 -0.8768487650146254 -0.018848243054754635
Ni 1.883545543504908 0.14646564070195478 8.066562249074737 1.1581032824895863 -0.29485051099184056 -0.6238141616173063
Ni 6.987861069471962 5.810563982211693 4.720706826823586 0.0025785593604536238 0.2012934662692856 0.8650198907004973
Ni 5.943113625528306 9.314168962831488 10.672051380052563 0.706349658418377 -0.8771588400558765 0.28092078828462586
Ni 5.205602848708468 0.6759985453393133 4.146373867179266 1.4780631869545446 -0.13942629645084373 0.4087591227875541
Ni 9.345598164121501 8.157138611270325 13.372878536288676 -1.2051130755802213 2.3362758249252216 -1.682170982744174
Ni 0.007831341100198836 1.1107487666526836 9.265000341556723 2.3072552693231554 -0.4880015506596498 -1.555328950716244
Ni 2.142414616785069 2.448622186167533 10.95611017011885 2.2170594277633495 -1.625498212642478 -0.8087132456889685
Ni 2.017949416986123 2.920041663216083 1.7812244874467282 1.1135396369465984 1.165477206356154 -0.5565947263480155
Ni 2.454611349599199 -0.16722560162484484 10.315003600901944 -0.9405553020346512 -0.07301238780198394 0.1343275417716977
Ni 4.028583895972889 3.7569484480094397 6.853714006868544 -0.667636043898263 0.11882584659167277 0.25028815100043345
Ni 8.17995491344576 6.282252322634111 7.403581326606016 0.338609658355662 0.09381004127362554 -1.3102966487981111
Ni 2.7010385384748763 7.718659533095939 4.498944607597451 0.019950474979997898 -0.45532540058286747 -1.3118848192208374
P 6.924789430423006 5.283387804113545 8.929337398894464 0.21961566161724114 0.6031224375959097 -0.2258333603921788
Ni 9.147056469246683 2.438006718475183 11.195065738546262 0.5083513179605954 2.2360837913846523 0.31270296579222917
P 1.4206833386659987 8.359796697110559 6.212851268918285 1.087447567845237 0.7003849561945099 0.3544736219711121
Ni 6.437785148840972 3.8957468469807632 6.18080090052313 0.13233570815264953 0.11296758803868287 -0.6471952595454079
P 6.3904744661911375 4.624774520797544 0.5499164568368342 -0.6794451207180491 0.3890099651850849 -1.1002858572604857
P 5.002230884254861 2.4317301493680037 10.462298082487477 0.6658833228732145 -0.8708987180787775 -0.7711620269080719
P 4.001020764576072 5.648022165982634 8.015080475669631 0.887817091100671 1.9149782033510245 -1.3040966906349865
Ni 8.24575227083668 6.36457087079164 0.6984792318549545 -1.6918329313139704 0.12848599538925612 0.12816872125915346
Ni 7.345087781833464 2.7679298916629134 0.6749648120225473 0.7731633736088168 -0.17399966355033905 0.5969739014960106
Ni 2.4253979533558856 8.059374325841656 13.177684653976048 0.9858565970746117 0.15829382277930804 -0.5319992963968386
Ni 0.981175162750258 5.43176330188504 3.589451201665481 0.1463577334633544 0.3207510329076863 1.327097522405534
Ni 4.751965438938456 5.7186219794998765 3.299380997405553 -0.9963991484771485 0.6186333887473153 0.9629480679075546
Ni 2.436690215058315 0.5238728670599092 1.1940611821784404 -0.5944722181200794 -0.17828414985830587 0.1307429097442329
Ni 6.8288052059523565 5.250521574445965 2.5038828806480997 -0.39640780031105277 0.22616888935472662 -1.818600658460539
Ni 2.974175912871654 5.529573943067824 5.31049479488987 -0.17895649333498212 -0.7933755868906336 0.538886253324659
Ni 8.671659668495062 3.077521431095777 5.622045328491636 0.2562297132958491 0.794820032646644 -1.6690280176043129
Ni 7.364010200663234 1.8962748335849045 10.002068884482302 -0.5375459372466806 0.6885856495667366 1.1319165967918894
Ni 5.920547644425093 6.300015847611004 7.005784985358092 -1.4970880647964797 -0.253458321198299 -0.23197341185164566
Ni 3.5303615218950095 2.0337196445360677 13.556511293525006 -0.32272409747365716 1.4204799892234374 -0.6061285714120851
Ni 6.30994525014245 5.893197749497205 12.430873058650564 -0.3302641146044441 0.49126042391657976 -0.6594987595031093
Ni 1.0865232495521515 7.1410853791238935 10.9275744950007 -0.7465411430355982 -0.38237189104327696 1.2477260251547415
Ni 6.901704264873705 8.18799300120931 8.166459826307783 1.5293790636197016 0.31480227152341916 1.343929506361208
Ni 2.773724360927296 6.898848750420217 2.1119208746130975 2.1790356402214086 -1.3835481491940946 0.5900769172658612
Ni 1.1527192664284622 6.112942566304253 13.376379322839444 0.634952694732629 -1.7728375932928113 -0.3207867712416282
Ni 3.952727339938999 0.8678983877645241 11.610746129731778 -0.08976878132471637 0.2192729335658417 0.11392326708373283
Ni 7.696761074851983 6.783154059299841 10.342792948378843 0.32092458237107313 2.008880033007508 1.0368703691183174
Ni 8.104524830349728 7.360107046166745 2.7782941111679595 1.5205977178826457 -0.7900123268453556 0.4429244558153533
Ni 6.872370343669693 1.4572951132660756 5.712715329310535 0.16719883857842174 -0.34788439878936867 1.2922842713810905
Ni 1.2952632103322825 5.2421589964036075 8.171073150957314 -0.11717468414149497 0.9022679764186784 -0.7947323580288442
Ni 4.025941617988331 4.012915651081998 11.454848947297572 0.3593422629173231 0.12340703820445198 1.0742382682438143
Ni 1.4588063108502267 0.9006292586300882 12.49614103332949 -0.307961851562818 -0.9793596764963585 -0.19854727098271613
Ni 0.9926250340166787 2.256394145003187 7.137189641548063 0.562640161211147 0.11721505046112717 1.305109962390849
P 3.0625299802149653 5.9831000990279595 11.88244369440574 -0.545228393492603 1.096423288981286 0.2413340271309392
Ni 1.480964361317227 4.518490047762527 11.310919893460792 0.02900564320373069 2.277223241737439 0.3452436187324119
P 0.9947481275551486 3.3387731901374518 9.387720710770777 -0.08278926468308967 -0.14841230199953795 -1.1771847246010694
Ni 8.599910232275766 4.089365560768561 7.7880392631648725 -0.9612742797495575 -2.45312552162713 -0.6057020253976277
P 7.69367378162792 -0.030979550475096967 3.454708004064144 -0.2500336117874662 1.5488173748499714 0.32048800905428676
P 1.0683239804865774 7.61135523347039 1.5171255579873058 -2.496847130884797 0.8162792309616844 0.32819231967707996
P 2.9930334336456617 4.336933101195469 3.524617116845071 0.360333937406631 0.3430733505539704 -2.357812670555733
Ni 1.8508369234013191 3.333117788135414 4.942116742318446 -0.8082285927430661 0.00871835370960434 1.2364522520131351
