# total energy = -381172.5580633731 ev
CRYSTAL
PRIMVEC
9.22252475496148 0.00000000000000 0.00000000000000
0.00000000000000 9.22252475496148 0.00000000000000
0.00000000000000 0.00000000000000 13.49809720597210
PRIMCOORD
 96 1
Ni 7.870779279758162 5.432989318052486 4.850284382583726 0.2687227035565372 0.07537368894530891 1.5074786640021842
Ni 3.7729071991976197 8.983430775729037 0.20913642652975864 -1.5574506250449371 1.1402220313337912 -0.24068250958986934
Ni 7.296114541348438 3.1053347466645542 2.5794590085779685 -0.5411184850892874 -1.0039003419502002 0.06489618645275275
Ni 9.068480898782983 3.274199174458716 5.678217172858033 -0.17571201825575547 -0.4697716579151845 -2.6215124669763816
Ni 8.387628010639672 9.043930537953488 7.2709250595552 -0.7815719093874862 -0.768074903342316 -0.3287548770487693
Ni 2.590893094737401 0.8230494634301226 7.229580481193581 -1.1233303977847753 -0.7844217201314554 -0.9754215177842168
Ni 4.500306169649896 1.2416285043106539 3.2286233017512784 -1.9430281675097052 -2.591670443914285 -1.4092982615750052
Ni 2.3400865347230786 8.060588061212648 9.160604698304331 1.0295329549166399 0.4166781205243147 0.8021067961160444
Ni 5.966447815971533 8.392220827954882 13.049339430082643 0.37458839044311615 -0.0832752031805727 -1.3743721391217814
Ni 2.8215299931686633 2.6880339477115087 11.674355984943192 1.054124785323391 -1.547157213538729 -0.45582573725805364
Ni 0.31047445050818767 0.0447061886254616 2.8548343744712454 1.0565966439026513 0.3406721973116455 0.3353741821374998
Ni 0.3616013608502137 9.165022287649684 10.385773762730537 0.00399729408485118 0.46575585188757207 -0.11483369471314417
Ni 9.008257812300412 4.484867663252985 2.9607808940569242 0.8413878531038542 1.8958476531691606 -0.10901965913452837
Ni 7.240604165002558 1.0332732256254702 11.894671955949853 0.26498097712591784 0.18249973060155023 -0.5845534163444707
Ni 2.868804654931245 6.516599083650678 5.293791907807655 0.8950583460441166 0.6369129037827934 -0.1876085125830253
Ni 9.145488980272948 1.9737678524738091 1.2129501414123074 -2.4105557665857194 -0.005110581753687973 -0.974298202813051
Ni 8.290773055932174 4.515883013917746 7.355895868896473 -2.0068588888124212 1.3252237024215887 0.2307032868899704
Ni 0.36168251906783183 6.087152219629096 13.202704482816682 1.0425123978954431 -0.08768335955059738 0.041334854193044945
Ni 2.545370712673393 0.044586295803980214 11.494682758166247 0.7577164429261273 -0.29111289832627923 0.07465712249425853
Ni 7.737476907320324 9.1803685687993 0.954684403396897 -0.42734717020238655 0.3805181256639898 0.26957939512987766
Ni 7.777364326774706 1.2672302329592937 4.48640321362042 2.099292361453494 -1.387548014382107 -0.99513853659717
Ni 4.8626591662655505 4.775321857078729 10.403793653799188 0.29510247910164666 -0.2002439419588487 -0.1860349974483183
Ni 5.624199923265832 6.176905830295005 5.487003800887267 -0.41152305868593647 0.8684998788292978 -0.589270876424798
Ni 0.09689276705888852 2.4965835568551995 7.799605367411976 0.740616292910731 -1.3622473308337895 1.2070673710931148
P 4.331017505718184 6.2858238473484755 0.23313251362302082 2.762694569776068 -0.6809895823870337 0.28932263919507595
Ni 5.3364940418094315 0.693406588804885 8.364014658322677 -0.6323754209237561 -0.9592914449915738 -0.1247391267523142
P 5.622087965102814 4.516464032975694 3.9141105085710817 0.3167447399617706 0.715739070053077 2.2934073076964694
Ni 0.7751061686246637 5.862307066727857 6.060025085390224 -2.085937794523459 -1.7054620920616308 -0.41397460555022253
P 6.4432800120524485 7.4933382326853115 11.175695917332883 0.3382443045964433 -1.360493067146844 -0.23727939744559134
P 0.8702042323712232 0.3797097881562671 8.375380497799112 -0.49222047383700396 0.47165987607683285 0.7435275530202549
P 8.530697036765877 2.7584571465447265 12.349193020205558 0.17194149546972967 0.4181655037031185 -0.32836329803730546
Ni 4.927327509667663 7.1439705508885645 9.40461056858324 0.22783573553418826 0.056855318426147244 -0.6601808731717985
Ni 0.9316778932070926 2.267597490350489 10.207260729564542 -1.2177155948355802 0.21949790509245426 -0.21115956043008793
Ni 9.03346297238569 6.6701356753446825 8.649337439389017 0.40719023563853746 0.9631480997335026 -0.19632532363073285
Ni 0.6901436595556456 8.367799582471596 0.4593213883773238 -0.14783843177393893 0.9031699194076575 0.5615574696699297
Ni 7.3866243990421525 1.375548785905358 8.892168360017408 0.7406672007533244 1.1571987683974458 1.7735960687253904
Ni 4.016557080021977 4.286020807563748 5.521612247186577 -0.7637773044082266 0.2049395476623051 -0.5339029411774546
Ni 6.9882482208337064 5.7604442810923295 9.510677903242874 -0.4199804454246703 -0.42878158865606797 -0.5935666755866745
Ni 1.5157034942170937 3.451502212380222 0.1393689492047964 0.37842884723512893 -0.6606117900616301 -0.381114364487092
Ni 2.0034367145280867 3.399957521667957 6.485997824346264 0.25525989318341197 0.8425024263242715 1.4441323385350548
Ni 5.9443690917695 4.521029182716716 0.7560468990190157 0.10337865879866712 1.0701070196842601 -0.2913108732696983
Ni 3.197301763265503 4.864918684824238 12.404616704818983 0.5705095366568949 1.128273086502031 0.5512206065202959
Ni 2.6532373619077196 8.76954198220625 4.630859307465919 0.3811778707351758 0.9415850288507461 -0.03762372389004488
Ni 2.8440606210824337 1.299665852432372 9.454593885858829 1.0352343761767915 -0.2752517629243066 0.3157160415869401
Ni 8.558106380261469 5.449866538307172 11.170782156157092 0.7551674512520284 0.9473211600035749 -0.21040159921814083
Ni 8.663593618115625 4.181317484311584 0.48911291001050144 -2.71052534397168 0.2657332819109101 0.37734718413517593
Ni 3.918512419624394 7.216948389071808 11.651355008268226 0.23851635517648598 -0.46945849755013985 0.2913057310633757
Ni 0.3579335627653564 8.131223378114642 5.226098576294321 -1.0912443158835077 0.8090032661255616 -2.4989608347936896
Ni 4.169558765281679 6.640909494477413 3.3216250856268594 0.01597143572759185 -1.004245898215077 -0.47124592846786584
Ni 1.9631158364114245 4.8105519015447955 4.08162199198745 -0.11519673447951773 -1.8520615092221457 -0.2081536837242286
Ni 6.187235057991862 1.9362137317759482 0.4946030789818758 0.1634249733582863 -0.3257672551753551 0.8779638524556751
Ni 3.721002830020911 2.674439946260466 0.591291105991773 -0.2312789568877823 -0.6503363762775509 -0.42401476339504396
Ni 6.413380586879938 5.4822468226318755 11.96449753518061 -0.5729407718062068 0.7169220346175846 1.509299005040375
Ni 7.240428937032701 1.8855267358635115 6.6770765474559814 -0.2613271824234144 0.6979892022688238 0.3146022396974711
Ni 5.0016610589861195 2.4587896505143765 10.166145792068685 -0.27425006113266964 -1.3619868780835511 -0.42269244503919456
Ni 4.1471019175657435 2.389620715044348 7.539834513360738 1.2901091181066429 2.187144128261156 -0.6124223748405968
P -0.04949636796987929 6.450353688519849 1.988903860059597 -0.8911245582073491 0.22674610201443532 -1.1123268475854198
Ni 5.445919297723017 8.338213723139884 4.2838636590295565 0.31561808255649515 0.49376005040998194 -1.0445026888525948
P 6.541536790518806 0.8354989495622548 2.6690189462245617 0.7213595015636479 -0.15080419927048222 -0.37287217908295783
Ni 1.2252308553418925 7.104691818066318 11.06386358246494 0.6537672563359708 -0.9940111078609463 0.5191736053870801
P 4.0147217976008385 0.9646576416392021 5.722126535346879 2.6101980704048273 -0.3268664017768048 -0.7986522619085408
P 6.242514871219508 3.4339148577213763 8.595939021206155 0.04489428940952914 0.4444388355773507 -0.5694841807161741
P 2.507420023412171 5.605376750293255 7.172349181733207 1.4304221880378138 -1.0322087019765902 2.1047071047111627
Ni 4.883870973143026 5.383252242187171 7.932507482276561 -0.3580849934714543 -1.0878031514124427 -0.7154328516665679
Ni 2.446652807970569 6.975226015915883 0.290575008899697 -0.8006772627583695 1.2349314444932344 -0.68329766169492
Ni 4.956258569743593 3.2992014389999493 2.434044694413092 -1.226792617436184 -0.02553131150188506 -0.023351016021114623
Ni 5.895369817882531 8.913597818478497 6.4187370292427355 0.7548519768941387 1.056706430007638 -0.30167601855410625
Ni 1.7450676842357076 6.865284298617455 3.029404778315449 -0.019920393073010856 1.7446557315419566 -0.09645339243374355
Ni 3.0106563077931794 5.831485389082413 9.744505795230486 -1.9900526158883598 1.7230486947951422 -0.25633589985641014
Ni 0.5650336558348774 4.568220841756735 8.989571132693829 1.4734056335778754 -0.3355292196581254 0.9225282693296111
Ni 5.186923135749043 9.069965725264407 10.462293972662321 -0.7637153408220395 2.010549450290131 1.5581548502008133
Ni 7.4084080024528465 6.661743177840986 0.5691247678048114 -0.10491129339310963 0.11304883489857949 0.21368232685194166
Ni 7.1732336218547506 3.5842512333343004 10.710078311322839 0.44984329442237364 -1.1296614822091253 -0.09317317902057502
Ni 7.449153116707058 8.360845798825677 9.573228754967129 0.15184858137459653 -0.46112015288777364 -0.6944166544262169
Ni 5.105829475803981 3.3723176150541336 12.363014818017415 0.7024482664814419 -0.3484083896136387 -0.5258183643971074
Ni 4.091471648398382 7.638878895438981 7.021224280255924 -0.6841543532682605 -0.06470823881166274 0.8782366465010876
Ni 3.020164730789126 3.7311199396489934 9.213315116142386 -0.8687019675377748 -1.536803381108231 -0.2757338447670477
Ni 0.7005134663613124 2.496150098192921 3.3078567784584316 -0.008889846290462109 -0.8154001707908409 0.38785168321092556
Ni 2.466739466831065 5.07941616497916 1.5095465367077885 0.5801228913769428 1.4176867427490165 -0.03622735776315051
Ni 1.9063696417518134 1.1252955773747957 1.4000364335666937 2.0982829463523736 0.1331540902888868 -0.11105417306605389
Ni 5.77407517264229 2.118828943941552 4.825596606135764 -1.2992601884782915 1.0688363805019527 0.5992529273381745
Ni 6.1259698262148765 3.9673918006898807 6.260633443302765 1.3707795366745168 -0.18091207439945617 0.9142045799552643
Ni 2.7236513382162086 2.3157298469128995 4.5153702415427945 1.0503087540114107 0.3140731066668785 -0.1481500494770868
Ni 6.851293728603051 6.966676735491787 7.448479872401816 -0.04654082387401662 -0.12352428050860662 -0.16641259523170052
Ni 5.249922202175145 8.099866794034895 1.661237701203452 0.6367547809383743 -0.6884851194331303 2.179454987147014
Ni 8.483164144310875 8.043941404076195 12.0963602715082 -1.3478635513082915 -0.31783848724658165 0.2566356904850161
Ni 6.9417574736731185 5.7466104939983245 2.7798930607731247 -0.8933711881496808 -0.5766490738957294 -1.3295971488989358
Ni 0.8835492256545739 1.2967792021920899 12.52715177963532 -0.6311402629650743 -0.481753512867409 0.12831527413934676
P 0.975982902006828 1.1775965151148664 5.080737752772874 -1.499061900693399 -0.49961290964633315 0.02211585806243288
Ni 1.4047749667726273 7.795191467076515 7.047693848481595 1.604721642216759 0.2788659626381262 1.685224681968833
P 2.9030109991523565 8.769209971315995 2.4586651464305302 0.5571266875920856 -0.8361723703411856 -0.592239986355451
Ni 1.2677466943441367 4.300573951586642 11.284044904610552 -0.49483991373772196 0.6626509319788458 -0.2111575035475589
P 2.53163837335141 3.3048179565601155 2.37513858446187 0.24785460185827637 -2.4449663828551054 1.0841580984606878
P 4.94141030492936 1.0266698979192648 12.317107856672195 -0.5684392843914274 1.596371984700483 -0.11137144719615659
P 7.489095871309817 7.723274219237144 5.342573530111012 -0.8994629028697155 -0.6536548991278226 0.4203936217026889
Ni 7.708186168779949 7.875353652023913 3.0828981885030227 -0.5392251247213165 0.46469784293670285 0.5235092566479564
