# total energy = -381174.08762056637 ev
CRYSTAL
PRIMVEC
9.18410815027308 0.00000000000000 0.00000000000000

0.00000000000000 9.18410815027308 0.00000000000000

0.00000000000000 0.00000000000000 13.44187062180119

PRIMCOORD
 96 1
Ni 1.0543723407492578 5.293021888697041 12.034398740570817 -0.9696285652515235 0.9015961471626344 0.5713590291413837
Ni 8.256090669366122 5.26638797534757 4.397951575745005 -1.7418622279572196 -0.7269879034940189 1.3816339628905172
Ni 1.8227331885573863 7.369420141638025 11.191473037903021 3.0786569230458594 -0.2227881458079518 1.0729072081372169
Ni 5.184383074555348 3.062247963517684 5.235662541861135 0.7341826214702452 0.8542675372799998 2.079823454095605
Ni 3.515887796615563 8.304123554475687 9.771729326539258 0.0028174148441370834 -0.11491159913893115 -0.305050591453294
Ni 4.119605139383693 7.18067753707078 3.3593253882501166 0.13573727763503077 -0.22403615928243997 -1.2797977088783055
Ni 9.21120117029431 7.71674473993125 12.312686398640599 -2.0422107859491536 -0.11304832067794723 2.0295339618124335
Ni 6.270238537705293 4.138551954294025 3.2494779454888403 0.4365185522890095 1.0360967241770866 -0.4399484039061649
Ni 0.453387270126461 8.34505712406141 4.8096494241931 -0.9195702151425518 -0.2606892917290994 -0.7281119897961331
Ni 7.0853740478199265 4.414984422537395 6.589151179330266 -0.3221769667209355 0.2799350273325889 -0.11813319140002235
Ni 9.027059803860888 6.559886937434833 10.286082542733466 -0.6307160309434622 -2.6760404228209334 2.9579551995877122
Ni 1.0142745249962242 8.825964573964319 9.68970697594174 0.388482374816389 -0.1608045050163037 0.24353849098142574
Ni 0.010314671752687112 1.549827417805808 10.952530098726047 0.8802919863682196 -1.1490200892413953 1.0823917505888843
Ni 2.376828795523034 5.506350350518265 6.827206933669463 0.08696345066543734 0.5854373616113208 0.7286416370473581
Ni 5.716418453981191 7.386364820993121 8.949139994329993 -0.6404417428716583 0.3223805980913093 0.8061771095306761
Ni 1.6802141998135534 8.003812405298307 6.882977429812453 -1.3991274916895904 -0.1933076198503316 0.23984510129023856
Ni 6.936729259005714 2.3312664354793324 10.176665834639808 -0.47466806677553736 -1.4668153819548675 -0.760569081883574
Ni 6.531636621068288 7.403621760021969 6.743558077536016 0.48167406577972527 0.2244951011967295 -0.5774671989216507
Ni 8.978980998211064 6.166375459750401 6.497705933871866 -0.23384414651179727 1.445814097112852 0.628650149553369
Ni 3.981320024451622 5.542003057974353 9.084297920470513 -1.279990284505086 0.4616210037835921 0.8779867352738104
Ni 0.06035520288232027 0.6567858743223571 -0.01794666554351873 1.1809920141623014 -0.29000526708439733 0.22861066602699984
Ni 8.062581512720126 0.504295699466965 3.207041855825884 -0.19283016599328082 -0.002113189688260877 1.0116103089999482
Ni 4.139415260450869 4.907858765231462 4.069203672807634 -0.8704117511400301 -1.047202347171945 -0.15301586220982036
Ni 7.171915897989608 1.3783601204835139 1.1914910739587834 -0.30902243161684845 0.8917038277495868 0.20985215447257405
P 7.83220734635524 9.186587760716177 10.231790687986775 -0.4679353760373941 -0.424682735996346 0.3440064038912011
Ni 1.9322353088559245 2.7198460471400856 12.200701813935728 -0.32892354141614966 -1.8514583284205084 -1.5911606157028726
P 5.842681571473794 2.3393943711049476 12.782936609560497 0.07036569420775622 -0.348700981153393 0.25268313359517125
Ni 1.1625243971642194 3.8348610533536767 10.065030246040896 -0.24073701697688865 -0.32120071885059526 0.9695784287398785
P 1.496495302350502 3.946897987474441 8.01470200221502 0.08466925531462192 -0.6266891691722561 -0.661331441836474
P 2.0528226475726745 0.40416871666744086 12.002232320531094 -0.17701762444105643 -0.3999001297350274 0.7195952105743736
P 2.8139556023442394 0.5855438297557386 8.235309788077895 -1.1858202887888805 0.32525252032246565 -0.03198555176766105
Ni 8.497908234363228 7.619898320527737 8.6419132117898 -1.572264807239634 0.9327887707153548 -2.543713199308716
Ni 3.1622445319828762 2.5712655470822354 9.868672179077311 -1.3846712070549445 0.45337599016598046 -0.4989657629806374
Ni 5.6859272152500715 3.9803373248901064 8.721798420443726 1.1398111690486177 -0.47776624608488677 -0.7886249595795257
Ni 1.7132127000427448 6.540572758202439 9.004440264140744 0.5690568633707683 -0.6952013551110413 -1.1313838642168708
Ni 6.821303389013932 -0.19426684556024768 13.016811757914631 -0.2370783371783788 -0.24862773257887502 -0.7477161371803058
Ni 0.5553428088390471 2.4568499289761214 2.0058358323701793 -0.9932945414098958 0.15677070126656226 -1.9340331630999466
Ni 5.978689027609083 8.819921430866405 2.390542505665597 0.2332905880011724 -0.6928433964018261 -1.3966229801001817
Ni 0.21191594600289643 6.489509117435864 3.0194472647650823 0.38229192973496096 1.6026647596877301 -1.4255900567564932
Ni 5.5614825511516734 0.028413793489861443 10.759263402532612 2.0091705676647336 -0.24796978727990202 -0.38819338282106053
Ni 1.6732250935863298 1.4491420412367504 3.569985866682367 0.6267940701812366 0.9033912913898442 1.8388041299916074
Ni 3.7519469258643534 5.9874139302580485 13.209891098303814 -0.7563666137664522 -0.06783521447641866 -0.7386162317615667
Ni 4.153595523282451 8.1493713338072 12.430343088478102 0.05708928881382426 0.9506036874095887 -0.09867431134446232
Ni 4.803361983821015 1.2681049033247491 8.977045906644603 -0.0878553663520874 0.4744459234624022 -0.5912904779579882
Ni 4.720502960980001 0.9767207071734678 0.8394972751321543 1.4392806668697085 0.5854635868635659 -1.7014730255068953
Ni 6.98493664216826 1.2413148601384003 5.326959923179906 -1.2700640265303094 -0.04766336751423404 1.1096369594580824
Ni 8.233947784853852 8.091777792215979 1.4233999047790822 -0.8488700204135123 -1.045592579482664 -1.2984292079365638
Ni 8.06672354545137 5.081116963623807 12.472980310107385 -0.6499951908880482 1.3177122245358919 1.2443126285978183
Ni 8.662110902216753 -0.17290461023236037 6.847839950818058 -0.16169770625453445 0.6308186179595975 -1.2006578680223452
Ni 3.8042045006776286 3.2177992015866557 7.596673548086997 -1.1858567984537707 0.4801383458614892 -0.8001630421261122
Ni 5.922381261145078 5.949373354708561 4.816544852518199 0.7744923768328855 0.898422377420343 1.1147552545212545
Ni 6.963565222732321 5.060627218560816 10.459441766314379 -1.0302387227344127 0.16049468708536876 0.2130261813251815
Ni 8.426786501612085 4.261646554508846 8.859456260795877 0.543774691765212 -0.5008318696550988 -1.4645661809093744
Ni 3.1613812258260316 3.1249570532936146 2.3920349232239726 -0.3452173934801668 0.10929990937910854 0.5945220975214084
Ni 0.6143314164432978 4.110935341383038 5.976215747310803 -1.6756907743364688 -0.9853256642718062 0.8975253195273702
Ni 4.029297804912878 3.5785509658512353 0.10469607655516631 0.29433551902863503 -1.9740400425101876 -1.2997862361850905
P 6.107275724438727 2.284188697607127 7.379398675036025 -0.24795256088872136 -0.2054385987859107 -0.9736603121187359
Ni 0.6238810519952915 1.5627678260504312 8.652720151734052 1.3061741419893054 1.3448404482112517 -1.120515296933483
P 4.6363765312278735 5.751529299062238 11.145729750930705 2.4898413889909246 2.3208016405490226 0.39612523607362743
Ni 2.185202381027605 8.070617607265225 0.6726174397816057 0.18032406310647006 0.41234221215312206 -1.1003231382563243
P 0.5517757012718281 6.332754761212141 0.7118170497671984 -0.0871935643983724 0.14989145764822573 -0.2294421607893597
P 4.4446490915438766 7.783935674436333 1.2638150064538738 -0.44546676262123286 -0.5488438787580031 -1.4681212452504844
P 8.409088725396764 3.458000363566692 11.099342657983975 0.5616304889997102 1.8087175950188719 0.581178843445283
Ni 6.1611864387012805 6.530295741292763 13.637314894968563 -0.01702687357529971 1.152498534708299 0.7273812822776956
Ni 6.308113799309853 4.235187139212353 0.4103376820456618 0.07705107664773182 -0.9912402299840283 0.34423626051382006
Ni 4.2474846598933675 0.9214507449192866 6.567214018838353 0.5939837085194352 1.3853952297051624 -1.2515289438405994
Ni 8.328957382647058 4.760196675978766 1.5925528068723878 0.18209606740522832 0.015521749784682947 0.2885687917481869
Ni 2.3964827867533343 6.11169328041152 2.0029869220525907 -0.8170999270907668 -0.5984417442907887 0.045039556738141785
Ni 6.522415776584539 7.170584202322135 11.37432220033359 0.11794267265577107 -0.336496211557085 -0.01593106940795966
Ni 5.083100730962941 3.629201321755491 10.930096077988544 -0.1780308961969192 -0.762448558294474 1.1775523923531332
Ni 2.751990425320484 8.884862258898858 4.6590061734668735 0.7041968737414324 -0.8347919450538914 1.9577269071724606
Ni 6.833444779858071 6.5257220554830955 2.769375023451248 0.04571164310450192 0.18147334621956487 -0.46748260477069165
Ni 0.8505925960692224 8.907289850760725 2.4204376957841722 1.4528128970281882 -0.22933854533195985 -0.3247226159609246
Ni 4.39446712515025 5.029952297668665 1.7420930462216246 1.686923666937811 0.7955178300446171 1.1066377676204424
Ni 5.3867181590388755 8.727262964734393 4.514143400348287 -0.7273442583921731 0.38005969797033257 1.9465863171746085
Ni 5.393900131535182 1.9755108259947916 3.135813587421343 2.1550752727510694 -1.0358365285371642 -1.7925785233651643
Ni 4.09362329770588 1.4469011188721739 11.659586106879324 -0.6845880983715694 -0.08731363491600447 1.2045412622371514
Ni 2.584013089057776 3.4700131768981093 5.2404070520805615 0.9381736891763519 -1.0077677953254063 -0.2675479665221457
Ni 9.030623237784887 2.06619470889572 4.843630623983807 -0.15286108179951094 1.3130909237137967 -1.3548582374585698
Ni 8.350870664458037 2.3699315303763258 7.094511316920406 -0.7285202809781454 -0.10129015170075459 0.0266782806221347
Ni 6.857286724359874 0.30948882835328656 8.305852922021792 0.04324261273871908 0.5597139887032877 -0.19316775183835766
Ni 3.501211591949198 0.3377767995628419 2.646986681145591 0.46530076662802444 -0.7571482291274831 -0.5096232426944836
Ni 4.754704579363944 5.567277723332197 6.9532376932283615 0.9575410379593703 0.18739922478569662 -1.2264781715195587
Ni 1.4678408852296903 1.2155075165135665 6.179187290482303 0.9010690710145708 -0.17851606336345385 1.0656775231579971
Ni 0.8389884755460988 4.196797567556906 3.541596870284245 -0.5170136216212837 -2.550873464502581 -1.5714939905118808
Ni 8.45486231992565 2.8344820838394362 13.346311839301423 0.20959118750170355 0.8944027147379887 -1.1374652945242603
Ni 2.5346209559565813 1.4162170138719712 0.7696640727406424 -1.984848445979601 0.06128327229051381 -0.9896430607002376
Ni 2.9417616499895014 4.656847908074761 11.23198689375079 0.6434378493855047 -0.7108056373072017 0.11702658859940492
P 7.003029335029798 5.81282403619823 8.369392255165582 0.28796303984338795 0.13698580533015117 -1.2773772723622712
Ni 3.8405276480214785 7.975442695527092 7.259309114975669 1.8004548407894476 -1.5254522177614696 0.47625340898478624
P 3.7321092524730224 1.9320332584787907 4.249001874543482 -2.093145110905176 -1.2636164711327529 1.2153332106463326
Ni 1.9724433339055767 5.696213416267799 4.461733369341356 -0.25803668459760076 1.8666689747226755 0.4849311392644423
P 7.743351100956568 2.71820209179886 2.866680648257338 0.6814233274903426 -0.14789319627127434 0.4313642617815797
P 7.400875711714557 8.240532790326808 4.865392368011936 0.9179319082081803 -0.4583994115225009 0.31166089768096
P 3.4485407322736035 6.841535979051479 5.34661115917779 1.4355199142756956 0.6946110298252102 1.9275107886003966
Ni 1.8319999535813924 4.086542350398141 0.38801478901558323 -0.9009292030025968 1.2898458371429269 2.6860589833992
