# total energy = -381162.8525848041 ev
CRYSTAL
PRIMVEC
9.32327415762820 0.00000000000000 0.00000000000000

0.00000000000000 9.32327415762820 0.00000000000000

0.00000000000000 0.00000000000000 13.64555414069127

PRIMCOORD
 96 1
Ni 1.1256268698874121 8.908034260362674 11.93315985287201 0.18544261527995803 -0.922241848437444 0.5969222223224687
Ni 0.4756277681329324 -0.15259682661333887 9.686937884209295 -1.1921405745799534 0.998675603216151 0.25588389992065613
Ni 4.223266092522094 3.3939981411831406 8.280450174557298 0.02290698650516055 -1.1289379737795395 0.4115014614193816
Ni 4.4105333790846615 3.4894964393141965 12.193626030217214 1.5960446832680513 0.6217089423488454 0.29428178297256413
Ni 0.04219154528578346 6.782933744449151 13.202564664260764 0.0031915103541041807 1.0955794529237517 -2.4276096367442124
Ni 4.106203061053428 4.904620297902909 2.2069775103669964 -0.18551717727163533 1.084329076820913 -2.7737863088138552
Ni 3.1679646802938195 6.239545351402941 9.54956782909919 0.4442586012457446 -0.2814828314356829 0.1309758516906454
Ni 2.6771502307369213 0.4951376518260933 13.477891208431224 0.7676894949784392 0.629428165369974 -0.315197964299941
Ni 8.05044220185569 0.7254421046488165 7.919921024008797 1.1788358870512474 -1.6446053657855741 0.6686840255468033
Ni 7.498569629243018 3.3085596559666026 4.044037333016891 1.7091215431910889 -1.4444418993556738 0.7392466662567139
Ni 0.8578232757083559 4.633844443893316 -0.15228169994372748 -0.23022146215754546 -0.29268435657845726 -0.17683070524123096
Ni 5.215225179503624 3.3263391399591757 3.7660368737918577 -1.9408674124129606 -0.055753086500903985 -1.4900401568107626
Ni 1.241328703315744 1.7810437263079038 1.1671844325242733 -0.6034044876127027 -1.279626987628396 0.9235646810139255
Ni 6.765154260456579 4.747187488936686 13.34664840915747 0.8182029303469587 0.6405849533177419 -0.5157730643459633
Ni 6.879084671777627 5.362532912635586 2.9808577540483316 -3.174422802494275 -2.1123443095414456 -1.8342188246137703
Ni 1.3604055620221625 9.28706265167576 5.991149084900308 -0.8269719347888403 -1.5598168112842685 -3.3262469583888397
Ni 5.936678787428778 1.570897124738637 8.12520460572986 2.3137172228984153 2.6345507882175787 2.001423319619147
Ni 6.278712426522395 6.463564985054509 6.069255747247544 -2.0786142642788525 0.9673536531744179 0.1897659252456603
Ni 2.1251005159135223 1.9921785949475495 6.223791814904645 -0.2799766792038017 2.4473767920688108 -0.25707329224306696
Ni 0.5738139662299341 8.173043258228176 7.7508658213639485 -1.2640520160082747 -1.6928798845212456 -0.14905147824543363
Ni 3.9371627756473777 1.1238181546831336 11.359718817612029 -2.4447504101895574 0.5604207849623252 0.49743107150366594
Ni 8.0307514466421 5.097779893790755 5.964826684713507 2.0299376250087557 -1.2050043179164989 -0.00799844482444429
Ni 4.257193487513689 7.497646625092381 7.6973483625206525 -1.1241809187105285 -0.3056000361988608 -1.4255584321876094
Ni 1.662246565828951 8.32368872354123 1.3015011153178757 -1.1182663529983063 0.4072845951245566 0.6186051066125411
P 8.56279341492745 3.8000360579951695 2.3326393976753836 -0.22399039364616907 0.0379008888108315 -1.5034561731063527
Ni 0.7792429910292784 6.545544535524721 5.998148999206352 -0.6830166401193914 0.0030539563349753856 -0.7689339089085014
P 0.6185852615003766 3.7053302381752666 5.7149358973487825 -0.17303215743074715 -0.7459058234444444 0.47761095145394517
Ni 0.9642223460911769 1.9179653319266372 3.9889778046128326 1.3331136466926266 1.3569526580937534 -0.6525930335222115
P 3.24880679130567 7.920606284666088 5.479536275149058 -0.7149276298953752 -0.14800915302384834 -0.15526840568942293
P 1.828070321619145 6.801738788609098 11.137487387961393 0.7445156279651373 1.3660350800109957 0.5767809714879034
P 4.742395325972773 5.453565362401438 8.063471477618469 -1.1404153782915198 1.234180682370139 -0.11891146432694359
Ni 7.646492698475404 6.785973131854279 7.902522861933003 0.8599715296433126 -0.22323911730244134 1.4221699753313508
Ni 1.030874433696265 4.4230638596751275 9.960736343730364 -1.345234855436193 0.42434129349652727 1.5065013876905797
Ni 4.36113867211421 0.40151612880133264 1.9011125813944005 -3.047026954845404 2.4819648144563256 -1.1903855395620597
Ni 1.5728270425081505 2.2065579630257974 11.668367676275334 -1.5141465629406632 -0.21504269753457803 1.492299899379217
Ni 7.798182370504329 8.078467964247757 11.783249993897192 0.7726488958662435 -0.6288645795570201 -2.220043192982022
Ni 3.8089864012740735 1.6596174024907728 4.494790605453868 0.1600426871496147 -0.7003631018176389 0.4522930415144469
Ni 8.047011236932109 4.725343057371611 9.031623583805539 1.633938115879715 1.9500249105425127 1.2331581546428956
Ni 2.7089705657482748 4.502638005389133 3.902178121355962 0.22138380926125745 -0.90445084300261 1.5948339507894018
Ni 2.6386078149921413 3.1118851856869365 13.630502952283361 0.7200132719483987 0.16545254531127634 0.21620715015632444
Ni 4.1138667924859895 3.593861171255916 5.9442213162961055 0.0036365683113227694 0.418872299962156 -0.1343483677073041
Ni 8.438066652026222 1.185398381096843 4.990411202886053 -1.3747871151720128 -0.9828589478988685 0.8386537420021427
Ni 8.344395715647943 6.583546201363067 3.666928603871644 1.4162536098469158 4.518245608074289 2.564938170125763
Ni 9.320906137199115 6.878665124436428 10.131591870632668 0.20392164792075204 0.23952191362286493 -1.7474237812053968
Ni 5.923449061269649 0.1806617467572522 11.643874502496159 1.4174710271937847 0.2115107731219196 -0.07100332779175514
Ni 8.749846266182294 3.5906353183658117 11.785774736563782 -0.024291011336880747 1.169627995299734 -0.4211700948573972
Ni 1.5661702246944658 7.1812240203603785 3.4948041793440714 0.7489291836518005 -2.2204759096440663 0.4444100392219443
Ni 6.098437595646471 1.232387683311089 3.170612490180495 0.6462971732111708 1.1609158122377168 1.4647901239947223
Ni 2.6084376995228356 5.014028921213261 11.84977248799022 0.4215146226810095 -1.1940591317589049 -0.19024749286776912
Ni 2.5266073214406064 -0.0030170115469305542 3.482250390567984 0.806483070806869 0.2001747792838101 0.3315311542423258
Ni 4.707582219927537 9.241602366438327 9.172514107272011 -0.46186011637759167 0.5499327409468077 1.4413951421095499
Ni 1.4628217296458714 4.008224771972176 2.077003608718512 -0.08407507337404875 -1.48321979145482 -1.1116079671415242
Ni 6.1516828148817 2.183706617841846 5.795690369582693 0.44095319102159547 -0.2048241051303634 -0.07955687378872105
Ni 8.610864216954562 1.0275087316924272 11.440323185130534 -0.6241759158320993 0.9951693898351055 0.05056357188016453
Ni 4.6803862289436164 5.897166751162117 4.131314367915303 0.29973277878480636 1.2133323781662202 1.1209079043862116
Ni 4.518543511257685 8.281491584290897 13.435549558430035 1.0062845259116604 -0.2926463042516702 1.4137197876814684
P 4.5530769190754565 1.7960169047515702 13.633231874656001 0.38300849618601135 -0.2663079234674575 0.25052392116032335
Ni 7.013060122733721 7.87787771878357 0.17317142822571943 -0.7909867749434829 -0.7898984269753105 0.6705064234675226
P 1.8118478244261316 5.974717746364121 1.5144381728698257 0.4069143562693314 1.89440192186157 -0.0605034567016958
Ni 5.64194211859962 3.3206799124901187 1.421485128608708 0.46790015192408446 -0.9513405655756133 -0.9759961593407643
P 5.291107308615081 6.206923214806186 0.4313459447605549 -0.33844047976764935 0.4218339536936413 0.6321445358598726
P 6.077404288941047 4.5217134245022965 5.1223774882415185 0.5316398561748908 1.0818572182416528 1.9753194234432434
P 7.346525672792637 8.80443403690936 3.798553657389601 1.3758548943148952 -0.03589131457997044 1.655428681653323
Ni 4.056724444614737 8.109906045014908 11.24269494389521 -2.033527656352859 -0.5142949371385401 -1.5025192631143802
Ni 4.2252519499371 1.3502431930909071 6.986387167435162 -1.5386620315835242 -0.9082681598661712 -1.5285059169861288
Ni 3.3600893927400426 2.581633286057368 2.34438765555637 -0.18665231931734305 -0.7143028518271828 -0.26518537982724005
Ni 0.3806636936163361 4.865471869331952 3.8701657268950815 0.09896690288421665 -0.4433646286765655 1.5659108399971482
Ni 5.541595717859158 4.7754836262819715 9.970233030880253 0.10926185705232151 -0.9584026146287171 0.5665896327771984
Ni 6.359741003019223 4.242500007297488 7.666113529132127 -0.11054663730201607 -0.4445769038171118 -1.576353375486711
Ni 6.129372219604182 8.82256780532339 7.369950399342893 0.45939879932129274 -1.0425447937952756 -0.29376550545777796
Ni 0.25294043037152636 8.97706378290122 3.257207061403891 -1.1754669705790142 -0.22946170117338544 0.8015498951713099
Ni 6.586753407704674 0.93447177796307 0.759500957807321 -0.16568523014737271 0.5572084486726145 -1.1388071532641355
Ni 2.910586371379836 5.686973533221606 5.8916184706566215 0.7693874515061523 0.9495852734474032 0.7206439635538621
Ni 6.03418158952334 8.538730044091146 2.1925264352812657 1.5479462850989278 -4.132814104269082 0.5857579781755332
Ni 3.7701642873018275 7.537158661359043 2.283023729105234 0.1089137296842834 -1.4756697470217037 -0.45926253085374447
Ni 8.479471312965403 1.3239329131606288 2.2876499377875175 -0.9007733941510229 1.0671587356892136 0.16692115943700284
Ni 5.338609390913015 8.535047350762849 5.162836769171864 0.05895128172322751 0.38953832688472917 -0.8057425930964188
Ni 6.84411307007016 2.4132922462199824 12.454229259693877 -1.6366280040070522 -0.1975435123085501 -0.5842723947689422
Ni 2.4067379844230348 6.980736330912929 13.222964920644692 1.1432369069007149 0.06690987444867187 0.08722184653314656
Ni 2.11777242235392 4.376596660818817 8.083312337547463 0.5090645419775363 0.11650825420208967 -2.2631901606831413
Ni 8.408922096724291 6.42599218983161 1.4136116235055474 -0.16528028139947018 -1.090209189750774 1.3608882457027336
Ni 7.571654776079819 2.7355139275347744 9.830503255057764 0.30673363558267175 -1.4129618264695214 0.31907673052905694
Ni 8.259553919983333 2.8923314004005714 7.544176289886158 -1.474506065730906 1.4997843806817202 -2.6743368098662654
Ni 8.063998242613529 8.15047161127169 6.206052420991343 0.4005169373834199 1.1160374636677874 -2.7922979944647977
Ni 0.8061275846532863 2.2116577940399234 8.193186192242834 2.0731578691499717 -0.8815114605976172 1.113800603917469
Ni 2.3983283910505646 0.15373799538139912 7.891237970782185 1.483648394351806 0.38412152674453204 2.312201043364205
Ni 5.158670197910049 6.22910328424422 11.811782942408398 0.18169677508428062 -1.1171391813723985 1.5180037319032245
Ni 5.418248799546763 2.491318728408677 10.357849090103961 0.1501403404342382 -0.7583823586449003 -0.717396403150842
P 1.9536455024770178 1.2864440274059694 9.798913204920355 1.5810556660583868 0.1782026458880931 0.030264712421812397
Ni 3.0446643783526683 3.193473158638696 10.285159250095314 0.7284639738189131 0.39594860128644715 -1.2735584128368131
P 0.676595606204198 6.030769271148256 8.126187278835689 -0.6481288271032709 -0.5408804009365523 0.35197785213245186
Ni 8.455258769741118 2.8059699110333973 0.3840023581248523 0.268558410064531 0.480665936230185 0.3128888565507902
P 8.616905698667823 9.442518926501224 -0.16827111528051947 0.4173718041572296 0.4109157641192407 0.2223765121918299
P 7.079684240516063 8.937020320002373 9.72307116588817 0.037467657928154825 0.32023398406195175 -0.16157480752342496
P 8.026238981905653 5.849813841252166 11.364441056019075 -1.4758594944350067 -1.918342748947883 1.3206484243460805
Ni 5.901324931477108 6.9928006477909515 9.665445872410825 -0.010199823351137272 1.5780734435016113 -0.37409242464330406
