# total energy = -381164.4500738566 ev
CRYSTAL
PRIMVEC
9.30818617241403 0.00000000000000 0.00000000000000
0.00000000000000 9.30818617241403 0.00000000000000
0.00000000000000 0.00000000000000 13.62347134920443
PRIMCOORD
 96 1
Ni 7.750414821975048 8.164275403392885 6.506951893260548 -0.30483256190521696 -0.5087236136983496 0.12017516153071561
Ni 8.967860439027433 6.6694551413476955 11.699387748135532 -0.20793051196982898 -1.0515590814787437 0.3604660921091211
Ni 1.7245556093074277 0.12974308623432726 1.8670555649320917 2.187368071346504 -0.9355439648629889 1.6476670354300333
Ni 2.1629804944984117 2.2974930954176043 3.0097927475344353 0.8986473489469556 -1.281368395799535 -2.678023514689233
Ni 4.156337909171866 7.23433173808025 12.953851091476444 -0.14933661358602024 0.006906754422162299 -0.12944475975809966
Ni 8.290857429543331 5.140697231876627 6.846093801223361 -0.7470746469415649 0.022297120835303535 -0.34745322478922097
Ni 5.6481330106538605 5.418555902559543 2.9782137945292138 -1.5183976249075335 -1.8330687701697268 -1.1990398728029479
Ni 7.270866369497303 3.449772099845584 8.04659479584731 0.913448161405214 -0.7981915202220382 1.3219365470298847
Ni 3.073451433970416 5.539115532142644 8.036948722334575 1.1929730977835777 1.2173497268557292 2.4495396040480846
Ni 0.12776230417941034 7.503692034627175 5.075151776067846 -1.10532496234629 -0.5777261090099921 -0.09418696499707005
Ni 4.775686012414636 2.0270716656269743 13.454254535467543 -0.2995003510590261 -1.459226770974332 0.45574243351562804
Ni 1.4088777774913934 3.29240790144133 4.6653169852456475 -1.1449294641117895 2.610179044241434 3.457762484633039
Ni 0.6045676341403138 0.7269107122277475 4.001867625903296 0.39561718608895735 -1.1752209160064793 0.4662921840070163
Ni 5.572531921133018 9.095187120085743 12.686654017436863 -0.16827921612679408 1.0907817744247925 0.2639399374559132
Ni 2.258594184668085 4.904827789810863 3.1925245461936944 -1.911529839791108 -1.5316565467999685 -0.8603075728264925
Ni 8.210769794202612 1.6859917932664468 2.902644352841956 -1.9279579034401442 0.4623242004982037 -0.6565612741413402
Ni 5.565522856812754 3.5482620195968804 9.684285479333827 -0.16948146396501135 -0.7215361363508284 1.0571070078801665
Ni 8.217899864945405 8.686287801991547 2.1931064396146644 -0.5774216903956959 -1.0186810998038005 1.613507358829189
Ni 4.102266654674628 0.8274707726229042 10.22181369375646 -0.4647271535127415 0.5284524595858447 0.2425846117085887
Ni 1.2610172373487474 8.20930840894593 13.188624029190379 0.26424975538684814 -0.5656442381447936 0.0829306753569604
Ni 4.782387906585407 0.9917686390380024 5.885966480039114 0.19218996130612062 0.0004419726334250453 0.5933699861948362
Ni 7.485717926788619 4.106669426817371 4.042342412601582 -0.2089656381025627 -0.0687312439281268 1.131316244203729
Ni 1.059411229231053 6.12165906656426 7.078960422373166 -1.1764151934248965 1.9849996268454846 -1.7264872881630458
Ni 6.3840475315363125 6.278017980842899 12.826294498215333 0.4026992897467194 0.3768347632751316 -0.4110008676338792
P 7.210884416668898 5.452772795575871 10.808712528570442 -0.7406921404539889 0.36754665310498635 -0.4771530379809201
Ni 5.8863760402384395 1.2221369429719242 3.934431677447178 1.1594132595502615 -1.5886316786334318 0.47685813244832065
P 5.519289095220778 2.0290543093191613 7.670437023233239 -0.8790966805085376 0.07483118617827758 1.2986001862967893
Ni 5.187675648376466 5.969740157173757 9.057442424443412 1.4902576721382077 2.724581822064746 0.5956099312689483
P 6.056762391343956 0.5524231742171722 1.1870413571643175 -0.41396149292409995 -1.1767748907571605 -0.15499304054084917
P 5.9008037290782935 2.956484764317757 2.876200726245089 0.19882597856539952 1.9953308335681634 -0.5638992304292288
P 7.865017212295241 9.245802883387483 4.456005660468835 -0.2258009644923466 -0.39609515416664043 -0.16987741385184935
Ni 4.066122967084203 0.9316377552280247 2.40815253800066 0.676133539846313 0.883830081428465 -0.19763735757393705
Ni 7.920298531017758 4.489971232453759 12.617541664619417 0.7789172453734585 -1.2289528583122964 0.6167989066417378
Ni 0.7884918114707893 0.47184872073043704 6.541949743111498 -1.9175958434795297 -1.0903516288659094 -0.7691241705424368
Ni 1.898274291125634 1.135589426305489 8.420926302299849 -0.4633819523387568 0.540455654694308 1.6206431985430216
Ni 1.0373042866538553 6.370308648486231 9.346750164334729 0.4113392248099045 -3.167080760306907 -0.4984186322279158
Ni 5.153859007373114 4.127612846101032 13.02878012994294 1.0218828945705498 1.0214056978238153 -0.3986814268365779
Ni 1.0433452995938979 4.916295475391961 0.951776947211193 0.24641375564669177 -0.09253965920163418 -0.056732676805353904
Ni 5.133185525493554 4.662852177500619 7.416495737372262 -0.31780454868485264 -2.551271214161632 -0.38444754262538305
Ni 8.770619970307088 8.929426937595327 11.54034714536995 -1.2559311866733531 1.9929615620050387 -1.031506533703243
Ni 1.4446584458142346 1.0733828169398418 11.146969228011532 1.4321486838106174 -0.1494497421251168 0.8467871697425544
Ni 3.0362931540680274 9.121026645388607 6.886310751159799 0.8114530132176346 0.05131073445883422 0.9382621351251001
Ni 3.199298113399348 2.8943805450019413 9.182124649760171 0.19242753123822343 0.9676963812258174 1.2900646380219525
Ni 7.173893684120778 2.3409623256641363 0.5068623944981788 -0.2961712866857932 -0.08466874109398967 0.12695618900829103
Ni 2.85112540304142 6.926314543628862 1.350601084401996 -0.8424494615991491 -0.47583406205918044 -0.3438881331457819
Ni 2.4490955264722647 2.1793442860987122 0.6011087120932879 -1.008886739421198 0.7723100244695861 -0.34815102218719396
Ni 6.3687355649933695 3.1369798057975213 6.028290510941795 -0.5938371556392418 -0.8078156735753635 -2.0705646545014984
Ni 8.83034129391774 4.465760639761847 9.594997632606455 0.3590280741110139 -0.5948455422990981 0.5814015009790503
Ni 8.747833530126465 1.709960373113303 12.544683697615417 -0.3296529633830064 0.9997706360525427 -1.6681443294477787
Ni 2.818574675381437 4.970273648025716 13.12656914326221 0.977515167088452 -0.8432179643340575 1.258622360352271
Ni 3.005157270732985 4.962296532325229 5.822848599229969 0.10492774845334188 -0.42774980495744397 -0.827795202021084
Ni 6.919901203234887 6.750306047968975 1.5220550844816623 0.8158184892751821 0.017298896289763756 -0.9075608493865014
Ni 3.4244631411645736 3.4095235020755617 11.42216389576157 1.4985052568589805 -2.6726514517440423 1.6760733544868684
Ni 3.973683368459298 2.9943970073143573 4.399291811867316 1.1221728871415642 0.7634129790902723 -0.20881779967078876
Ni 4.481109839050183 5.494538627720665 11.02715146088039 0.01725107377096384 0.19728228822736346 1.4367237047758095
Ni 0.06168628174877751 0.5859615004487094 0.7475962947495607 -1.0136401949457834 1.858108486747174 -0.9628143705431675
P 1.180715513722017 8.314518839240694 8.096551831978603 0.025567049835826937 -0.8245898077099089 0.214232800038773
Ni 3.398688773166148 2.6203568470945218 7.037599496334522 0.5673995302730034 0.3572272734568493 -1.780426975604295
P 6.435317021942715 6.498752311906336 6.91006989681382 -0.24492611535757172 0.253452407661028 0.5522300216214167
Ni 6.870800520247637 6.903509487075541 3.9601660202443054 2.7930515848013706 0.7415598877709229 0.24924042646220948
P 9.098603224475566 6.515851450228152 0.425265902150401 -1.1512767464860558 1.325146312216434 -0.5789718084916352
P 9.266923158211762 2.329289859983376 7.780255936589043 0.8129923326802967 0.37304649987729305 1.2644248259666613
P 6.03649846966372 2.440196900323296 11.731621066641038 0.07050427666814954 -0.27090736991268183 -0.1335248433647442
Ni 3.5759259494240094 9.398568837735683 0.3787584798797861 -0.7313209836517341 -1.5586415600292447 -1.1091445932026964
Ni 7.3413293401538855 0.965584710840252 7.185032790723781 0.5191586929887446 1.5038179273211456 0.13436919364291053
Ni 1.54217100599896 4.149561549510309 7.891327731827328 -2.600236588316741 -3.901370596778978 0.6124653122633903
Ni 7.705428357353744 6.522348564299261 8.960579575665797 -0.1693901898027857 0.32051783385095767 -0.6104642226729615
Ni 1.4189678514929438 7.558293855746265 3.2874121978282007 1.0636322105931941 0.04481047144647121 -0.9257922847928637
Ni 0.18065607310358955 3.616193163566728 2.7723632534366973 0.0942522710173667 0.34045828152862656 0.3587200559522919
Ni 5.335564113078156 8.113918115248616 4.835787110028298 -0.41440372266784115 0.4348910439879155 1.259310130447915
Ni 0.9085385599860989 3.405241736355347 11.81629112212102 0.2936307796521266 0.5643589436744667 0.18479701127615913
Ni 8.93863273389379 6.056054969181485 2.786640149657711 0.1916114630948313 0.024754324126544464 0.020244352071332877
Ni 8.817477380384398 2.3543754221920277 5.825832803773232 -0.7805660938307912 0.8561567838829126 -2.3342837341958576
Ni 9.080982827718246 1.7482821763092284 9.767497872831669 -0.9172048002341687 0.394864624193649 0.7773457871212806
Ni 4.860353275438716 7.76797006142793 2.208433299255765 0.7273591707905086 1.4098844730957782 -0.053510313213314294
Ni 1.0690172775424922 8.190589646199511 10.32461609624292 1.3795853078916047 2.4805370808708638 0.450277810856631
Ni 5.561678575850908 5.236161991064727 5.334924640676029 -0.21813753440981787 1.0588147345998926 -1.3352615462735649
Ni 3.631775067513772 6.365096064131186 3.54485429257477 1.4807049954527658 2.212342996124286 2.3438855189516796
Ni 8.231880760840543 8.926997500958423 9.021708297052312 0.26991055321705126 -0.4893140988234863 0.011297941511322478
Ni 3.3269133482344553 8.893636961086138 4.19406771171604 -0.4804201387679662 -0.29437691378953174 -0.7773020783675387
Ni 4.180008627055577 3.6529139587107466 1.7328920210009595 -0.23356518181879776 0.27727367845034184 0.05886874931175023
Ni 5.667857057525895 8.779127652629429 7.842187954457416 -0.18372331859600616 0.28941442757793384 0.9783034673177021
Ni 4.277279174395247 7.131364580695425 7.059833030246057 0.8500516994264393 -0.6400409078888138 -1.2006928350253385
Ni 7.743359216723042 8.453536602352461 13.382895186465618 -0.23319725695641774 -0.9324990073890779 1.383824285673617
Ni 6.2926783743414605 7.762915716240807 10.964837807371739 0.3857194673592712 -2.1584264486114892 -1.0080279909653285
Ni 6.410492088951815 0.5926596713449416 10.5227287420241 1.2217815373748377 1.936859062584516 -0.5678767270197381
Ni 2.4549596838716896 1.3958277002310857 5.233443069832391 0.7504641322390881 -0.1525399510146663 0.28822657791741974
Ni 2.3477479935120424 7.339169840921083 5.692417638024503 0.5608069646571503 -0.3905873369745338 -1.2081991707047126
P 3.2899133074999876 8.498513758787418 11.438947486566175 -0.8128864032300516 0.7844093788362814 -0.08004949715442342
Ni 7.405351045857451 4.361527569033654 1.7449759085183143 0.2031148357487405 -0.2619313916663166 -1.245151579559346
P 4.92470076766447 5.762791250092143 0.7683870597771096 -0.6408037541967674 0.1362155028230299 1.5388633489610528
Ni 3.3719835865328935 8.000125537140725 9.27686243959447 -0.11163138572576257 -0.46948600835396564 -0.5048227359820466
P 0.1441940455400533 2.9205737813860395 0.7879119114612907 -0.43511575840421196 -1.0852819276524857 -1.4656599281941856
P 2.1644418797550937 4.5923054331669 10.435619941720862 -1.5803635250873687 1.1706078427145001 -1.9033755861150896
P 9.249693705281071 5.115332424077526 4.881003486852405 1.2103858939433862 0.44232076079308336 -0.33443830058679175
Ni 2.292066422776549 6.443982943432976 11.618410250179913 -0.9131321728266919 1.0423583888160823 -1.4089784163417414
