# total energy = -340897.7636448409 ev
CRYSTAL
PRIMVEC
9.02230300123007 0.00000000000000 0.00000000000000

0.00000000000000 9.02230300123007 0.00000000000000

0.00000000000000 0.00000000000000 13.20505243067142

PRIMCOORD
 96 1
Ni 6.317561004327736 1.8563027785660633 11.275239881430737 1.001970986137971 1.0315415007062365 0.7054983661616753
Ni 4.7163999358074085 0.41083959505790757 6.14089077570365 -0.5285121091791866 -0.6452329936127146 -1.138036336536382
Ni 2.8194516816673842 1.6420862354911356 4.78899699566497 0.3163068810934036 0.2290811779055152 -0.4532854873347032
Ni 3.384383191781379 4.42912980433684 4.787993715557573 0.374913892103335 -0.3415646272189279 -0.050008984928275164
Ni 5.2084041697695005 4.5818142401055715 2.697145340517415 -0.6935373371450573 0.8907556049037048 0.5752038568087706
Ni 7.3615587657239 6.1812430264260785 2.506926319291904 0.46778059562708474 -0.0787667737872579 0.4107321873535249
Ni 5.125299735693639 4.238732141509472 11.819208972466255 0.25210720648704327 0.46300991371131867 -0.7245636103232426
Ni 5.694967954947775 7.986380323975509 12.35797490129012 -0.43315452091278306 -0.8713481469113703 -0.07086166000756829
Ni 1.8490217799449342 6.533013602930662 0.29086732372613683 0.7184652107349885 0.2912854193484016 0.10084303686100697
Ni 2.594227928781084 1.4432888084552533 0.4523710607986525 1.4003207406667433 0.7979688626882708 -0.7245731234049393
Ni 0.6500749846958969 0.07442317400987501 4.611693401361573 -0.41116953200125966 -0.11441460489785456 0.08598617435383256
Ni 8.548009671146092 2.4433299090309197 1.367594391935196 0.5894403121231268 -0.420177906147457 0.8222701584377967
Ni 6.656727423367988 0.614482901101731 4.557168916891847 0.8166013901877937 0.024665363957163972 1.3378573320251992
Ni 0.7117965603676982 7.334527945564169 2.3814387140603857 0.3976121050317991 0.39263136398775605 0.09039561627543787
Ni 7.682076084206686 3.9152194183894924 3.8519135262891036 -0.18389275429433494 -0.22264133581744236 -0.3414946932129409
Ni 7.627346793456043 3.6066566515461065 12.732893098689832 -0.5775160498817151 0.9254693542358061 -0.9708575525626182
Ni 7.987264509681667 8.63728536055882 6.777018182000039 -0.43630052274093245 0.44970574040324485 0.24999016014404044
Ni 6.771355784559368 0.8441005156094555 0.2775359686300027 0.8715661764594475 -0.10143619036031562 0.7193617544073287
Ni 1.8302193002343607 6.36662428871646 9.344449870502618 0.152077409555951 0.6885571103216465 -1.4784802198873055
Ni 0.31016873679947177 4.8782510315502 1.3571889697421997 -0.9392131861844598 -0.3486104783221157 0.48215383362962116
Ni 6.219759238462757 2.0560204805206013 7.0479859139557135 1.1854153400409777 0.6516908334229163 -0.06762824067193514
Ni 3.348546603772551 4.478147977209943 0.6205016795158017 0.6298991914691217 -0.6995979415168403 -0.3930070021596199
Ni 6.104192557746472 5.6564336983048475 4.78861445001251 -1.036097752618351 0.6593267527016193 -0.9066995298274707
Ni 5.107381441689226 2.9172083360167433 9.355000551775912 0.32699624248644976 -0.7963356979602222 -0.20722654392426892
P 0.3418821322805976 5.478820639004295 12.405037941076234 -1.3176237785871436 -0.5796143271716404 -0.4753049290285879
P 3.9671157059591757 6.143078684211238 12.552788981496722 0.42265953491873015 0.10742608939516338 -0.7323725648447
P 2.4268551835263574 8.450352262131098 1.2934265491037327 0.2734476198360323 0.30745045914403824 1.1344586464874524
P 6.268885678973349 7.683952723256494 5.678846001495364 0.25197505178455315 0.6218454679267097 0.6248431171024529
P 4.756161225675209 1.0419857877994938 12.521175733580273 -0.8333441568637712 0.5570508400488277 0.8641256610210022
P 3.943639673230331 6.0985085067783045 8.151769064773251 -0.4949041913167541 1.1101246977277783 0.6363984260402201
P 4.689766096985136 1.0873228609979737 3.653706157877536 -0.03796413794859914 -0.4119087241601293 0.5792248050427058
P 0.2737664503847639 5.597617304238998 3.6010312455482456 0.22351422534069892 -0.42063324851732076 0.002557219204214951
Ni 1.4501186919201787 1.2483980386720959 2.5340103710400665 -0.4258811271798214 -1.3859547017530582 0.5745217431400815
Ni 1.8458459292452596 6.633991219495318 4.794755029518755 0.3507159547008928 0.09954077310981566 0.1510404836510044
Ni 5.741865886586719 5.35515193008259 9.107537723919078 0.8823866641137189 0.2872716702033181 1.0019912978529453
Ni 8.586471749364026 2.169557143033969 10.110197999091664 0.17119741821485354 0.15355965052843232 0.30101781614481704
Ni 2.4066362022253043 5.14037600421397 6.984759418122817 -1.0616907705961072 0.24294019527579452 0.05667945496991529
Ni 0.4750233572522692 8.991347602056921 8.90126170982365 0.5658725521055158 -0.37696280421256373 0.8025225434972244
Ni 1.4777991179048426 1.0848236830326048 11.426067527216533 -0.15473721577630126 0.41932121457411653 -1.205080165459757
Ni 4.048352523288353 6.85585867561946 1.4588017564467892 -0.07769333821742103 0.7690303252770497 0.8477294790511659
Ni 5.609860569578369 7.833434241416178 8.155387910556318 -0.18085191058548208 -0.6129191119713573 -0.6901949030353856
Ni 5.324331742610748 2.8682262523561373 4.729297318123274 -0.18312759399353623 0.5610329646250273 0.6273381156101647
Ni 0.9643669140230712 7.344984794884973 7.002969132518139 -0.0403938304360143 0.01294370464486158 0.02467410570791235
Ni 4.93257431866026 4.711040687751708 6.861411000962017 0.16527411075188309 -1.1079945387586532 -0.4556712139580604
Ni 8.219679038157855 6.979464228419297 9.315821200459615 0.2624468978501544 -0.09291632581476256 -0.9962520813763229
Ni 4.6921389627067684 0.3673421694664266 10.413398811188411 -1.5734277171994837 -0.9708233568905732 -0.14727715995383023
Ni 8.215609979448898 7.1712242590184 4.7280423157587155 -0.10650332047057787 0.40276408154638377 0.014232341549298068
Ni 7.090790426667266 6.035126827331673 7.020809834715686 0.9120263413570228 0.0862995918291933 0.4704409160680672
Ni 2.342902652956834 5.286564381733367 2.6647931659751047 -0.06667873227447227 -0.10564611467660515 0.1767944526866568
Ni 2.315592141400257 5.157148465721626 11.386161880498747 0.34999835980857785 0.1555373430800934 0.5549206810797024
Ni 1.016606049111469 3.2970653421465754 3.7715347299870263 0.12400636235134772 0.7361243185776484 0.38962034507557414
Ni 3.7331222744362744 2.824296658445013 2.6364017825042634 -0.8392206702492063 -0.5740800276169726 0.04917209084927661
Ni 1.068637671228013 3.2443480249926018 8.237681239581324 -0.11015351562865544 0.5445221114541977 -0.32698930050791425
Ni 3.6956616718651123 2.6374537830485303 7.047311947912346 -0.41252733158073474 0.33524716964133233 -0.05830079262342218
Ni 4.178255643668793 6.9875752789278405 6.060762799428422 -0.43595702335858466 -0.09159837833428741 -0.6463362539792225
Ni 0.6421642293167072 7.285013546019242 11.270828877433377 0.995422643496492 0.040230051164640394 -0.012015022183005115
P 0.19626486654895425 5.46251733725909 7.995408040481459 0.2416325322079645 0.33303987757736836 0.15677584347288484
P 8.299706866868407 1.5029172098022692 7.942522006259064 0.08835724568917042 0.45671328206932954 -0.009914430900234538
P 1.7075520669594286 3.2038469062686263 10.357805183798483 -0.30073448057644336 -0.861376123300323 -0.0914140302376232
P 3.9554859572322423 6.3032516315729525 3.8169069901676904 0.3420711345417012 -0.47965472135685144 -0.4214567728598806
P 6.895403430212284 3.7937521514300627 10.371552467068636 -0.477426603357281 0.6976783558966243 1.3022316124017894
P 6.380915616864996 7.447469136071348 10.2000051021584 -1.2533559697470091 1.0938035919702518 0.16118837071828368
P 2.4888744952012534 8.726218202452834 5.6900174172235936 0.17577706716573596 -1.126297450832899 1.1513973312243204
P 6.9842460490750575 4.17975334598739 1.6757213815376897 0.6601585045742954 -1.0258915015093104 -1.249332964630545
Ni 5.277641323943657 2.814408214221026 0.7003896625279293 -0.5926984140491084 0.40281061851360306 -1.3518495325392332
Ni 1.4092837479806124 1.250437079178137 6.925244697795164 0.10534735248926375 -0.7103266407882541 -0.27140822080850036
Ni 6.731332847900969 0.5293439376713913 9.338084635648583 1.4004804061730591 0.3632053454171551 -1.3175111642686792
Ni 2.7360495115884294 1.408886766643153 9.11583102495073 -0.4821008689044987 0.794012192033368 0.7247083634312228
Ni 6.397498610007047 2.069734381269196 2.5686072945996465 0.6750531622979407 0.03585377647381567 0.6095339975492082
Ni 4.130058500379981 6.79847682775034 10.334274115020582 -0.006595393829330577 0.46630169708871305 0.48836690441886865
Ni 8.213255158333514 7.094128678823174 0.18106409024551165 -0.14564759477020725 0.47843910378219545 0.9028621583592515
Ni 7.623945385178266 3.792416850567699 8.370286539747426 0.035715451123738494 -0.0607615954590889 -1.6806987690740216
Ni 3.149451440733574 8.379833940913322 12.25475073124757 0.382939847731605 -0.47314880191753345 0.4078823766095556
Ni 0.030140808046599434 4.730718330865316 10.231658048208596 -0.08228327158094861 -0.0747756503499938 0.3174880458856984
Ni 8.526617790438909 2.5204886453480144 5.959651652777531 0.010198280689240502 -0.07209604663530164 -0.43512192905179903
Ni 3.384202745718898 2.573891657539418 11.549138959671426 0.9468922999962724 0.40535086843695356 0.05243327809905163
Ni 1.1776902490887153 3.4365952599604053 12.694320948373782 -0.29688528203368225 -0.8601767036755832 -0.18816284242459852
Ni 3.198451569000429 8.349843805328895 7.996002610257335 -0.7821126123823047 -0.6892266255848453 -0.16198592691891456
Ni 5.635177152144525 7.824863053448307 3.367724411293086 -0.5713119779535323 -0.2668306287401469 0.4360914920539199
Ni 3.057405904261755 8.332782630121267 3.4270144762729493 0.27764031776114123 0.538786237411685 0.2784620423314882
Ni 3.2860761769414513 4.310883499592705 9.328775423285162 0.2523802576427718 -0.12237808271930538 -0.5517271138430692
Ni 7.191822177050665 6.025211316198314 11.525739616519134 0.1713678823544468 -1.5966735751013017 -0.319052819269657
Ni 0.7540010899214992 8.92566523531365 0.10871604595417404 -1.376786404990229 -0.534519234605215 0.6208332246121114
Ni 4.657646697863427 0.400128316789005 1.6102375054631486 -0.2759768140157892 -0.5189784586571384 -0.8440761985692946
Ni 5.896670563589609 5.7373908242371785 0.5115925562747725 0.5670182356741847 -0.24186110327900281 -0.7053690396726626
Ni 7.953394783753889 8.794625304739576 11.397505622216647 -0.417822518541403 0.4195752395664516 -0.16391219740734997
Ni 0.061291211812782936 4.9985995329222455 5.769485863140452 0.22813398350089745 -0.4366455647851771 0.26379415590666827
Ni 8.029182129996123 8.942410629911935 2.410476996665223 -0.018277972373581423 0.1431865348242244 -0.02070997885384175
P 8.404140025529582 1.666699078413614 3.685371735152104 0.2497078530169312 0.5374670043796292 -0.1739379570744682
P 1.8236600858631578 3.177222089749479 1.6547914427504589 -0.1269099091513879 0.4377588524540138 -0.4962779317358291
P 4.722508035022407 1.0057702630594543 8.217861044078354 0.11055820726624184 0.11725258856728193 0.6224543051553022
P 8.622786519438431 1.5956213744021464 12.430377981630514 -0.6533288832469716 0.39983610926631136 0.13515106611425756
P 6.462188523406669 7.850838264142521 1.3353080802056914 -0.6480645495242388 -0.12337412808398751 -0.5811042814536057
P 1.8021689598216095 3.316679829138316 5.931735744681329 -0.21943157063089305 -0.8089981239192391 0.17043482901721616
P 6.84908292597328 4.036406993952077 5.970546083799853 0.24530843839765493 -0.6711196315714894 0.7000669107334588
P 2.356986468133516 8.436069956285685 10.197271344311806 -0.2993309153606974 -0.0407337302739363 -0.6592105388387292
