# total energy = -340869.4262964969 ev
CRYSTAL
PRIMVEC
9.21467525898109 0.00000000000000 0.00000000000000
0.00000000000000 9.21467525898109 0.00000000000000
0.00000000000000 0.00000000000000 13.48660867516852
PRIMCOORD
 96 1
Ni 2.318486059065038 4.3327035349756144 12.105242648721223 -1.1616691454639734 0.7973363713105945 0.7089313031026242
Ni 0.35864254001326873 7.865683817534229 10.99993495749639 -1.245684055024048 0.5695857392910448 1.0096411010887192
Ni 0.1021022897875435 5.313937464284697 12.566755060986505 1.3711970838279095 1.3017942677540548 -1.1245524431173342
Ni 5.04759648525694 3.1719769426966433 8.878220920793463 0.6799711684248482 0.6676121326388631 0.2398430444077095
Ni 7.474889431962434 5.473600145699517 1.6349819792154914 0.9905802278025264 0.4873695735026058 -1.0604314442677092
Ni 2.910768537891086 3.069804621375727 0.7788013318218392 -1.2989740246964403 0.9117401775751718 0.515490500108538
Ni 2.3524237087245736 8.649299817275457 12.407032484181302 -0.9218592682870445 0.20345087893192057 0.9227581259522301
Ni 5.565369098444376 0.02896448932251412 0.7634690333508911 0.9125693583446863 -2.237251329330192 0.720429790660527
Ni 7.888038620160901 7.40143925399986 6.29012728025584 -0.6678651291899337 0.8066278239148494 0.4178510577864933
Ni 6.150270622239937 5.1041377337801315 10.368073604704106 1.314489603833536 -0.9370030659070187 -0.12228089501980877
Ni 5.759697388878792 1.8570796155673601 2.4697080977733314 2.5405491997584377 -0.09473486708074007 -1.0282260631797584
Ni 8.30666132557299 5.808148152362322 8.45265127156429 -0.4040668595182073 -0.10439373032674279 0.5433851696362771
Ni 5.9250455250424405 2.2071082769757595 10.750189608942925 0.09728025921041311 0.6138261971666589 0.8686950255592395
Ni 0.9561055093738245 8.244646559836179 6.135584272517599 0.11195920137882652 -0.43037053040974266 -0.8891741193491977
Ni 9.01144577689246 5.458598654077002 6.201358625835484 0.5377410839766223 -1.429108611432713 -0.8911831793594265
Ni 2.6257770557650666 7.606696149510629 10.097423843438827 0.18652093594580132 0.5452520476416867 -0.5485368890405455
Ni 3.6976096740376456 3.075121489106803 10.953419275856056 0.13879509062474807 -1.7847083765884681 -0.0497503319502498
Ni 4.278078938944735 6.543470038102565 2.217482158590396 1.3251334567006274 -0.8711820536471512 1.5934144447340557
Ni 4.098715281431059 7.073802253919908 4.535101116696171 2.599739851185981 0.5609614879571435 -0.04012206483186638
Ni 6.336158269967827 7.914540026737286 12.160214638016337 0.4205653713938628 -1.911706217467972 -0.026479791458083428
Ni 3.89191032044573 3.6304346900523026 6.9754632375836145 0.039285170752867825 -0.04475930649356163 -0.488979598302203
Ni 4.56155921429797 5.796473158575021 12.255092622255935 0.12278148880531112 -1.3509563313010025 -0.5063977937786505
Ni 3.1829516211502153 0.6496705560225251 1.161686761460216 -0.3255497398479103 -1.8208200347093606 -0.1344293574568846
Ni 7.262712315193366 2.0108633340490316 8.85955567421449 0.3994609853150798 0.28301675158170614 -0.2162287474228792
P 0.3545272659600651 3.331740985541344 5.22468503940354 -0.9423900412505448 0.46554887808308854 -0.03100904678700466
P 1.5262635524592956 1.416654988055228 2.501307062805229 -0.43551916449021766 0.3189846850358829 1.073981415038002
P 1.911215833799718 6.707058171256445 8.140760308882713 -0.8049388662482008 0.25998429524227484 0.20749188177051361
P 9.029423608683325 0.20865711074953386 12.594847842012035 -0.3828691423946696 0.31263328889655834 0.22218959299200444
P 7.360876252696228 7.173938131967743 10.092973155199468 1.1064397926770235 -0.3500490105408552 1.6320239295761378
P 0.21988887864798848 6.716180699945813 4.536935758577033 0.17800441383435794 1.7851480352290479 -0.6009452274389327
P 5.559904795906199 3.703562354374344 12.16666122495682 -0.16257728064601032 0.838412315415298 0.6839610063105318
P 8.252847620981164 4.0684911459753765 10.970371514270028 0.012828005002603714 -0.1851456528648295 -0.12734931068165165
Ni 8.843996694727625 1.5617031942161719 10.7765288372315 -0.6174280555853044 -0.029043438420201594 0.29253677525699945
Ni 2.3619148244316936 3.8231227682577216 5.162956850073032 0.3581330731005703 0.04194626252479873 0.5819671436745332
Ni 7.119682122954616 7.396988565760502 4.04131614662405 0.1841462650660377 1.5577190482149754 -1.1835613175513746
Ni 5.1499070267095135 5.699765139792281 8.178346970017996 0.4943704303004712 -0.8847294533142827 -1.1109441083052805
Ni -0.09102901430672232 8.289098154177095 8.616567447163971 -1.0418295128958057 -0.6799056052942355 -0.15488736820092036
Ni 4.74911471828119 8.938907851798822 2.903168273585035 0.10481976212056786 -0.8439854386277011 1.2563019397492106
Ni 5.683925112704379 8.561161446655456 6.1571088328867845 -2.1697647564424436 -0.6680813589657978 0.4503395173325018
Ni 4.689329904001778 0.1685410212049262 11.771436423431645 -2.1750907966410478 1.0742837767697693 -0.9109349080650571
Ni 1.853679400328596 1.3716965865649005 5.041321291279709 0.3752031412089796 -1.6574102308597263 -2.244538864130541
Ni 2.868040087858159 5.470384223969628 0.6890835658307705 -1.4609290983774192 -1.2719792412751514 -0.28789104895487194
Ni 4.1926404682297695 1.233596245688586 7.570546056277036 -0.7689796745447725 -0.8365873463914173 -0.11860267483727314
Ni 8.851045921442136 8.927619874380161 3.651310537270244 1.6162844073536937 1.4646340580328323 1.7725540006141214
Ni 6.3059986372402514 5.38053192371708 3.67421084868319 -0.33024843087516026 -0.2607867365389121 -0.7323201143402097
Ni 7.655930160406883 3.394336275831116 13.044571919982056 0.4858760196762148 -1.315412886978754 -0.179906001732445
Ni 8.187911803128667 1.526530778047166 0.9820558783586698 -0.26756133625858436 -0.6793016531616495 1.1308177073007557
Ni 1.591319161092563 4.539361061153842 7.497097721249551 0.09004646046613525 1.8356046492177032 0.33576447559738304
Ni 1.7525851960346048 2.239258279599197 7.067455185474215 -0.05079342850278349 0.6442258925044388 1.002122938334803
Ni 3.9359380397162336 7.414091003384205 0.21441536143436796 -0.49936068442621107 2.6629311391324846 -0.8907360645196789
Ni 2.2628386340598956 7.975891335842144 3.712364212358267 -2.2195731953241387 2.296237578056413 0.14005441695314588
Ni 3.527423833266 5.242827813884849 9.945996317468135 -0.2764650665061174 0.3550019836707563 -0.053191239310998714
Ni 9.02718444255048 4.863312191056272 3.509566713723449 -0.8676061633704348 -0.1884585192881464 0.4284602007609073
Ni 3.9942853646264105 7.579678721109391 7.977194290949898 -0.5468710713023485 2.578609754075585 -0.08147157431293066
Ni 8.432736514995138 2.0201332975455 3.6551134338259033 1.286116452007482 1.2273821713910669 -1.3337235123624835
Ni 0.844668753361706 9.057970673208235 1.1870566058921017 0.29213336917099364 0.7978253951318711 -1.2597243351671983
P 2.743844692226548 3.408738813549784 8.9140687726725 1.5520713630108947 -0.5722144351631436 0.12781133791973473
P 6.026517531029627 6.901229812208317 0.7060929352324912 0.205013338323034 -0.14110239860168602 -0.04762248697396959
P 3.015382748204611 1.519463121981767 12.688512253495686 -0.9353868704598342 0.5538374753178527 -1.9553499222998518
P 7.170408911272767 0.4792340760788081 7.369919535176779 0.699763520560427 -1.3770915949354734 -0.3802733566430354
P 5.922170546303972 6.388663490646631 5.596106491322279 -0.14879899591499535 -0.2605723065352609 1.01121435911311
P 3.1483505148587256 8.577397704787442 5.7946431240318805 0.12528162951934552 0.3205975380489575 0.5798814647900981
P 6.732214235218035 4.339393389347817 7.804498372587361 -0.11701990373118556 -0.9515863630378321 0.5715323214944544
P 2.043040980698801 7.201591372974604 1.7321387526923446 0.2553627373098634 0.2037239300876491 -0.6234848033023456
Ni 6.253226190973576 2.1586667281676735 6.524538487403266 -0.5098638979503799 1.1501976544892645 1.9803752406995956
Ni 1.0255473035183436 5.76855269198029 10.171695048983443 0.15241242429786653 0.11034814813796479 -0.34064108696339396
Ni 6.544631087208484 0.15176846896211127 10.142954476274214 0.5017196715766907 -1.0035956662255876 0.024172997701777724
Ni 6.743428495233146 0.9673750574415988 12.611651724151358 2.4169341593082376 0.7607336324858963 -0.9114267600998109
Ni 8.622687834593746 1.5495951106830115 6.033814632513577 0.42003083904663147 -1.8548118182737734 -0.32723561219076547
Ni 6.586474928398806 7.890839881495819 8.31214774333223 -0.5397522008693801 -0.9738819412112388 -1.0218864941149757
Ni 1.7742673273538794 3.668141141968355 2.8972063785728928 -1.0991412021330813 -3.2207589665566534 -1.9569509482383844
Ni 6.629304739861614 3.216161311449691 4.572971589835124 -0.5615986073205103 -0.32431946698523495 1.174995173148918
Ni 6.742682106522198 0.6499175093244192 4.716618243861064 0.007539502910154758 0.3074730848518576 -1.6284603805945956
Ni 5.48980875980517 4.106427964777525 0.8654091448506236 -0.5364961558259277 1.4191263034090205 1.2708620969515725
Ni 4.840450581280191 2.05408016188048 13.680411248163429 1.1396533033145146 0.11822035179718994 -1.7977842359358198
Ni 1.830486062236537 0.09979677799150333 8.017694632460513 2.6016005585438036 -0.713397566404094 0.5775407324720634
Ni 5.024025345471686 7.180194896594088 10.263376462311586 0.21690803287809096 0.8325982798366822 -0.34926328141476626
Ni 4.562867698210991 4.622459004306082 4.903528720563218 0.15776391841776702 -0.3521143777103162 0.5360847793201219
Ni 3.289851070973804 6.107459240128016 6.380271685719958 -1.325446617065672 -1.3443545097137686 0.6262315128095474
Ni 1.9626152934252656 0.7130196067635998 10.52519211422889 0.38927607436227796 1.2634411218971533 -0.6079465984574304
Ni 8.271608700184753 7.4475034165434435 13.314789512969023 1.0112490690057874 0.642164639100036 1.0058646647654226
Ni 8.6026735595298 3.3712719431952705 7.426469076907869 0.5687056506789366 1.0967675596945823 0.041829277330960216
Ni 0.7411418747505502 3.557436031186475 9.679932700171237 -0.4049132666789027 -1.5433764063400581 0.022101716995045807
Ni 7.07402340613056 5.494720181816718 12.707744202614451 -2.3094206524055907 1.4366776820292226 -0.7886252166898419
Ni 0.7640219138775195 2.301586344301098 13.042953822974123 0.8661745731302309 -0.49580999096047507 -0.5563772110205708
Ni 3.702115650329666 1.985200462938033 2.992085284280037 -2.2850949311760322 0.6673377959315538 2.3471415639951316
Ni 2.300591159353167 5.6439149919273754 3.4883517664491754 0.409122933884876 2.0420830021220375 0.8157547259167823
Ni 9.062743875088128 7.350067438400644 2.175228264342825 -0.3307395115789659 -3.3338445682304387 0.10315960080932557
P 4.004771665281461 4.164987227222909 2.884678105839495 -0.3681464914725144 0.8141884098709269 -1.201242022660589
P 4.460041134933563 2.0966151037290865 5.352511017160012 -0.6659995367361046 0.677799100474194 -0.848829396983564
P 0.3393138368023421 1.4814618004515128 8.539261848995709 -1.103745276563996 0.3367674629406006 1.5070312920521207
P 7.154983544579835 9.335387692119445 2.41843211479873 -0.7274969819199535 -0.3558586752440968 0.5656648069700839
P 0.6453451873692028 4.203449282525353 0.7171136870632827 0.7648211722917085 -1.0832618118986634 1.583937615591872
P 4.374252506551734 -0.027394308626889647 9.438468580439121 -0.3427450206802742 0.4223695144821371 0.5594766758815011
P 6.966598719806673 3.587872104177365 2.615862986455076 1.6260386585269802 0.5988006702921043 -1.8303644838646864
P 2.2821894524918873 6.550252039229205 12.009070002581769 -0.10219389446194659 -1.271115093502643 -0.1813969844556747
