# total energy = -340897.8231640288 ev
CRYSTAL
PRIMVEC
9.01834681303570 0.00000000000000 0.00000000000000
0.00000000000000 9.01834681303570 0.00000000000000
0.00000000000000 0.00000000000000 13.19926214934724
PRIMCOORD
 96 1
Ni 6.465730933296924 1.8438822083050854 11.51714877704487 -0.2118902679485254 0.12002115245135458 -0.3458421715483593
Ni 4.674705256731093 0.34414102317404904 6.1237317675342515 -0.06523197252561669 -0.8401079579501661 -0.7552602680761509
Ni 2.898812366423318 1.4556604068528758 4.727368795844647 -1.6476672925403493 0.26682754341635334 0.7040076405487617
Ni 3.365367529876407 4.243051096149682 4.861525725746224 0.24715294780556143 0.40792917068709095 -0.42628453326582716
Ni 4.878285421802227 4.59153806074075 2.637027789844737 1.0282600017414874 0.25029586430991735 -0.2692271539967815
Ni 7.085201188401744 6.10990303425171 2.576891648410905 0.28228347296010736 -0.6239013220144739 0.17141699042482736
Ni 5.0820459538132665 4.563337689686553 11.432884048225203 -0.039710688326060645 0.38698830676936574 -0.03145024808948132
Ni 5.652564621427783 7.814307487928012 12.463614374016338 -1.2737674435238255 0.9691989339132727 0.18553543210408047
Ni 1.7684347173426902 6.402007293428375 0.3424293409143475 0.63997740164073 0.18342352796740022 -0.07575061266875342
Ni 2.8245462789173024 1.5165252307239259 0.2491228173972272 -0.7142681419345054 0.06753876628192239 0.633830665313044
Ni 0.7545957554736877 -0.17269683578584574 4.629140058537511 -0.587123491064492 0.17995408136156105 -0.12928355158988702
Ni 8.46961665399202 2.392179668923266 1.5215186894552046 0.6936926317759989 0.09590831856355096 0.06639591092673082
Ni 6.825481813285079 0.7375240246116493 5.055977519988751 0.49767686896588487 0.03777541897656075 -1.4465550890439347
Ni 0.6699522560802199 7.257235175683437 2.381991642322714 0.876865991405806 -1.0984364627565726 0.3322888583439567
Ni 7.632578777626407 3.9065946064502994 3.7462808629236535 0.2888904367536637 -0.2245084709331682 -0.3844804527458475
Ni 7.455467460986379 3.7124927240711902 12.631482786820918 0.2311133778441955 0.5769619771504578 0.09635183385887278
Ni 7.90935184691112 8.685957780061454 7.069683318726989 0.4778791175136673 0.9127835312380216 0.35532877088255577
Ni 6.803386863146677 0.7510587597821444 0.6968395558119058 -0.6348537072609195 -0.11897651323692414 -1.257246305940351
Ni 1.9058653072035483 6.670961455868192 9.179004337813138 -0.12985150827821507 -0.0048748115937980565 -0.47319096800937865
Ni -0.056538722817420964 4.858039232797855 1.2161484418485036 0.10763332030996302 -0.1989851298510831 0.9165584248994214
Ni 6.490170653654095 2.1823858627723935 6.943946819414893 -0.4095078280281205 -1.132812112022965 0.8749435775721125
Ni 3.232806847392993 4.233356373129771 0.17587129392817938 0.35635669792643787 0.4028371008761643 -0.20826269849826715
Ni 5.827141782562141 5.6100250786511126 4.7429308554196785 0.431756869234308 0.08256120783268361 0.20642487395857997
Ni 5.341485760173078 2.853774741528959 9.19372228010941 0.6271080018772296 0.49646536515628686 0.7519090922157309
P 0.08084767714316039 5.695699375106139 12.327147845449273 0.3544787641774347 -0.2998693043626706 -0.015606853299321505
P 3.982294611128562 6.2388924513249995 12.568179401922349 -0.4591704853605705 -0.6458996806624361 -0.14510894865791785
P 2.3214938651743715 8.32405151514143 1.320057835927958 0.11792878869870013 0.6660098211487497 -0.8095262285085671
P 6.476733316631148 7.680060374556483 5.827091279818967 -0.9354156668152406 -0.19075245752864567 -0.6619014554073309
P 4.716315909767251 0.9615271382882628 12.593601220267303 0.7788372840651425 0.14144101288802735 0.268626287187989
P 4.182691299710367 5.987497010484965 8.111751510360573 -1.7747294109988851 1.7674920127101819 0.14219151790080672
P 4.6996680412139895 0.9854347761727128 3.866618077889685 1.4461640242531029 0.09850641830803035 -0.6925520904136524
P 0.2783981754132596 5.405903812760263 3.4916406208347226 0.3219543091871681 -0.34011118260185297 -0.20677428687819874
Ni 1.357946617159169 1.0415559495242528 2.531816146459166 0.14565479385905883 0.6896907097054574 -0.6140244292203941
Ni 1.8229957166640494 6.481810645989484 4.7805481844063324 0.7996562776930228 -0.14548252994725266 -0.4272934341463157
Ni 5.969027435838661 5.606886693896761 9.099505805380469 1.1103746089550555 0.3131971318198284 1.6551517738428527
Ni 8.686841578066991 2.4303543317542267 10.25294968057089 -0.31477656049180625 0.15228952556675707 0.15320123874774905
Ni 2.37807497422267 5.1995550151615815 7.010814255045993 -0.5792155490713251 -0.2682298230805187 0.10790894256885288
Ni 0.5155716830417595 9.134593488034952 9.108084958877066 -0.7143804991426536 0.0670343158416781 -0.33737887127235444
Ni 1.4203445600194142 1.1722227791386615 11.423407569202576 0.14065065577624808 0.592743922575063 0.14842952839071857
Ni 4.025185869438047 6.845908369229357 1.6714360825657082 0.4808806233441525 -0.14044985261935164 -0.5670318625209395
Ni 5.627286194800052 7.877417880200884 7.918448653525245 0.0732962375909899 -0.11719036787077881 0.7624884103934739
Ni 5.341801402317913 2.926291269717893 4.736053464001089 -0.2640150136682227 0.14811199715029977 0.42935134511660894
Ni 0.8799597970548801 7.398823223509114 6.9059335849951475 -0.18600671531354418 -0.01771155834715014 0.09019995532486401
Ni 5.386505348373445 4.47268526569014 7.127654155047259 -1.375423463204431 -0.6164662058926674 -0.4282164601812174
Ni 8.100676078415688 7.162425293722206 9.152751027875219 0.23808209585254478 -0.044338159795742994 0.21320281611236183
Ni 4.643123005553671 0.47495575367918 10.43148228869737 -0.3715084659662118 -0.8229607567469182 -0.6503196641070026
Ni 8.285651393635588 6.964048714867341 4.6416656406792365 -0.5978257079733446 0.5597764665101069 0.309581389444112
Ni 7.4148217710787145 6.056775952102599 6.946204111667808 -0.48874639924547436 -0.22115806640369653 0.0077529044725414865
Ni 2.4438277421651544 4.968207359692023 2.498237233256993 -1.4334797439172153 0.26867308126552436 0.05918525211090452
Ni 2.2945831177404976 5.483452578572555 11.269965806086322 0.41904867763902026 -0.5554827242307594 0.5184570389360297
Ni 1.1118810193933368 3.1662063548329535 3.8465161824372367 0.0201888162430491 0.506838737970811 -0.206218928595361
Ni 3.633194398941816 2.6728216090689476 2.57910925993704 -0.7893556670979631 -0.9569419709227908 0.04334057176916407
Ni 1.0289663371188615 3.303943568491651 8.264137225043681 0.6368473406521806 0.42047049768721134 -0.6527071905025726
Ni 3.8268453639711626 2.495629127305962 6.840267393183818 -0.26399033107787434 0.9780756675776123 0.32828179406709274
Ni 4.153246396770824 6.728146794165174 6.084239524207281 -0.05865509063904737 0.774181530460686 -0.6979992295711527
Ni 0.6956022386041555 7.548013737851798 11.260871704976298 0.8792082663857373 -0.46397124918332355 -0.2324295255524578
P 0.2922440435550914 5.58703731216018 7.974189252633585 0.3809652405037374 -0.48466991518325564 0.6809309612349563
P 8.446114841722355 1.7331819989381956 8.016559250486743 0.008935611926732999 -0.44271259691486337 0.04248465152677199
P 1.918400809526968 3.4141567871207963 10.432710587558125 -0.7514964301583446 -0.6485697712954314 -0.33292649192795565
P 3.822480484025454 6.184349488697631 3.805518776996758 0.4894169429499378 0.06603749914604755 0.18368372360732235
P 6.935253132911457 3.966386247028913 10.448048090292975 0.010055327353473005 -0.09483642565561087 -0.2795359921219573
P 6.204135742005244 7.700991957932495 10.190899845904662 0.49067549794738713 0.43409888710392336 -0.08019964957904252
P 2.530963010833414 8.396432768125434 5.77187915584455 0.2586285525453288 0.3288088702151563 0.18839269904721748
P 6.733720132608249 3.9810861526311965 1.5452116906811673 0.753391076077896 0.4092977688998435 0.6902964616102563
Ni 5.182555431075505 2.839994707320193 0.5585720633498871 -0.29484176924109223 -0.27042708784215364 -0.6945369820541651
Ni 1.360183167213995 0.957333606935464 6.856383179264358 0.2570331830337509 0.8110912590028418 0.3970950561860645
Ni 6.972066025346132 0.664018183757335 9.337356590868314 -0.43420635921606515 -0.15047895472057954 -0.3744562357406261
Ni 2.8369555243827884 1.7194650931583961 9.029931963816091 -0.07529655585047033 -0.4010345004497868 0.5180451482095917
Ni 6.26740846452403 2.097054263503187 2.70924130157463 0.4523971711924789 -0.7657544827392554 -0.06275677151224676
Ni 4.11833637555215 6.928714831339889 10.359203844869112 0.14480041627856352 0.2638679465673972 -0.4493077336338778
Ni 7.9398699331431 7.064224513290756 0.4469736266222688 0.6871764279240359 0.6727836495374736 -0.23360014882179123
Ni 7.667651129090997 3.8924087466267463 8.332086862314211 -0.031565433511106925 0.28826205914104547 -0.17614473491779986
Ni 3.052007026831901 8.289394007638624 12.272964714867015 0.0397875643105831 0.11044559294777753 0.10183831089474074
Ni 0.15608594245526533 4.945932042613717 10.235261996609074 -0.5727345693326716 -0.13001323066705994 -0.47149018326818803
Ni 8.64508663147891 2.4285416440081784 5.8408848415482275 0.6125928389801902 -0.021863375731994605 0.06463701925409512
Ni 3.763590678146367 2.6777907182633394 11.324201243081154 -0.37965346367084934 -0.5277009261318009 0.06726057291987127
Ni 0.8841533284076787 3.486565095145787 12.454982012272469 0.5363735142051343 -0.07247399880001067 -0.04635853265988145
Ni 3.173195573754285 8.394106034600657 7.889542145901318 0.031065868166869078 -0.03694161022135573 0.7873707754574505
Ni 5.648443236850945 7.941186611804409 3.7225743341771977 -0.6504381919627379 -0.08714677032083701 0.13078481872576186
Ni 2.948746953736105 8.415010562935683 3.3085140667488515 0.11151491475255634 -1.0408794902777108 2.49914209756656
Ni 3.4478042397601336 4.289468528134316 9.138852853320815 -0.18230561231287312 -0.1286834561120429 0.4805435517197078
Ni 7.129625565700424 6.148149843858633 11.423737640702603 0.40153792244876657 -1.1009111495493107 -0.37041086202665885
Ni 0.5759693565384547 8.97099165519383 0.30239780043706144 -0.4962231672384938 -0.15836092857181758 -0.021115441822376537
Ni 4.406878387665684 0.2877592195943457 1.7599367289690513 1.2817172944985216 0.581210982234799 -1.1095994213519278
Ni 5.888511633864925 5.678312002099267 0.3543687305013802 -0.3610109088689976 -0.6893456676612127 0.6167397712690281
Ni 7.767926129331359 8.603881804057538 11.647689349801343 -0.34558943210760484 1.3821083314237745 -0.46436797040110994
Ni 0.12031376726384334 4.852565096171729 5.7272257125321895 0.4189859427218849 -0.4595787765425828 0.10781895395820787
Ni 8.049415794094596 8.71297674765927 2.522312612395555 -0.9533532251302678 1.4021822193555142 0.9744750947105475
P 8.546939961129429 1.5266438160526141 3.8144280019933805 -0.6016399395131122 0.027718291850874842 -1.0784430503537812
P 1.7458527764665444 3.138060093860729 1.364579611374187 -0.49533690797879854 -0.39609258306347916 0.9222953273831987
P 4.9111122048649944 1.0690438711658234 8.186631747296968 -0.29700535255131433 -0.7473600393924676 0.02494638553269252
P 8.508611986399549 1.6018658483401278 12.49999168029114 -0.6866989740669851 0.1403835181577905 -0.14192900826803945
P 6.219539078673159 7.833218961577085 1.5627794306279454 -0.47966989086550293 -0.16199132623555326 -0.24924351178600299
P 1.8987768864652694 3.1905919651081533 6.024934874366413 -0.8817621431558427 -0.6050047422202871 0.3113960740553476
P 6.952054313363637 3.973609942972121 5.8611193067015055 1.1419361858114205 0.8179900430052043 -0.5929395835256369
P 2.29787481439377 8.794529659537462 10.09553533560322 2.032509242390674 -1.6058403292022343 0.05476655421791858
