# total energy = -340856.4636811308 ev
CRYSTAL
PRIMVEC
9.45582145143155 0.00000000000000 0.00000000000000
0.00000000000000 9.45582145143155 0.00000000000000
0.00000000000000 0.00000000000000 13.83955050325034
PRIMCOORD
 96 1
Ni 4.31604353185291 5.737423707737008 8.36054140101129 0.7536728689843729 -0.7686603435321407 -1.2368116922350827
Ni 8.921321731676008 1.668366233402777 2.3764304397149285 -0.34197086151841105 1.8686857480423882 1.1173723804291271
Ni 5.612814892040946 6.136128421185518 10.382417303432396 0.22975737803693336 1.3842420899373258 -0.06637662765302117
Ni 3.419858593591415 4.658523930676378 13.944454574644661 -0.99554631355855 -0.43345302598980834 -1.8745895151213328
Ni 3.0263451261451166 1.6476296168584255 8.907314823291536 0.5699930020317926 -1.298845469538376 -2.5325307003293354
Ni 2.567085331825642 7.39642867785711 7.5497652248451885 2.5070176436598954 1.118411620326919 1.070594243733324
Ni 5.460093919032364 5.737905954633389 13.119229903230147 1.186093339944609 -0.3381653717293918 0.2732607006362068
Ni -0.1808170554245566 4.092403897611935 9.789115565890802 -0.007707138836270598 -2.029880032297943 1.4487927201252018
Ni 8.901956209248816 5.947834647702768 1.952290512019884 -0.035508991539887236 1.4700806829697004 1.0329057280436147
Ni 4.0627504413952975 6.4976339328622625 1.1738390616435084 0.28514125412387664 1.8606963020790082 0.9198082992952868
Ni 9.379739957882192 4.166906315191937 4.222322157078929 -0.3825683233247992 -0.06732587894016792 0.09350330866648414
Ni 0.7896121564900545 8.11826717934489 6.448538362064302 -2.4066451186774036 0.2204769811762719 -0.4937227694141433
Ni 4.567001034400602 1.996587253407786 3.167527160180114 1.0065601481705502 0.009478114693764321 0.6484543287634897
Ni 1.554574877500029 5.017391268155278 11.888519748771161 2.761434729227038 0.24844004204810113 -0.6859078456242576
Ni 6.602593551486203 4.249446181044945 11.294416157566564 0.23196209899773598 -0.3803600028195708 0.21827483131863054
Ni 0.7113349749681892 2.6892640013968077 6.355440125927016 0.32711039946681086 3.0102936039801125 1.935704380154782
Ni 0.0021266142548220027 5.747957492885393 8.470316869523984 0.1171749412518111 0.9371143946739022 -1.5369010830283596
Ni 7.017543366267679 0.32102230309884633 3.6366465395751906 1.7411343486522592 1.539221246521104 1.6764667332705452
Ni 5.220199727636926 0.5826828499997311 0.8684443947338321 -0.5465607391507813 -0.153894922380664 0.0863543563265287
Ni 0.6472897503824405 1.1482582277459097 0.49099636801204505 1.7576025215106115 -0.27353992243952246 -0.457357857631864
Ni 2.2469301275581306 1.8984547379051504 2.6663695663866918 -0.23445838305702849 0.3263074439495413 0.1345396577825038
Ni 2.4160569508651397 1.1566833647003179 5.585434615312344 0.39880432556768736 0.0842697058833581 -0.34388993291799486
Ni 9.183994997059292 8.817912867777682 1.8672183771698057 -0.26415873833493864 -1.414666467865454 -0.08125277343390522
Ni 8.049353152270001 0.34871745868332016 9.353723210613552 -0.7842098612309655 -1.4331663264418544 -0.025490945182252873
P 4.969790662736097 6.881587564774435 3.9581945863493067 -0.4715979124906458 -2.329562674571104 -0.8618664326731802
P 7.152581953075652 6.389553893144097 0.8817827765384203 -0.8873298670516074 0.6184552112982381 -1.1240425933604514
P 4.548250140370757 8.339542858211452 -0.574949879178951 1.46745275842855 1.7912585190021602 2.570538032811044
P 2.0474312056006623 6.590660304756167 13.877332425743576 1.3669365087793428 0.05442099795304176 0.3211837495697307
P 8.266799223430013 8.117652550947543 5.377786666388199 0.9400148561501488 1.094121894541619 1.085528239335337
P 4.559143246736053 4.112327313507488 2.6679335592624036 -0.027141850522114545 0.7526894220251811 0.6669073932623547
P 2.647128860803269 1.0437241210893635 10.80805219650622 0.89550906042829 0.258488941643671 2.6512251635494666
P 5.664897556850016 1.3544896946097065 5.108136895903948 -0.6091480749646992 1.909262641023486 -1.583827315266253
Ni 2.660783067045879 3.1312858331260625 10.639195809694044 -0.6728749236996991 1.464401373196736 0.875098615092738
Ni 0.9058147468747036 0.175345917106015 3.663868904084782 0.6586945184342591 -1.0843982394959517 0.961095588079848
Ni 6.893331695074519 6.221590135881299 8.359627968654616 0.2281779493649554 -0.3151275160733218 0.2466983767666461
Ni 5.5616021628096615 3.456150036499405 9.225790673661063 -0.1456689349264459 0.6773566136201368 -0.25512568159839294
Ni 9.005563645398592 8.042857002901114 13.406110071647422 1.1400675080337976 2.3801619847852105 -0.1539784832334058
Ni 4.503921249189763 3.3490817696814874 12.093455768089779 0.7109609319381434 -0.7674910058143879 1.413273444172669
Ni 0.5934728879107022 4.204256810107664 1.2181376941957098 -0.6757918402361781 -2.7068311829495446 -1.944351514306819
Ni 0.41476826300872105 6.527117184291942 10.749676682490463 -1.0728686415897974 1.1557530370898548 -0.44775504443477726
Ni 2.3764465146114744 4.90561400223153 2.1957136159982467 1.6266878620752048 0.40529378994677295 1.1864890327211308
Ni 1.6018256175237975 8.981943003297456 10.028677857951672 -0.8665610099353722 -1.0091639043419847 0.4738589406106807
Ni 2.5836708427325243 8.110229731071886 5.251735837913745 1.7046557941102511 0.11695485482120503 -1.7445161206402988
Ni 5.929480898175824 8.114598320603802 2.7428047538808147 -1.2017397882326144 0.0717278646626055 -4.473031473431496
Ni 5.534199192109465 2.4025445819449947 7.019268108108852 -0.32832087483514427 2.172214760644833 -1.5137554981498316
Ni 4.263194945502531 8.584855235325046 9.389636420661635 -1.392842687122143 -1.6856478855491808 0.7350668238474114
Ni 6.65480859779624 5.039839388390705 3.036272793135502 -1.462729384810952 0.1171775123549724 -1.6493158838873658
Ni 5.119712712581374 1.4629668788307735 10.55487163032443 -0.6195371315085072 -0.16496943502727074 0.7336252063048785
Ni 0.47104931256274757 0.6660595560552803 7.967774943463305 1.3421778137774238 0.2157919169957767 0.9136535925478007
Ni 7.404929461383499 4.15746940533728 14.162704390631973 0.33547316960920937 0.4734560487453071 -0.29009448436409396
Ni 5.668178726909701 8.513558341232748 11.324571717904726 -0.11850368736556365 0.512743276380704 0.3860801931327996
Ni 2.9838128410486764 1.2504851139570288 12.982273675822452 0.7649846944527664 1.9910707727402288 0.5254789787798175
Ni 6.477625414573231 7.159654907555896 6.24852977132811 0.7097023769406938 0.6719552400989072 0.10700160026323507
Ni 8.134682485464815 8.451376859064187 7.550761868431041 0.7807823236066553 -2.9643065957270363 0.9875108448485831
Ni 9.239481757607514 0.7958539442606548 5.86026050248441 -1.3409606535408711 -2.025327894150886 -2.19058734961475
Ni 2.1808528469325363 8.685247692165621 12.660323756634686 -1.7021330276883977 -0.6637547065659859 0.4038945956064012
P 8.273276461155906 3.8117834830261077 2.4014940401766056 -0.6138323678142461 -0.7561524408731171 -0.9147391123024956
P 3.032557600869074 3.2635916875212128 6.604053530325441 0.49640237312883545 -0.17345664656267545 -1.0033820075528848
P 8.600258768544721 2.312317133214396 8.504099682988645 0.2132436966526263 0.9252847490288258 0.4107530132891313
P 0.9094590204798988 2.2342404151082813 4.324333450559902 -0.8523770051255062 -0.6032131975375031 -0.2950022060783564
P 8.57263831395008 4.540335617777222 11.87397480414347 1.4009419191905097 0.2801134618919821 0.4796251536704966
P 2.4371623444479 2.870598290257286 0.8432408481139896 -0.4301013359087561 0.07212587143197256 -1.9922156849779498
P 5.709954546286328 1.459969383416018 12.668018904169475 -0.11230450053338722 0.7170310493916232 -0.244704743375385
P 3.4071405136770725 -0.0016888097194807012 7.1047411697904295 0.24942348900729303 -0.6308317305857201 1.0033768653465625
Ni 5.084735628861558 3.140401245049799 0.8477872070900608 0.09858123741002377 -0.6639215711611534 -0.7250644612190609
Ni 7.906031265830085 1.9971640585191428 10.737830429318203 -0.8822149144225452 2.4377577809218085 1.120628682582896
Ni 0.7489795459324928 3.0281700996941634 12.582822898057778 -0.31105668843805784 1.805122678578762 1.3531582240483275
Ni 5.196181941032888 0.7124706191300574 8.314553013157457 1.378996011047038 -0.06471158124577242 -0.729575461715537
Ni 7.800797428382712 4.098881135337827 7.526473645332172 -0.2109065638790174 -0.8417519213114923 -0.30522696913015823
Ni 3.4842716496334227 9.390443947817534 2.9698012047534554 1.3058887495384026 -1.3999175916910536 1.6812003913007885
Ni 5.316129036730608 8.717416396900633 4.914202724897849 -1.3542154616682482 0.722713187378065 1.3025254894931244
Ni 7.838639626016317 1.459307475911182 13.30808440692771 -0.7279029591091205 0.11435675507672564 0.8044015056874921
Ni 9.175418566960921 5.685558526822386 6.162876103455927 0.8454028878005181 0.7005639049745354 -0.6742008415999744
Ni 0.22297772673613894 1.1046196115342444 11.939989676347182 1.9242817401401375 -2.9795843478217137 -1.2577080760681179
Ni 6.823386983456385 8.612088001238284 13.445579616160773 -1.248325349301637 1.0522316820657363 1.2439912407026577
Ni 7.598896727764841 2.4928098539615835 5.353138176490269 0.0012960931036042195 0.7588330730290739 -0.17645223885588968
Ni 2.9402404155874953 3.9729295929890984 4.3514035763433805 -0.3971459640286579 -0.43631980601464215 0.5946303409644984
Ni 6.889729027083913 0.4745129799773376 6.5526535758285025 -0.24959189626435727 0.10779709958133693 0.05162672303735625
Ni 7.122900129394521 5.214819365204761 5.225772988827641 -0.6827973250197338 -1.3364015734152792 1.025600195521137
Ni 1.6376726368213976 7.229448326030067 2.6374725758898663 0.3217519633683749 1.3515001196196144 -1.0911139609532305
Ni 7.3943956762351135 6.977554697154107 11.979694670815825 1.1592350821011843 -1.7294561409833826 -0.8532761199010078
Ni 3.642798497041563 7.013987977384562 12.163912985233086 -1.4292461654518418 -2.9574530631403126 -2.0585352341407903
Ni 2.768768548549068 6.692130725247472 9.74477343655971 -1.010048106719151 -0.7734315396685388 1.7548177596766228
Ni 0.16420412263533127 6.005127470157042 13.379689560800832 -2.060786492068812 -2.2281593943312528 0.19089695352630995
Ni 7.667432521979824 7.1480337029352805 3.7065364074286387 0.9019974963661112 -0.7810389197021517 -0.24640424256499496
Ni 2.330056254343992 5.465190606819599 6.557289765108801 -1.0140304884056663 -1.709507722885914 -1.405031258768535
Ni 4.309093503052135 6.50812043890316 5.824291503089491 -0.2796282947254475 -1.2534338741727962 1.518359058360114
Ni 2.146216172786636 3.710426532392773 8.406918423128674 -1.0394736110691194 1.4793420536669684 0.4044424976900712
P 2.3460082252105314 9.069674115152674 1.3621451276942056 -2.2404572378619996 0.39868451216037143 -1.4427866231404378
P 7.310465804621952 0.4575322157318536 1.5686857999209756 -0.05087621802457689 -0.21466397403892062 -1.3821988342550517
P 6.494475688482047 8.167910242207565 9.393899104992776 -0.32326428624784326 -0.19233779973789455 -1.7618407279616752
P 1.431185862777164 5.749026000714627 4.091428056833377 0.6405204186283936 -0.1652100902831671 1.7555890906250087
P 3.975974367511342 5.079336354786399 11.04137364637864 -1.4912074376459867 -0.09992849546653758 -0.324477332719338
P 8.283299631943416 9.056606169842919 11.431994578028807 -0.47097441997403405 -0.8718055461637632 0.8077537099891766
P 0.7349253584405322 7.677692088304776 8.63019117149554 -0.8027696265110239 0.18333791023212942 0.2951050502048079
P 5.605240779021327 4.596172243720859 6.811909507322534 0.39691919272983256 1.0819562057133623 0.7522945005796076
