# total energy = -381169.8177446344 ev
CRYSTAL
PRIMVEC
9.25650128037527 0.00000000000000 0.00000000000000
0.00000000000000 9.25650128037527 0.00000000000000
0.00000000000000 0.00000000000000 13.54782528531555
PRIMCOORD
 96 1
Ni 7.180804765731435 8.865728631533695 1.957281599714154 0.8284693452699732 0.5363025517578829 0.049255137481386144
Ni 1.5001178217165692 8.538557600819507 7.434979028919464 0.3235085410481654 -0.3657275976183766 0.011767167838257153
Ni -0.18100902734219315 4.331774067459318 13.837071384695834 -0.9565123395845397 0.16862065862661282 -1.247121301691207
Ni 7.423343607060426 5.705151876372416 3.4335472694447464 -1.333922258636851 -0.15250986910767927 0.6823941760440442
Ni 8.103751975533397 4.644190235450111 7.598310916146936 -0.013604735267628183 -1.1223441226121058 0.22351216845816987
Ni 6.357874050111588 1.31730192536333 3.5533097317332265 1.6893824128909487 -0.3017418387950352 1.8902701590813833
Ni 5.472221283165688 3.239553222385879 6.431802947296621 0.8836256787271428 1.3378264787872636 -0.8330237974098751
Ni 1.3299648188423798 2.917241854739308 4.959181562041687 -1.1184779547884802 -0.7928857917384087 -0.3222106481723483
Ni 3.351149599420545 7.779922541709512 1.1787987509859001 0.4648294834185608 0.19843131423014213 -1.3591962027122912
Ni 2.1403252059939897 5.067230847862047 3.5036032465774163 0.6028141623268715 -0.5995151798606255 0.3020830241845378
Ni 4.518968288823953 5.88800479872998 14.101117706286939 -0.47550341819263914 -0.3606728088032885 -0.7281554414395589
Ni 4.780094184323946 0.9632592720104857 6.173202225291573 1.3036130661303484 0.4121102986479741 -1.0084008009237149
Ni 4.422228596024576 2.498061203278224 3.967589065871828 -0.31939323332821123 0.1432371855565017 1.2729979123476527
Ni 6.756977350727601 3.525745722813699 2.5131891029951907 -0.7375235129180201 0.6095458246237502 1.2056828320407622
Ni 6.230967420288656 5.33071715113774 12.067670838726539 1.1593068158793842 2.74074377653659 0.43492523965996066
Ni 8.570696172573353 9.513924376244171 13.673277598064413 1.1074569210876282 0.17018646045183594 0.4096836914843525
Ni 4.222538098200352 4.115662536717087 2.218185339188199 0.017240275137686438 0.7887828253136286 0.15209103640270583
Ni 6.469961021703556 7.777784289959761 13.396278654510418 -1.0380875293548701 -0.781539513487654 1.063216463212014
Ni 1.4997660746754842 3.5447030370279484 10.722507770758975 0.35158627312098806 -2.1496037081135366 2.6227134292630185
Ni 8.411336249959815 6.719701420873702 1.2825669050562147 0.8059742494912506 0.7908481924830896 0.4362455011332809
Ni 6.352671896503967 7.7783119105213885 3.977925800629178 0.7240550461179401 1.1308799279972588 0.4651002205814442
Ni 2.907994610159213 6.6255257788738104 5.507367292120807 -0.42510902490048724 -0.33099276524035254 -0.31157682260758596
Ni 2.271563878322912 0.7605011697279599 0.9100186547418819 0.03940215594670634 0.08049686910448717 -0.22486405450037403
Ni 2.9395870483492685 4.879721905460651 9.453265599009114 0.7328518184739637 0.3039033652227282 2.414681101608003
P 8.153764850874994 0.08301970689685714 9.79789531641251 -1.112893261611851 0.9329942018579416 -0.653639729619171
Ni 8.398284583435357 9.385444141237441 7.455923713915843 0.8852215624593528 -0.8639006894943896 0.6663345514780202
P 4.242596936043262 8.481981866211356 4.747239159386418 -0.10144673188327691 -0.5950859404446784 0.8403912935185399
Ni 0.5464195896728307 4.922690583479473 9.386542887915777 -1.3265938432962379 1.4423749895243156 -1.2896206085059985
P 3.0714088802463055 2.2218749805191558 2.3047965685045524 0.5374158394267197 -0.2781036305508049 0.8098784696416633
P 7.844560688759369 6.969515872052497 5.857483337715016 -0.03640810631538891 0.13041997918717538 -0.3112127543999479
P 2.7274743260741054 2.3883994349695237 9.562976426773544 0.3427643039539839 -1.431846064968534 -1.0510451179568028
Ni 6.523047055404104 1.3480797914582423 7.678419453453762 -0.4712886087803432 0.7609040966254895 0.7942608177090643
Ni 0.091601409049216 7.49732156370119 9.437333309348192 1.4621385453044884 1.00495166603285 -0.5595049580162752
Ni 6.366278953093296 3.37730847147595 13.155506879237823 0.2692423235054331 -1.5802475683347945 -0.1496726567692003
Ni 1.7719720019696459 6.034674058361224 1.231732052418609 -0.20487141342853105 -1.2474899978845353 -0.12113212612734622
Ni 4.611996124689779 0.006650796026825423 2.691722941948277 -1.1483521166400934 0.33465941545866235 0.22123262839537383
Ni 1.1895159279376866 5.857578679676152 11.474438346135873 0.45336364887080627 0.7750744745886007 0.7849526529342611
Ni 2.7108033676269065 9.915193698113178 5.694462468923874 -1.6938044532180443 -1.0900148143517807 -0.8490394561118408
Ni 6.736326096815495 5.282203828971293 0.8794601677225934 0.010264358040485547 0.24780935044263772 0.3331794884790262
Ni 1.0254351897727492 2.019065041830576 13.031951102806278 -0.742370042377044 0.6815619099507358 -0.9659914827195686
Ni 5.376721961511188 8.106649260371805 9.266170422206047 0.5731760277454645 0.3337788126259219 -1.1372817177585444
Ni 8.21335820483561 6.4590476069288485 12.56096088914374 1.0554694722767435 -0.44664021410404375 -1.152816323059034
Ni 2.806367484788974 8.593837425276295 9.792123887988396 -0.6971502513072961 -1.8937043815739127 -0.8533152006690594
Ni 3.0678728968332956 4.07627612461668 5.495092246037059 1.8025104377668957 3.3244286742331774 -1.7128763822478306
Ni 5.257442688579145 5.691998388336064 9.923171876395045 0.3580826794786091 0.8425124536266007 -0.8027673125181788
Ni 0.09082201165818093 5.219602112159294 5.377795715636604 0.803941535331938 0.339391530827009 -1.2540511960418208
Ni 4.555985036647579 6.392428568647619 3.4502247074427026 0.16722994892667326 -2.1229920190632794 0.14014054890904898
Ni 0.29193430804847353 6.469923995699231 3.309624935570386 0.853322142647595 2.280529166182221 0.6532700049845781
Ni 8.60363080342018 4.175764998237167 11.259868022823657 -1.0326157076070217 -0.434082174933375 1.0950742311525592
Ni 0.8684856600407505 0.7517796944092752 9.66640023900364 1.6871836054674167 0.8601453362170153 -0.42988253502973056
Ni 4.77508641723903 2.8064322802965425 8.983589808500101 -0.7412431278614525 1.1846954311558175 -1.1168231927938765
Ni 1.2553296506248524 1.5119753996015561 7.2814275607343655 -1.105673089714328 1.723334344356361 0.5948699677791304
Ni 8.782827407850679 1.9427174209130305 2.831807126710372 1.1461509952237166 -0.49568657800873345 1.1861761294664024
Ni 6.319848343670114 3.6764970994217414 10.487154751219302 1.3447789988456968 0.3357261661602799 -0.3813933291800915
Ni 5.88745866516619 1.6553123188435768 1.3498635192165853 0.3771427814338537 -0.445361090281304 -0.4452340777851365
Ni 4.0256800897069684 2.5397709971500055 0.4083162961421075 -0.7295356096165371 1.0998330859937833 -1.557686652315143
P 5.792699863598185 4.460763410025514 4.3006759264269965 -1.0689716205282365 -0.33937867531120264 0.6193358141309786
Ni 3.2680169632104974 2.630086678199046 6.930417337135715 0.07771262149113069 -1.4376593292162017 2.076236250964979
P 5.968425280123242 4.554198531938911 8.168986241252881 0.21216023378046045 -1.1909820354954779 0.3577983154689709
Ni 2.0175099496489377 0.6127748176732455 3.367054119578223 -0.28701533121813794 0.6527724965228694 0.5727461392968975
P 3.8936823842893893 6.413163131069456 11.377761597543847 -0.8187426049005125 -0.18002581513976093 0.6531075112647848
P 4.975739591175697 1.7281980083567616 12.01166437893488 -2.560736216229274 1.815438972903106 -1.093354420247975
P 2.187459309499341 6.686803816031199 8.294073042963253 0.45875910885476473 -0.12058191005083106 0.6350141440981838
Ni 6.695680800568049 6.5129759822277835 7.779621705424374 0.44481010287384043 1.6334997427907159 0.8211087911398439
Ni 8.400626478208894 1.5821119082936317 11.518739960310384 0.26316989205910807 0.290778397804996 -0.605568585143557
Ni 0.4997538651221867 8.680922587448004 11.627488111962371 -0.4174471374798553 -0.11882764636388567 0.09365988884900643
Ni 4.584217364945167 8.583988508125923 11.287330210231293 1.8243781843742644 0.2950610843407499 0.6495784150656038
Ni 2.676193310084387 0.9241662909943523 11.487105867865463 0.16364583111984077 2.031378728330657 0.3152465581496893
Ni 8.100549226159309 3.4148898658655273 4.900736014215139 -2.567387402997204 -0.34783246250551064 -2.4225749025337824
Ni 5.382535044190166 6.435600889690228 5.905266321946159 0.1383577459770133 -0.6208383668184341 -2.142448328015678
Ni 3.87614131474056 7.904070734210254 7.257692040662013 0.5068978733435205 0.8237223175032912 0.011976969856218083
Ni 7.844375558737746 6.067451328689669 10.063690191057848 -1.8552077681606114 -0.9543101897268983 0.4467415155685983
Ni 2.2705826892083074 4.148856349594186 13.18402523341882 -0.014840921667574442 0.5500075600488011 -0.5283724982775287
Ni 6.375081885621495 8.6711384658052 6.230319465212973 0.7370391170824339 -1.000992938495418 0.4383175531709613
Ni 1.035580314957719 8.319261833705351 1.8159912928611817 -2.098024036264032 0.29124505302876935 -0.2576661886320595
Ni 3.8803715357346573 0.7303666304581893 8.304220945098548 -0.32924750041447165 0.5927925164248113 0.7308265605138188
Ni 8.897876459788623 1.0967750436053776 5.0501951832722485 0.3359218271108537 -0.1268777703618718 2.2129680313027955
Ni 4.102897821726144 5.634376669105739 7.644482343539845 0.2256842364088242 -0.8786665349496545 -0.7979575498343613
Ni 0.8471429454978814 7.94155956358902 5.027245540141688 -0.704994172831747 0.8012326210412072 0.6394837498337631
Ni 6.52199181428085 0.7396185032888254 12.720513346979764 1.5308394502153118 -0.5903643665992929 0.6162463765723775
Ni 0.33860558649976624 6.414588632235957 7.208594633277344 -0.3981301823187982 1.334727528146966 0.8349516105602073
Ni 1.8440894018930933 4.465854485620161 7.553237309782253 -0.8763371154855294 -0.36941044578660254 -2.0939164418535614
Ni 2.6774892202357514 8.00410574139453 12.343287786669112 -0.4868826065638583 -1.5509873859180967 0.7455929201897159
Ni 9.226361913656339 4.450164716287567 2.6516746900205663 -1.1925259829438302 -1.0505146993746295 0.393659033921322
Ni 4.307031440069332 0.20235729578571088 -0.019747819406582264 0.9883526240235881 -0.07596118601766273 -0.003094579764923703
Ni 1.3643712333611133 3.2119503361618107 1.558094990588411 1.334375801234502 -1.0139548979727246 0.4881483606501594
Ni 2.5861368110656198 7.446707015789316 3.180297730714727 -0.6119274374820494 0.2573478860606923 2.6958152914550153
Ni 4.319879463570006 4.262155922827788 11.894015175843233 -1.6377263792775538 -1.0129958764935652 -0.13741980754377625
P 8.978509840706753 2.952647971374809 6.631985890978364 1.2683424158535124 -1.0691649674859651 1.838637522506756
Ni 8.534364405829734 2.4733185758882383 9.093381167823939 -0.5096564099252642 0.4047104066394772 -0.5108787123681395
P 0.8216227720170775 7.39710142649529 13.370403031388097 -0.5466031623529425 -0.1708516048396606 -0.35148882831117534
Ni 7.144787720024577 8.150136302451173 11.228992963467393 -0.15314930246389108 0.032895465176440125 -0.9898307512310114
P 7.939338003329537 2.515491194814079 1.117798408860946 0.33827361517248195 -0.015501438069708785 -3.969743943147054
P 5.55618700447304 7.479289899595057 1.8515816138681978 -0.3258220196726905 -1.2039002862190429 -1.00156860849323
P 8.813105422887206 9.07942421549374 3.460616055556432 0.2504827835097428 -1.7470985366554943 -1.0463199445669917
Ni 6.169133993066396 1.4804477569190686 10.183276779825785 0.7610372797692441 -2.784283608800753 0.1381623421367556
