# total energy = -340886.0159011637 ev
CRYSTAL
PRIMVEC
9.10516365047572 0.00000000000000 0.00000000000000

0.00000000000000 9.10516365047572 0.00000000000000

0.00000000000000 0.00000000000000 13.32632736652063

PRIMCOORD
 96 1
Ni 6.923630295801909 2.274615601876429 11.13725153520403 -2.369635888442906 -1.2532181586175644 0.008207218401140704
Ni 4.981480645213291 0.4685153089079704 5.93100172674114 -1.6840815695033255 0.27897086364710666 0.11523812924041443
Ni 2.807768468657877 1.8861711034966127 4.780060764033106 1.6163710535302291 -0.8164898043105937 -1.19628827819974
Ni 3.5643984759445577 4.20901675806438 4.499435062886532 -0.8301541891715639 0.466227649317668 1.2995687208576459
Ni 3.8770515907860124 2.762197123798495 2.6261259137851964 -1.1586396146090303 1.1087671552586194 -0.9847818759531943
Ni 5.231153341994337 4.657518916922216 2.652139366784848 0.11887161222794367 0.19095300357522596 0.031172054727430187
Ni 5.019412757637705 4.762583402103518 11.18529311100454 0.6725440227228418 -0.33819185409195307 -0.0344412123970052
Ni 5.975837374364832 8.001663480349597 12.370123493406208 -1.9676485371615466 0.1618810259099341 -0.4697698581429716
Ni 1.6230865004262827 6.7522346922788286 0.3649577283369038 1.6737254230799818 0.5801609437037298 0.24534340540064842
Ni 3.0157486203617765 1.5012867241657508 0.09561514618128845 1.157833316657651 -0.3860701658304706 1.634144061242934
Ni 7.89629852476263 9.144953373909713 6.742349215932409 0.8528269481787313 -1.4630811117234157 -0.3555627412702328
Ni 8.630384146460532 1.9441709969540084 1.004225816203105 1.3262115202561546 2.244958982387095 2.875626162370492
Ni 6.928656346223963 0.9138943965796388 4.602274246033141 0.9978657057203459 -0.055998112632174524 -0.3035981752774836
Ni 1.0647396453879088 7.843515890167256 2.5677299457021494 -0.5432758977519224 0.327344626964804 0.8235333414209365
Ni 8.11860109913662 4.271551023098194 3.662021310745525 -1.3812855784121632 -0.7878772827802237 -0.49030757308500716
Ni 7.905157849147881 3.6032593150773935 12.75490771593518 -0.04916206354694759 2.7993947534105788 0.42901067394773856
Ni 8.316774989419232 7.325595962436707 8.970897241521914 -0.006575853445304804 0.36948835021238946 0.08352845684195936
Ni 7.0040653128823855 0.7064969753594555 0.2122204264893171 -2.7065308781003066 0.2445381358905337 -0.7553237743242347
Ni 2.0899901953402247 6.627557684254947 9.184611825392135 -0.6909245821125586 -0.06044303577740559 -0.6521896274362058
Ni 0.30650439772186594 4.588711194024643 1.2530590168810465 -0.7995374927269714 0.3456866198071014 -0.03173898297449373
Ni 6.491034858116769 1.9182850162476701 6.990311962950298 0.519529446064602 1.295979717954807 -0.39019575796306993
Ni 3.601374546169124 4.445386810521837 0.3975323623766495 0.11943134138615559 -0.4617881254890756 0.14669094843305705
Ni 6.006667459018951 5.867385768246928 4.789855188741444 0.2862000344056942 -0.10932742018293429 0.08050921039966136
Ni 5.6642040378698795 3.160857615970964 9.047190319586102 -2.3544630373572093 -0.7427132846490757 0.6738131192432525
P 0.38448830470521067 5.65986997989724 12.457344589072838 -1.4310929888525934 -0.843487158835044 0.3032747304997938
P 4.0404437553218004 6.265518160918528 12.556691941899052 0.33357389570396745 0.7537322614673987 -0.05892299958845336
P 2.714340382823287 8.660285504406229 1.507660338831399 0.6098818678069303 -0.013626075423866856 -1.972167508077823
P 6.428500593082954 8.018426086920252 5.615541489897658 -0.08785202391797772 -0.805749277964638 0.0571697643427725
P 5.009706653018304 1.249264895122224 12.25271877971583 1.7849624015808034 -1.1372513787412415 2.3096991028779574
P 4.053436824075915 6.346581434301762 8.096716837923928 0.9989404268417634 0.5967065067672368 -0.35844906167909235
P 4.852342106923457 1.4103534532145714 3.8935929418761304 0.8857882335961003 -0.5613350692464785 0.3870140178009786
P 0.2767323331022437 5.9313404388348 3.0756232670472543 0.4166719498767275 0.017739583371608157 1.007013433657885
Ni 0.6183334952386904 0.5360792664293615 4.578526157788938 0.5520911820507073 -1.1275274665852582 0.853244238221808
Ni 2.0170487280737883 6.453157376675204 4.483522878615551 -0.8664717926556754 0.6844777980459502 0.9277512082914474
Ni 6.148252756234416 6.020498202843407 8.940193718644727 -0.09350407999743252 -2.4160206463550327 0.8152765007287831
Ni 8.922441380768136 2.038691702445567 9.885003788418281 1.0859894952424716 0.8158742822137819 0.5074802282095519
Ni 2.6491291996299005 5.407046896438604 6.816016364754348 -1.2492792285744743 -0.9036661423177856 -0.3511270740963824
Ni 0.9443238540262036 -0.15576476881376947 8.558167450233219 -0.5065685150285598 0.2872415882963311 0.7446117872233692
Ni 1.44184821482668 0.6795675428807123 11.79569236650088 -0.8413857962213253 0.7552376423683316 -2.4499779771370838
Ni 4.25195671058323 6.666600626663945 1.5091262702044979 -0.10458142085751668 1.7742959230058926 0.2960298760119224
Ni 5.700542746627882 7.9764968075840965 7.888386137413418 -0.8768827035763543 1.4254550738405256 -0.6034026878404898
Ni 5.653332472283047 3.2278625164345396 5.049425198581861 -0.5210075732720253 -1.1820605646361322 -1.3703995276272787
Ni 0.7010038300340478 7.53440468404714 6.620186143635935 0.33856954914634596 -0.6507721782633888 0.09633383613674376
Ni 5.32513684282122 4.480432586019092 7.0236140995783085 -0.3602472912300957 1.5699582705936446 0.24579617666735087
Ni 0.5030621214285437 7.4352585553410835 11.147939176481941 0.8413199759803962 -0.6865459934288886 0.21787862432147637
Ni 4.9077743441869774 0.5200268626357368 10.128275555042254 0.2638208953795456 -0.632517345818259 -0.08402236575924239
Ni 8.352813227771566 7.652753603224415 4.47025028133253 -0.23800419142675786 -0.6454955032454819 0.0771246101981446
Ni 7.482596301979231 6.552913551356402 6.701983293222099 -0.17644092600198 -0.9257359776336315 1.2110739211493466
Ni 2.433163819266325 5.34809096078136 2.4574809802485333 -0.3417752005678372 -0.6363230927175946 -0.7976220208718134
Ni 2.4875489626919176 5.070538252420009 11.626541185856489 -0.29158186754289783 0.12440591178261157 -0.29616100227314807
Ni 1.2727562177470406 3.352393841837492 3.5154181577554344 -0.9855100123684705 0.49642422750570636 0.12302908603974294
Ni 1.7871706574114843 1.2767533846587826 2.4970074068557393 -0.42401604894662454 -0.09083476069538549 -0.7938949497292134
Ni 1.3536920188369612 3.375557378565218 8.271038841094922 -1.3742775225254462 1.0313293846954303 -1.2427830793271692
Ni 3.5699435207036716 2.974547754130267 7.2284129070476695 -0.09622533558333751 0.11458815436124135 -0.8552000763965981
Ni 3.9313365774097164 7.2976886353649775 5.741155419277391 2.0708472187389235 -0.9247399322689492 0.7032321958353179
Ni 0.644685660332002 9.09320872798846 0.4488517971480657 0.20473643051256352 -0.7012511608495471 0.6592776446312387
P 0.27438502187252367 5.564156497946824 8.26123075864087 0.26582635584534864 0.26174652934902015 -1.5239499221843302
P 8.918498844839243 1.533874105434828 7.776351649337039 -0.4713721696330849 1.544173962540689 0.6482267861337159
P 1.8045342047934707 3.118691602375799 10.335073856483866 0.800236318566209 0.42611818289129194 1.8145226317364236
P 4.075352953361935 6.162684440870205 3.797657293928798 0.055052717999769706 0.8367436694636234 -0.596782868531127
P 7.104759319435814 4.149523617742461 10.202809515458723 0.6577455242574285 1.958835566855607 1.1126428361639418
P 6.48348667731988 7.760786371807147 10.160698132846404 -0.3478054659223171 1.698100766600553 -0.6689943576983703
P 2.2995637507105364 8.508028955207708 5.5345437736938425 -1.0502552750656557 1.3041146883571155 0.3034063709816517
P 7.023459311793571 4.202306252337833 1.615603876808812 1.3925760637243176 0.5329395488229208 -1.0473023630849188
Ni 5.539863920906898 3.0463237604292708 0.5304067493769349 -0.2479654164045278 -0.8648653674005041 -1.0446194169361172
Ni 1.7203478602240698 1.38971204686168 6.681314571377783 -1.2123062508945508 -0.29978600062024496 1.2957154085498266
Ni 7.119036216286866 0.7694109257240661 9.01660698487118 -0.1821696009556411 -0.7726848913105014 0.26311872710619844
Ni 2.8271715727328712 1.630607365731747 9.15855830967173 -0.5133135470618772 -0.8017802660145611 0.4116557276090587
Ni 6.567809599346401 2.2997549591505058 2.6363737756511774 0.3394411531180218 0.16751585559820828 -0.07331809196786084
Ni 4.300523654335468 7.093459811150002 10.46512473218727 -0.2538115907726597 -0.15971512860686687 -0.6175818075543493
Ni 7.9340485339108815 7.445137658072838 0.25988595902455547 2.141104155282958 -1.0649432160951335 -0.9335570163399471
Ni 7.564369778139494 3.840448832277577 7.997249296935446 2.53131636830626 0.6566522911932497 0.10868413017198056
Ni 3.4607543963173146 8.781375077889733 12.068668819532297 0.8470563642435412 -1.591005063961615 0.2426920838207304
Ni 0.4552035594205743 4.921422984735273 10.410220594424617 -1.239277637277072 -0.6842109175378087 -0.8300150924905382
Ni 8.691652793725025 2.434675276458464 5.6890629560986685 -0.41254172975843784 0.9757192515302938 0.01374023240422795
Ni 3.917314625145291 2.5544446011897968 11.191969927624998 -1.2692438446218592 1.9970969243296508 -0.7324378708649967
Ni 1.506768032778208 2.9675823038170948 12.695045816479034 -1.6259877506843867 1.431332101446593 -1.1877365319749869
Ni 3.1500953123498268 8.92021061563516 7.664157820894021 1.2477730763425932 -1.6214075875128722 -0.2608301881823379
Ni 5.568408609445193 8.079658313529512 3.6527331331449147 0.6028427015719617 -0.49839652074072865 -1.1481317730991711
Ni 3.419744738525774 8.848307137042843 3.6067839239874973 -1.4434165434149526 -0.44178365734269076 0.465295881532018
Ni 3.3128774309104747 4.621426047587033 9.2569068260282 0.9444001297020379 -1.1005884761025693 0.19760341901220807
Ni 7.269835939276096 6.186239499641678 11.406403819436056 1.185853970240293 -1.5905445793854285 -0.2393211104659685
Ni 7.888650187163852 8.902145970639951 2.3065210063762813 0.500320477236319 0.2308786361255701 0.6697680026396013
Ni 4.739356129229135 0.838998961159991 1.7173240353234103 0.8066432505338172 -2.0173369055256094 -0.6839432656987188
Ni 5.998454601264073 5.704394230918695 0.18573805755355 0.4202766365088504 -0.41193006431636797 0.3151275160733218
Ni 7.997120003609372 9.001501518113596 11.338746078727441 -0.4164585483143408 -0.07499342278775471 -0.6234328670184875
Ni 0.02508472629122859 5.353672426195706 5.539913999307842 1.0879270785848167 -1.0261419269572198 0.25256357729817147
Ni 7.235072423856891 6.432834651055595 2.5161173246561135 0.12709400013773597 -1.0787590389323034 -0.05993575712368387
P 8.694001925987507 1.63417658994451 3.159672123643153 -0.7584906020879906 1.2317443050145045 0.8376039605813898
P 2.0486072258325536 3.249177704909228 1.4312343253756148 0.5594422230991397 -0.025320223932343493 0.006494349475092042
P 4.773955751699796 1.3855145663461605 8.07344950232879 -0.23107146886266658 -1.3816840994021624 0.1589584529465004
P 8.632669542576359 1.6596801537709096 12.299521142722062 1.1988678660014578 -0.4957351718584817 -1.1615709293232126
P 6.212152795839439 7.976360230126975 1.3410413042420308 -1.4856044896369125 -0.08352974239354001 0.12788949945583783
P 1.6140541779286788 3.3933215531547596 5.700043783651199 1.100636555731685 1.7093817388310109 0.9713380917434625
P 7.205480641480668 4.29919430041949 5.912837835460425 0.9381392363939909 0.6371682143267091 -0.3756111752806757
P 2.2421921135558973 8.458369391798504 10.211085198843875 1.090534948521309 0.9851983946653226 0.5016574508801876
