# total energy = -340875.3007840611 ev
CRYSTAL
PRIMVEC
9.20369337725858 0.00000000000000 0.00000000000000
0.00000000000000 9.20369337725858 0.00000000000000
0.00000000000000 0.00000000000000 13.47053558120098
PRIMCOORD
 96 1
Ni 7.972018359731288 8.060870816096791 1.7461992673047209 -0.05806553668416451 0.09496780902715259 0.42512496574008724
Ni 4.8403972445917685 4.060411837547302 4.104256392305328 -0.11971313429263253 1.1231450212468463 -1.052802981188174
Ni 5.1098537771184755 9.618872039791874 5.70322233508444 2.1537241580398137 -1.4379979435025427 0.5775062796897021
Ni 7.2791090962204885 4.558497318548782 4.315515210171171 0.39517109969047426 0.5453839452338608 1.2382155145611449
Ni 8.072485877204443 4.221706564894043 7.138131522118709 1.1453153866962986 0.4797195131565158 0.9502733006533635
Ni 0.18569279825820906 8.906929538269488 13.473768164173155 0.9608258793582292 1.1226727095961182 -0.21410938708703123
Ni 1.5854282301141012 8.586162414874988 10.925695266110642 -0.11718162612003044 -0.444533452173686 -0.07593753186857889
Ni 9.288275371814988 5.128702941261477 -0.05989947757592356 -0.23045311855237727 -0.07377214878614391 -0.29647853351356684
Ni 6.000909356466535 4.695439073081858 6.571277884552927 -1.2033004478515148 1.1364129420003461 -0.22274906503990025
Ni 1.7707814120847727 1.1829599201485868 3.4141883089561236 1.7566360438322843 0.08611627217379363 -1.1756415484836655
Ni 3.9879879739529223 7.475552728773348 2.5796885053611587 0.04485186620736792 -1.4212212382648364 0.4172728166855201
Ni 2.7650288021610296 9.18806555775785 6.815552191487998 0.10033215866285947 0.6570492695213522 0.5785658313024681
Ni 5.897616305110616 6.710145972120736 11.20880547783957 -0.6319928407733567 -1.5452849362166807 -0.663145098006445
Ni 3.055773477589477 7.483605960523898 9.160260279538893 1.0764992963638493 -0.26433280201895765 -1.15716328717382
Ni 2.614097433615568 5.048363901317986 12.92224419838305 -0.07927919464730218 1.7227931271409105 -1.0949294780445789
Ni 2.8198091854516316 2.575128995636333 7.297487951629259 0.5262317977854422 -0.19046089443015585 -0.6489880897797725
Ni 6.881178207115571 5.580263751978349 0.5866581450867351 0.5232475183461376 0.23049759863706754 -2.7806318709807787
Ni 4.839025894270817 1.2956407388022901 7.842478215453975 -0.29230511886216753 0.16698440857477048 1.4442133282846352
Ni 4.537586527077638 1.4744777058250873 3.5533113388319197 0.0036995603387742744 1.9012791085973773 -0.06373996136112249
Ni 8.158595632928044 1.9271245523666038 9.683214140186072 -0.6258021385816126 -1.0996783055834738 0.06572896676669325
Ni 6.966293963948818 0.13095843343475289 13.382788734256163 -0.3491681505977987 0.40466566944447085 0.14781323496295834
Ni 2.166586248007546 4.831911439250045 9.743238787992633 0.9581300776936208 -0.05757522731130729 -0.746570710721953
Ni 3.462889652736738 6.786324942634229 11.340143103443605 -1.3483806001540262 0.009088592564829507 0.22330236644020895
Ni 1.7898974833372225 7.0173192403203055 6.806608042213501 0.9004139539290751 -0.553806364969601 1.7478912077601187
P 1.2676983255512368 8.600888324361708 8.641173810870663 -1.752279823746118 -0.9468287937481886 -1.3335664179593292
P 4.106494730547309 0.5873033239961221 10.48073718505988 -1.1381913740570073 0.42071423826690124 0.8318338908668318
P 5.03806496837071 8.24763216316213 7.69736082004774 -0.5540717028158457 0.026520671998347872 0.06581972670828665
P 3.9168434237452012 4.78154882880546 10.912238545947808 1.625941985048116 -0.17226416891647106 0.15879338812354588
P 0.3697491798247063 3.9779007259545183 5.453075151372196 -0.49903775386915344 -0.038547521255894904 -0.29201458420494225
P 3.0189310927923874 1.6214698935828509 5.224466451022968 0.45720256300092227 -0.17076598710438978 0.8505342954898126
P 7.552109050717438 0.2985991074009278 11.250685964419803 0.2659991339777871 1.7022358718148491 -0.24805180547074698
P 8.572274041490324 6.024710107674447 1.96660379533116 -0.16123413635455458 1.4273720883575804 -1.3426678660399651
Ni 1.4315976981384417 7.991281690078605 2.7328480880858295 0.29097097343177636 0.22441359722651671 -0.4393189978522821
Ni 0.4940395373700033 1.5703065618099243 11.60100062519941 0.38726444324888787 -0.23519551833336916 -0.5857973160539008
Ni 7.163952484034331 1.5174129356723083 1.9879545233482196 0.6207987718297502 -0.9610863321084675 -0.5318123771970131
Ni 2.714445303074143 5.994917752044125 4.192273153307459 0.007723336786186698 0.023943398189474892 -0.9297733809277987
Ni 4.5644981266646205 3.260933007819789 9.159762359724374 -1.045791068646715 0.7680116542045483 -0.004075969841586528
Ni 3.6334064808995383 2.9744036239819147 0.05043255851464779 -0.04118650154063874 -0.7646602212338122 1.687943366451577
Ni 7.782633960038626 7.090939584060482 4.121445210153703 0.4213089344281067 0.3935207085712449 -0.17108686077891827
Ni 5.265258140670527 1.4094720191346435 12.161940889736929 0.6819486038661933 1.786890986062084 -0.18481218078481074
Ni 2.992488881570294 8.14803899656475 0.7406663083455781 -0.6663736322460717 0.9992170775419178 -1.6672737539173674
Ni 9.156358833894254 4.257453710173058 9.669338651972211 -1.8688886080818135 -0.4775775271128485 0.3716881860771857
Ni 7.832849311388346 3.0619767669607585 11.625368323922562 -0.6071755246193608 0.9815602836921032 1.5303761374256482
Ni 0.6392296419543292 6.221982072635934 11.171640963772457 -0.22837618141869057 -0.5578800208183425 1.213102521543601
Ni 7.858095042464642 7.5795360571364565 12.011622487173852 1.2343038382115645 -1.0232841457934507 0.6674632657658247
Ni 0.29006728359205886 5.108003834739206 3.4866867224672795 2.1246377821968183 0.09430780684565047 1.9864607847720435
Ni -0.47549961732622154 1.7777946264778235 7.469075169337875 1.4623830572151266 0.4672596901266082 0.2355986673090588
Ni 4.046597093710072 7.079278504485686 6.020642075178741 1.6581311681861508 -0.26081167623957663 0.11664195156647654
Ni 0.788472132755532 1.773266409310657 5.513085993638613 1.0561191900456006 0.3266082630194117 1.2773759868106904
Ni 6.604478367860082 3.9707402524666002 9.955224697639384 0.4129739321998501 1.118931754496447 -1.2530235261082547
Ni 9.135199542700523 2.66934720527106 3.550065196159441 -1.4152861037273239 -0.40033233217643954 -0.04673288528016468
Ni 7.399474998887575 2.3921411628769658 5.5866216633992405 -0.35919468159586526 -0.6732176517510986 -0.6748027368500313
Ni 8.850915860059374 2.50734379353027 0.16259336848960132 0.415167083196427 -0.7408988571481562 1.6672364729215288
Ni 6.71354213499611 7.37857341110986 6.422603261636306 -0.4494105777603293 -1.272902267310053 -0.0026343522990535276
Ni 7.956546951076802 3.9749739514440328 2.030562101709361 -1.0418269417926445 -0.5845233344374836 -1.3818152256633882
Ni 2.9684948528003683 2.818253761262097 11.305672510443221 0.39901129937217084 -0.08163792468746586 -2.3718511509266698
P 3.564682502063697 5.498525750633618 8.035510959221972 -1.0541975475428553 -0.4633927509720342 -0.5602510921536803
P 6.586116999468827 2.69064455186623 0.25647472294481943 -0.1337899241006728 -0.08341789940602408 -1.7885166945909652
P 1.3772314810521535 7.548924572790935 4.835437374202772 -0.9068224285585802 0.8255269748121976 -0.28044924796484605
P 6.7559803653981545 2.690929866362535 7.946969587694375 -1.500653413550235 -0.560722375363144 0.581494832023805
P 7.603290789877223 5.346434716716077 11.697934844765093 0.4176975629277645 -0.5496648319974018 0.09839920330620473
P 0.04853935877626122 0.8359585890034926 2.0231531284988544 0.30316777260828437 -0.1839061240307736 -1.1746768705775512
P 1.4714865054605972 3.40369149660012 12.672379568059082 -2.1783859224525517 -2.187868150911374 0.9741894451493287
P 3.3070895303672296 4.346729536436304 2.3953035519392394 0.05021673006370706 1.5836838477098532 -0.705547731342372
Ni 5.896235751096236 8.920109227260104 9.676343583041174 -1.237677639779804 -0.20721754506320444 1.1318613180739217
Ni 4.493997834996944 5.681973768064444 0.6964563669584128 -0.6291898241069229 1.0159888976836178 0.2506877004316973
Ni 9.020595152120116 8.867546934085938 6.373193233461643 0.7561956354062267 -1.1475980120828881 0.9668952254807605
Ni 2.3197541140563027 3.5401454553814484 4.137757836387618 -0.2461738717217438 -0.43140359965994735 0.7392970598786751
Ni 9.051602395283092 6.146060805538458 5.929244797580063 -0.537304767770152 -0.46904403572054065 0.14514700098470484
Ni 4.704256211387032 8.438461542723177 12.284966659805054 0.27564796992146073 -0.1093778138048955 0.8959299500157926
Ni 9.060824496099153 -0.003441260973178117 4.02707053773068 -0.7338949150264974 -0.12608895591198932 -0.057095459461411355
Ni 6.152945168223499 6.173165682687453 2.623965633710357 -0.44522970690976227 -0.5861068768745196 -0.1905719660867234
Ni 1.8995871016264356 6.0487409512180905 1.5347517737235796 0.15533731125414538 -0.476674812792921 0.34956615736716573
Ni 5.499630193845122 6.103051946143802 8.752440021844299 0.22669699394405474 0.8404828247910816 0.12026180770725095
Ni 0.49285594239500813 6.5167947805600885 8.984779899509725 0.10699260140217058 0.32039879177459013 -1.7667592483092154
Ni 4.965852789725202 0.7049412519307929 1.3967193815191432 -0.7365410944000929 0.08048761313310655 -2.715303224976298
Ni 1.2032172493862572 4.342937614743474 7.481037209687808 0.62676064584014 1.5893004225656822 -0.9847008862036138
Ni 3.6512340350719 4.668030474049698 5.98772046378249 -1.4346225992724067 0.4133688536454236 1.5426158740249498
Ni 2.6571523114773687 0.8358306576648268 12.47971037018154 0.6063735975433556 -0.5471932305284576 1.0659791135588157
Ni 5.9258256254711155 8.674389020087306 3.0267892062422392 1.1352865417053866 0.011799306627773226 1.998629301813777
Ni 3.5575864544297837 8.757387927431836 4.430256735783672 -2.6305578650081016 -1.260489752578313 -0.9828689752011976
Ni 4.929304923117846 2.668528076555861 5.920933862413495 -0.19577767865737897 0.059503040461639456 0.48166121026391884
Ni 6.957844973380812 0.22007319506298803 7.570373780327687 0.39424935920715326 0.8268996867900081 -0.36595848268226006
Ni 1.3282770357022355 3.6300195217175926 1.7322565921288247 0.7078686661660648 -0.6939086044415468 -0.8303115406850345
Ni 5.308036907729453 3.6972985206850493 1.7463879430200193 0.7670246077009306 -0.8373383656248289 0.038792033166533194
Ni 5.5166386193022845 4.11166720625452 12.165375708124708 0.45276663871675576 -0.10912635991572174 0.7298647108211818
Ni 8.089227395552157 8.272703024063272 9.509915035499626 1.6329775517386584 -0.3920551797693119 -0.4753329540530458
Ni 2.325037034084664 1.129118313587763 9.240868067330517 2.345770394679218 -1.4709162914971183 1.4965854141284485
P 5.7163035445553625 7.650524144555881 1.0237286608686724 -0.38247010718403807 0.6775396761652203 -0.7123994641568828
P 2.973354402930986 1.4218878015706349 1.6294494957859678 0.3400003680556015 -0.6107509006754449 -1.098037170435625
P 7.65420562192756 6.221696758139629 8.274289740810467 0.43658925762594486 -0.3493345009723339 -0.5023822448613542
P 1.2699440267479618 2.7438603072738683 8.857443119439361 -2.286756120928539 1.7213599942388096 0.644926003895257
P 1.43518713857583 7.262800151463946 12.883597889673837 0.7993577726159976 -0.5585803893194766 0.23580564111354227
P 5.763288399511432 6.2138552113379495 4.644748811151193 -0.9277694631238924 -0.27402560382668933 1.9424483837468354
P 6.5607240092976635 2.7553557203669397 3.4779846303299706 -0.8009672831949625 0.3596610797093225 1.7394132521960946
P 7.210532376479515 9.109512034339623 5.098327991837087 -0.7211941796303772 0.3689957268466871 0.19793457709938167
