# total energy = -340892.15504297387 ev
CRYSTAL
PRIMVEC
9.06378901656158 0.00000000000000 0.00000000000000

0.00000000000000 9.06378901656158 0.00000000000000

0.00000000000000 0.00000000000000 13.26577140756906

PRIMCOORD
 96 1
Ni 6.343138668007285 1.9549324006553264 11.1295978551554 0.13116328511110312 -0.15748418239381912 0.9108508329916829
Ni 4.744648834733111 0.29509612409157726 6.000625331606941 -0.5026781788352181 -0.1727233679410767 -0.03635308470773739
Ni 2.753542852060336 1.6511232561695188 4.808019222113013 -0.41813645023739604 -0.034430670874043924 0.22122542930652225
Ni 3.5634921035414733 4.223988537712235 4.956251147041092 -1.166400489501372 1.0625934849160343 -0.5750701594443839
Ni 5.300331612564666 4.655615235094575 2.7103829014588103 -1.2087941239762343 -0.28183610101004364 0.8135944850406698
Ni 7.185309689488931 6.306774746420213 2.6068834945289074 1.1196094972897621 -1.8495757666858146 0.839193930776329
Ni 5.086553084510659 4.435056992846368 11.439910268270003 0.05152722134501449 0.48481363984997156 0.6479894733119292
Ni 5.498747018213367 7.904494157626863 12.152189941925126 0.11825917545492536 0.10607394624264312 0.9212620010226779
Ni 1.8943500347809525 6.336168614243461 0.5470649272221362 -0.8675827663316671 0.47017300711866117 -0.2225875997613715
Ni 2.5744786359899994 1.49499042634427 0.5888499010278591 0.578659676567855 0.15686686052479434 -0.9186019376920115
Ni 0.677348737113644 0.010352659829699256 4.714005070402669 0.27577575374857666 0.23072257016368006 -0.07336231494223495
Ni 8.75116988225626 2.0132760106393697 1.177388914092 0.26105104594389233 0.37997536578664237 0.20439370246116415
Ni 6.886304353188852 0.4528559040476536 4.61835853028808 -1.2375220880385462 1.232183192324136 -0.4221409434110988
Ni 1.0510551034596263 7.278603269971415 2.712240071830992 -0.9844756575666852 0.3960907832912662 0.5391888721667425
Ni 7.723444971759027 3.755843834329319 4.00867732293331 -0.8282441166330445 1.3409624533130842 -1.1116609318666468
Ni 7.551106087148712 3.9827920478434495 12.710519346153347 0.4163274220531153 -0.5562548265100936 -0.49418325399032953
Ni 8.118916214701978 9.229837644702632 6.55372855508065 -0.029954123159929062 -1.37452563398051 1.0840971633157652
Ni 6.798168068664255 0.8286288142924029 0.019225202910851946 -0.10528513179276061 -0.5372983400122487 0.653919722753435
Ni 1.8480068814722042 6.384569247661947 9.347062347360179 -0.49262927923964833 -0.22469076214730335 -0.8605955363805566
Ni 9.246243102846352 4.548336228139295 1.4865357239373853 -1.410441631150829 1.265855901986233 0.8174812216895856
Ni 6.341797227230892 2.1760435340343434 6.9073939775031095 0.4163706165862248 -0.836148973302418 0.5154416491484737
Ni 3.575048434554314 4.570442809582682 0.8142463938601083 -0.3035367259119289 -0.2864617727075131 -0.12633526759484048
Ni 6.004705849428103 5.684309971017983 4.847830102668072 0.08544470002806576 0.7998856200950094 -0.06869679114576556
Ni 5.400685884701271 3.184109086126203 9.211923972064374 0.5342716373707831 -1.2255116938412314 -1.0781607432266722
P 0.1925783255135879 5.4263182800772025 12.624743272292077 0.33449152242223035 0.9385094752492159 -0.22684457526551255
P 4.043999815160871 6.0904130384927475 12.57355008547355 0.30895326894180986 0.8058472369950831 1.3904353632322313
P 1.9821418953224226 8.510218114691275 1.3242513004976935 0.6110038972265155 0.945379720006488 -0.11217414560311004
P 6.332941905348895 7.773241428688083 5.917475943806473 0.051603840219220806 -0.5493799537671313 0.1340748023309433
P 4.631016111668026 1.3278269652699015 12.663200022766103 -0.01564490562610854 -0.8520347912947391 -0.6911778357739451
P 3.9133906152431983 5.8283698338557 8.480303985377724 0.6801981968339897 1.6719968704246493 -1.1511857294341465
P 4.665676040917519 1.2215540388969164 3.8662299081639726 1.2196061269900738 -1.8572633651380592 -0.7789542692589811
P 0.09548611104876441 5.6138662026793185 3.7546247547048277 -0.3447124288192902 -0.8157436701731886 -0.2266018631270872
Ni 1.5213751162096654 1.1999369020611323 2.712452164494286 -0.9861353046572953 0.31646268994497756 0.086312961565632
Ni 1.7821403265935276 6.449493168481536 4.9314707478339495 0.5355574460617422 -0.042677484263868436 -0.19736764885231817
Ni 6.01382402119196 5.721625590453171 9.31121868726341 -0.41346347024175883 -0.2812180078100705 0.7561660677198719
Ni 8.766777726965367 2.1466224748440057 10.031603201068874 -0.31686455336908653 1.03069252244238 0.5342775509080541
Ni 2.2723644200527415 5.25873788470747 7.0589296535325055 0.6451381199060631 -0.7485545739212011 0.25852827952203866
Ni 0.4501585204324211 -0.10993469714097555 8.904782072352354 0.7606783537679287 0.8588934660877853 0.7741709889377247
Ni 1.472294698613954 1.0633546651729007 11.308619471417298 0.06475297600666913 0.3653475885711385 0.33273340208054303
Ni 3.797446625975545 7.284911667136072 1.624950658967418 0.7551201429538608 -1.1090988275664253 -0.09788472556363141
Ni 5.360778021603594 7.783139086308492 7.993661901343039 0.9895746693561474 -0.033009365046485085 0.5153717151424866
Ni 5.453645604001685 3.0106281640981485 4.685284642104326 0.6631566679706707 -0.40947131836323025 -0.09614845959881506
Ni 0.9098593979552883 7.30390030515325 7.098765912696847 -0.7001556137925232 1.6938152518513216 -0.6046522439768748
Ni 4.882119322946251 4.455242051015463 6.954487612543516 -0.1813044247418684 0.2507409222671359 0.9450200226742239
Ni 8.246280578147026 7.1465076086528745 9.130591873964358 -0.32451255683264757 -0.7043411126287805 0.658686290904143
Ni 4.606045372891261 0.3297569597199723 10.317055453632873 -0.5132628963295999 -0.33224720647274397 0.022174993435142454
Ni 8.12698298693839 7.374788199154368 4.671806787817193 -0.12550634393564192 -0.8111910178054996 0.33744726261644464
Ni 7.110315899057367 6.142602335725638 7.267533664429469 0.49681143564179603 -0.5277927145146588 -1.7322365319419972
Ni 2.3050937622389123 5.186925484225323 2.875515167411628 0.47907570892492973 -0.2069162117727017 -0.911552744154714
Ni 2.2708960862299334 5.060694094408985 11.850658527622478 -0.126282302869718 -0.08130316705586643 -1.829759760401152
Ni 1.0716027131899084 3.504731559262065 4.021093807525067 0.04220208728934668 -0.38187643946409716 -0.9592086554697802
Ni 3.757964760962264 2.7085773946840987 2.5990958869946073 0.008562544858030414 0.5485104066779845 0.024452476615409502
Ni 1.2571203470493764 3.1395514992563016 8.253445503374987 -1.1272662425040716 1.0472573687795963 -0.9429610832626664
Ni 3.5204300418614687 2.33988058453482 7.012724269817007 1.2009270625233317 0.7709391122639884 -0.10647452411517147
Ni 4.07197973189549 6.766571700106795 6.024371552485797 0.20098082012487323 0.28142215340107657 -0.161630857572341
Ni 0.974058215652504 7.364963051846196 11.462131053455165 -0.21365095939337397 -0.2517709061935471 0.03921497963656473
P 0.2551501930799763 5.516783958382428 7.9589457766015625 -0.8839061860820391 -0.5421937204313371 1.52482923946549
P 8.615222110600106 1.6994241879086778 7.953904497143255 -0.6606549845947396 -0.15022981482425093 -1.0060011903432868
P 1.5577934205309152 3.4298012153537094 10.451650001586895 0.2551416224379929 -1.0292545044442725 0.5104441959338821
P 4.02314403660358 6.241089467322129 3.709242363033225 -0.14933867046854926 0.1950703681777092 0.5124429715314659
P 6.96824100601715 3.910716797479443 10.498411901948813 0.5863375048280869 1.3287476564144471 -0.782741247105239
P 6.355256953939965 7.822040868823874 10.072010478942085 -0.25420342689443964 -1.4925906911467584 1.4528260096543109
P 2.480333059338724 8.356478125169861 5.799729166900818 0.07885419129474161 0.6461220810858872 0.06558524209997736
P 6.989196486253768 4.11374567174425 1.5876214438486855 1.6504052602968027 -0.4726960306508311 0.9861005947646178
Ni 5.417907083857661 3.1091606146397877 0.5794371561205374 -0.8942016544707762 -0.9277252401495184 -0.9513104836686261
Ni 1.5223358778468112 0.8817009245767847 7.022289286380029 -0.36421167519448244 0.927126687333571 -0.8935007717490097
Ni 6.932982866691699 0.5035252038602676 9.093341513810184 -0.21626937085282755 1.435688835753392 -1.5620549565861679
Ni 2.812167439504299 1.7155577323815063 9.132807064003211 0.597008611388688 -1.7029416396326222 1.3123242207511012
Ni 6.670767450063088 2.003985626883949 2.384137253608936 -1.0181380828161368 0.05973289708425842 0.8048280517019493
Ni 3.709890423948847 6.84853554430218 10.611714703093218 1.0521288379392848 0.4774122051795778 -0.3264141447307346
Ni 8.359414792815477 7.005737901232932 0.7828820583018073 1.070368243765447 -0.282542640158765 -1.296539961333651
Ni 7.67339472873714 3.8497446886767928 8.263288778261218 0.6311279216699002 0.07737914941111189 -0.14651842741093477
Ni 3.0578142497866567 8.504127248463332 12.688365633007006 0.34511583490529596 -0.39334253112216777 -1.1608888156545234
Ni -0.10841832523631029 4.99392116062734 10.22317363324236 0.0952089785036812 -0.7321532497450424 0.16765418094828546
Ni 8.704627325588858 2.3776040744763436 5.7133421936589475 0.28837133102540013 -0.5278909306554198 0.9893874930460057
Ni 3.441665715193559 2.6823649168102675 11.431234409410793 0.13313300724296426 -0.6280197150582216 0.9614758542374022
Ni 1.1978159754281874 3.217391319443184 12.880321276214255 -0.7222336766384853 0.07723311075155086 -1.108406429485091
Ni 3.171147867813762 8.41976150017508 7.935717098076301 -0.8831361406852339 0.10681185284993219 0.7318262054229268
Ni 5.623600712097193 7.83739492744015 3.2283313128020064 -0.7484285898662981 1.0362119095987123 0.811067604853758
Ni 3.043819759524833 8.63767311602662 3.6083959271523085 0.859664539925855 -0.9131023480300211 0.1491332393259625
Ni 3.411909295809123 4.0930439776004635 9.545027282694106 -1.3228297482681153 1.0098334196051835 -0.13785252420582067
Ni 7.402251479914295 6.293922293576128 11.611025541361311 -0.11578346022092319 0.056496649535147866 -0.1374779144752213
Ni 0.35478389398872173 8.956872574284823 -0.034043591595474 -0.12095446289890137 0.5404692815410628 0.11525304163874989
Ni 4.722696337703229 0.4973065382070049 1.4255527385878999 0.26327813550219814 -0.0006348053705214874 0.6333406130505027
Ni 5.93253089738477 5.680802284663498 0.5492257345268117 -0.4836147344458639 1.544799769050146 -1.4477069432601903
Ni 8.08864315934285 -0.17392595406941166 11.07758258267188 0.09382263967911583 0.04183107710317312 0.7635960416353559
Ni 0.041389792604028766 4.782861769282237 5.928446754047997 -0.6248631717071109 0.4288116705630551 0.04884221831368363
Ni 8.102383863511843 8.904375108224922 2.565865317275095 0.14420366323482905 -0.7474448857967901 -1.0375439981465746
P 8.467835837188497 1.7167360249553645 3.583523077297064 1.080597634802939 -0.3151789381365475 0.2776886545005734
P 1.8188396083746974 3.2257028139833994 1.731766506303281 0.678362943397464 -0.42211446104853756 0.41248490837857343
P 4.935831336736128 1.14382298417839 8.25747798311429 -0.6529558161782689 -0.45537656553577704 -0.0994333009976739
P 8.431925105052908 1.829299220914947 12.234158318015027 0.4523902292139434 -0.9970866614624765 0.25424867831007825
P 6.4561187982622315 7.939688850429106 1.1391043756095391 -0.6826536003530179 0.2785851981729138 0.07449077211972333
P 1.8647930187551698 3.2830856623302966 6.034400635047137 -0.42669565266131676 0.07264446293960393 -0.07984046646741089
P 6.802663708022975 4.104980987752551 6.108529740005269 1.3101516385798146 0.33903029083284836 -0.19307544923486747
P 2.283830113175285 8.544905235307857 10.03684297750693 0.4669884387430925 0.1333021858309769 0.6442965978413742
