# total energy = -381162.74809798814 ev
CRYSTAL
PRIMVEC
9.30400995716552 0.00000000000000 0.00000000000000

0.00000000000000 9.30400995716552 0.00000000000000

0.00000000000000 0.00000000000000 13.61735903605552

PRIMCOORD
 96 1
Ni 0.10539861740926323 5.8456071902623155 5.160080284229774 -0.3259760287520515 -0.40254888021178414 -1.5187362391938746
Ni 2.2214998792029665 6.9167592629558055 4.732209329391562 0.15210851990420254 0.6250040681603495 0.7566856876687679
Ni 0.08102211099503784 8.898271506109714 7.890007098360893 1.0159518737980955 -0.41981280949855443 2.944535326637381
Ni 7.293273942944689 8.787665434257686 2.8077771880892834 -0.11523170148251123 1.874040584596398 1.581178050568864
Ni 1.2013616937877967 6.86302860473361 2.623752242281037 0.9578462279046149 1.9366839704592327 -0.472689860003244
Ni 4.842476735276613 8.245185822430273 12.97214117732866 -0.34970525404819125 0.34308543473882847 -0.47427160266806706
Ni 4.254686594351001 8.182951298993343 4.9450348384079135 0.11285677349243144 -1.4218259617283706 1.030465236922922
Ni 0.3409380062382285 4.979506195760854 2.211595760470927 -0.15153310701670678 -1.8861301687710805 0.09982410867818936
Ni 2.9262600348765337 0.05483318341688452 2.025990993750797 -1.3709888244718453 0.2651959213502013 -1.8539839230558395
Ni 7.185942882641442 4.738969623116973 11.223632049855427 -0.2923796808538448 -0.2240076200373497 -1.2933016569020115
Ni 1.178976245531069 3.706103551909948 4.3093634703985115 -0.32011648464748094 -0.5737694383550892 1.2388217806865762
Ni 5.695040395109106 0.16569883715019312 6.479207485627517 -0.64098090320458 -0.16945755270561136 0.03890439037468139
Ni 7.765480366624529 1.7507820971362085 10.777391257511779 0.6212803394518591 0.09850693252866262 0.06787352391352182
Ni 0.24671722654119824 2.6216188327692884 12.802564428776389 -0.09472946776410138 1.945743252448023 0.32789150060720956
Ni 2.826018630255593 0.1768757444614179 9.54499231649222 -2.8313635930076915 1.8663933524637855 -2.383597492829321
Ni 4.283743017836354 1.8655656695149485 5.763437894824197 -0.6473942629300915 -0.62262579773616 -0.10471151867747773
Ni 2.5835933435651133 5.064470415827537 3.2671310522421733 0.19220101704971415 0.8043639675813373 -1.3993696896073835
Ni 4.259357207412047 4.155980351393551 7.587701202784172 0.23773833935988084 -0.1411849310131633 -0.21812930687970175
Ni 9.174442437366757 5.8636104497705315 11.671724340205348 2.593711899824346 -0.8006109282968082 -1.479917209444148
Ni 8.64961253266445 6.776947903457116 9.50445381416496 -0.6210132018334014 -0.13706036732182847 0.7012285351417278
Ni 3.832051936386806 3.1350420211113494 12.06311427151296 0.045578974181379565 1.149810960573807 -2.3723036650830562
Ni 4.511133024234701 3.6923522250090985 0.7527372140611988 4.303056871880151 0.5732094520865612 -1.2868157920673515
Ni 1.1359638069230675 1.7396731090985806 1.1727900092277033 0.21806991439667608 0.22803962401487823 -0.4051953166956957
Ni 8.947303639240618 1.8641607639926019 8.328118046695096 -0.31453976189065186 1.7499195510440573 1.7757503960642318
P 7.99863885927357 7.195358540844189 4.268783100025884 -0.12406035551773474 0.08133916250012443 -0.7298711385790849
Ni 1.4136512918234383 1.436985749108506 3.426344994365376 2.971281227272657 0.6126895124590545 -0.3373541886820061
P 5.610597199607002 1.7930688229578322 13.112767568110513 -0.41330997538303016 -0.6200019869600677 0.06618148092307957
Ni 3.564356958314252 7.087813488309062 2.515439608914165 1.0766409641480361 0.29950729303756163 0.16123927856087716
P 3.5831510586794177 2.5396970239993437 2.0849402712278544 -1.7400318596167001 -2.4369784795536225 1.3594569125728457
P 3.9511246574132404 1.748567742736748 10.296970323330747 0.4751470632944849 1.944719182058883 0.007280849932129397
P 2.111051975522329 8.638056952142898 -0.008903007247241333 -0.2289870755298121 0.173021873018102 -0.14819992887841574
Ni 7.563927596223245 8.560042827607296 10.990448436379166 2.950456320107506 1.9455303651062683 -1.0362083100542863
Ni 6.5298520037055905 4.981915934372032 2.0318599633103744 0.06210473975054466 -0.3284466017797311 -1.2201794829950405
Ni 1.5032861249511664 2.344824532836767 10.608521613725719 0.15399005319763157 -0.40030662114482674 0.18216600141121533
Ni 9.25703413486259 8.251149692892684 5.7967602069320385 -0.13249665921054601 -0.6770516807852083 0.007697111533941582
Ni 0.4308938277137775 0.528773874575966 12.346110624565984 0.9753801230233201 -0.6745206868332384 -0.7757421900795867
Ni 6.979468290906904 6.863009996713446 12.154310317532408 -2.375649441626838 -1.4472534006625397 1.3811768207484407
Ni 1.7221071380642075 5.154756529660988 6.659134014994745 1.9496775545054228 -0.7321331951403842 -0.24165284392293868
Ni 8.262854137575545 6.8851256286778035 1.760071220801843 -0.2590026480552959 -1.8717512743415892 0.5030867271275464
Ni 7.293273942944689 3.057418664999181 12.77354615173237 -1.0694791562922743 0.38199162488572275 0.7926428224896671
Ni 4.373536019135472 5.135301844580017 5.460410938466137 -0.7914542014982048 2.0542893143802425 -0.13375701398020834
Ni 1.057009977369206 7.894731674680414 10.697783356049168 0.23301805106607612 0.11219085777365839 -0.3387227868947586
Ni 7.291599221129971 5.031683084299394 6.301582768354517 -0.5595275837240945 1.6000124096665478 -0.9177879264311485
Ni 5.9918197086972595 6.638355369279139 3.4501623297736876 -0.46933097083334013 0.6919782201880534 0.5192196281336671
Ni 7.85197044434462 0.8731134269000881 6.461927147702654 0.23523537043236906 -0.21219288679060874 0.1514562310321843
Ni 0.8908329141008103 1.2308740137671565 6.573276609960215 1.6188899632973408 -0.6065296635052457 -2.906826756343013
Ni 3.052254939403801 0.11005062245014595 7.36899276819312 0.6685698685664421 1.0036391178690134 -2.6152446316897993
Ni 7.325475121837679 8.063590153654374 7.656823484884631 -0.3776333479170271 -0.7408556626150467 0.7711288596772914
Ni -0.03812969411709105 8.785841848281661 1.3638599514698626 1.784097739587663 1.3162289551221462 -1.4795436281548133
Ni 6.411774811757906 7.333150930155135 5.747179137206311 0.9451706893194756 -0.36432994593990153 -1.1301669610906344
Ni 0.35789735581527055 8.716610709263245 3.662388660540773 0.2611551756219244 -0.34964457601358495 -0.08173202706316891
Ni 5.108348127373142 8.84602018549052 8.537076809121466 -1.4249069146465396 -1.6997753260894983 -0.12513893329389414
Ni 2.4433912156429898 4.129984947225099 0.6346739781286365 -2.9773906826045042 -0.01951107344973414 -0.14013849202651996
Ni 2.0458680808894805 7.480675314011608 7.325608169181848 -0.21304854992268468 -1.488225215089211 0.44545596398795545
Ni 4.544850756771019 1.9168772851158846 8.113767610426343 0.20526710620505295 -0.4940644690242781 1.0899410236910518
Ni 8.931579862202435 7.832618103374548 12.77572515089352 0.3337759844124445 -0.7006505511510708 1.91971571803601
P 0.41117956075152473 0.5261557261389573 10.027196829405927 -0.7095355123455264 0.6002736552932049 -0.12830216151322418
Ni 9.047703212032948 3.5868912707322878 6.436217376643711 0.6382694178106878 -0.7933614458232466 0.11653062279959286
P 2.8021910604361917 3.3480387239132052 6.20011974720984 -1.0033133590984784 0.046108364322288334 -0.5720465421267116
Ni 0.6524074213444815 4.208659656476507 8.659932540647146 -1.2059509981004843 1.3852869862620723 1.0389102823664818
P 2.4497458545288358 0.014047194421449435 4.853975561336667 -0.790952836381754 -0.1711845626990471 0.223976252578782
P 1.590715907689516 4.130394323668697 12.124570049306044 0.4629052698126544 0.9579349309636793 -0.2242071376426655
P 7.700035959709391 3.8733338291196 8.8062371687819 -0.15989510582815689 -0.2921403111495291 0.14464615008888637
Ni 4.648739333344012 6.915903294028283 7.005654427282034 -1.2337587643413719 -0.14813282308590617 1.640631982960123
Ni 4.589519309173575 5.358635302582714 11.716117493909485 0.6110182954042187 0.4459609286488319 -0.5106354860090818
Ni 8.94267954622998 1.4742576134960583 4.588777779570058 -2.364362555859109 1.2602005034726684 -0.5108715132792879
Ni 3.6539359673814893 7.633484375594524 10.129082252608315 0.9631095331860832 -3.1141918827276753 0.4538827545990699
Ni 4.636439432015918 0.27875372445574115 3.3765741228339805 0.6805499237464537 1.2153134131519907 1.5477843055997667
Ni 3.1137451420341886 0.10456497810593707 11.65260552988833 -0.20397898352124869 -0.1668522538722804 2.8471632790441093
Ni 3.441683585386175 1.6317931122005103 -0.10413606324116767 -0.677435032266556 -2.2412398816642947 2.4625020777460236
Ni 2.489408849507402 6.786484513790926 12.197626997270083 2.2861531972372173 0.6914398311860802 -1.9250782678995038
Ni 6.051970133875872 2.6066672885678916 2.611577945089047 -0.17880068448340822 0.429299408832751 0.4671496469113052
Ni 6.215469503042737 7.763396268366213 1.1990031272320691 -1.1425020856172194 -2.0282540666587456 -1.2269800508566417
Ni 7.4828152363304135 0.7031933603757979 0.041426104889060546 0.4866676623395748 -0.08085810909864784 -0.3211706369436082
Ni 6.924593239444651 0.8240050008865138 8.674012299103882 -0.3303990975204116 1.102120082255747 0.23762392526920365
Ni 1.9146629307164247 2.46362743757083 8.088970562756423 2.568736975046563 -0.19378584503833077 0.3221581976678581
Ni 7.971433933794489 4.098621129239468 4.108916016394941 -0.38784782655618366 -0.3988022686851584 -0.6789380991746437
Ni 3.828069820071811 3.4164976300948355 4.039725815020884 0.07026953494952415 -1.6877273937860289 -0.5975883951515579
Ni 5.485486176037503 0.5759545097005986 1.4038541692073392 -0.37667509776881575 0.8260867039704095 -1.8058621278479479
Ni 2.9460217522902035 4.129128978297576 9.852404252801817 -0.243585027948645 0.5167626819527423 0.42214222896267944
Ni 1.4001325651746332 6.251308549877697 0.2397662006091113 -1.9342285669402042 -0.3838762435029453 2.6321192959579505
Ni 6.342943745173004 1.433059456854001 4.693208779930818 0.8354838289145934 0.08657341431587026 -1.4801115848431414
Ni 6.562397430971606 2.905232972091744 6.488780381600645 -0.42424744823114036 -0.9799672281733703 1.908160409098243
Ni 5.574237128207464 0.16903153356148148 10.659491772156656 -1.493725833192466 1.8391689695301938 1.7673917396868914
Ni 8.28580713044726 5.249936552797449 13.546167896140318 -0.6073223346098702 -0.4030412464671703 1.6265073706332829
Ni 4.1672475076025695 6.086385667168323 0.3473382347734749 -0.022807227702502656 0.3853523138278396 0.8795252834055239
Ni 4.739723247933596 5.522302143931048 9.24878799072712 -0.6262379405674505 1.4885486598669009 1.593227011313598
Ni 8.273069940645323 3.3318590503810155 1.568501653218293 -0.4769764031937399 -0.05798634670679691 -0.8564851137566089
P 1.6086354311069964 6.181333090052739 9.337395661141823 0.2842413680174266 0.23542923161073 -0.6732968417284663
Ni 6.686987429976527 5.859321301122837 8.338480853124167 1.190096547566731 0.11310334228559876 0.14660533069778622
P 6.044257109518089 5.050812129027505 13.433865703250385 0.6793361059440106 0.5228729086155383 -0.5095479093718579
Ni 5.784144899662174 3.3157165928891525 9.892480345828012 -0.3837086075768295 -0.6593938584941289 -0.30528559028223556
P 6.054044928124107 7.425558358287229 10.066101547562829 -0.8858049457666487 -1.8019252546873872 -0.7100574462872674
P 8.473236413544424 1.3860462939108402 2.1671346874931947 -0.14920291622163334 -1.259266164583857 1.026352243195813
P 5.863777921952003 3.896324038031642 4.749163096562555 1.3501343496203393 -0.6382856157606039 -1.086776252809825
Ni 9.245004049826866 6.3239821726263665 7.3846663035768625 -1.2117130973952421 0.3385592647337008 0.318537055975503
