# total energy = -340863.78026605153 ev
CRYSTAL
PRIMVEC
9.34501370545159 0.00000000000000 0.00000000000000
0.00000000000000 9.34501370545159 0.00000000000000
0.00000000000000 0.00000000000000 13.67737216638961
PRIMCOORD
 96 1
Ni 1.6183975434441882 5.993891919906124 7.01517858575021 0.15889314692620377 0.7470576776607004 -0.9319601041664723
Ni 4.032597781174884 1.5094907513728038 6.844376028567653 -0.03498217250213976 2.4078707635543886 0.25388203899927886
Ni 8.337434507486508 3.0346250560258117 3.9030020628149424 1.073687280836351 -2.2659731227449167 -2.813087420406323
Ni 9.02524622106451 0.40262805517737976 8.495726894551854 0.6171508906645178 0.7284395483388809 0.3255723655557296
Ni 6.894564360256221 7.861651814442883 1.0688920356887783 -0.7825427579411877 0.29633763706032834 -0.8229892959920084
Ni 3.512201991739566 4.164969903166574 4.24568932979048 -0.5069891475057462 -1.5489708697087001 0.1204484697967603
Ni 4.4309663790134834 2.450879417315403 0.2978891393084869 -2.1622928735454305 -0.43255082589051314 0.8386606839806783
Ni 6.161756404716342 0.38443237859919266 2.649717016218756 0.09623767687851167 -0.5692962330750841 0.05279143276941876
Ni 7.297306424603266 3.7164185806477494 10.273443842089762 -1.8327298987730694 1.184849954455811 -0.32220370619381283
Ni 8.792116159128279 8.980633124672817 0.18563029074868606 0.48550912325509926 1.4059856522620042 1.4156679125467748
Ni 3.0963488728810966 1.6581699226320905 11.690884337476506 3.1124432754676845 1.6312400002222616 -0.20898286449374334
Ni 0.13648953511908463 2.6778884951425925 6.052661777865429 0.5106259729273851 2.450961938316908 0.8824087756009061
Ni 3.3083592033876608 4.2202550054399826 6.8559741253275455 0.6376356408814309 -0.35147674412631724 -0.5477989824332565
Ni 0.6343488890164446 7.659790169039248 8.51394593366481 0.31263585999971966 -0.233251764343437 -0.399591340245357
Ni 8.0052472981368 1.6375454769394917 10.147297368362869 1.683885137221803 -1.7010953304525025 1.932784892515142
Ni 1.8413415402218625 8.376431250520135 13.522900488320639 -1.2916301827368593 -0.7918853754983524 -0.778436449082298
Ni 6.079931462947247 1.8887114157161005 8.98960340352208 -1.9686499818428678 -0.19089695352630995 0.7077354830223103
Ni 3.0259341930923647 7.676938269558468 1.7122971776824307 -1.525378941321373 -1.400032520002363 2.191844619060619
Ni 7.482197524751913 4.417023618264341 5.2049783698718075 0.18449876330944998 2.5396693682566456 3.7965914580883586
Ni 3.858070301449023 4.30539742714604 11.14357116998366 0.12687597058965894 -0.7218199861398343 -0.02320754846471487
Ni 4.4232754325680785 8.184213659468451 3.900034086398101 0.20466135430025398 0.06848081848021755 -0.6488291956044052
Ni 4.737800565633686 5.841334567875461 3.484406182374788 1.7011971461376894 1.1317646445950573 -0.2836281599134599
Ni 1.297676666158285 5.4261355999904755 13.64973008256413 0.5812053258078441 0.006153164085589403 0.7291581716724603
Ni 8.830486786230141 3.0150285618629753 11.901201351463135 -1.6427271749262549 1.6455463895426046 -0.1977800537993884
P 4.746351253358529 3.7471076063181137 2.0411566275798805 0.7631849222398662 -0.7164834044182693 0.41504392735500134
P 2.371549594259458 2.654320370069311 5.5229228435259605 -0.4973331124732209 -0.8745450565821132 -0.44142910221674947
P 2.012663680177645 3.4948856809700217 13.004828803843978 1.266157749497368 -0.1698776709621655 0.2163976689005757
P 6.073726373713044 5.433919996574951 9.472373363463918 0.030071622574399826 1.0008191319217152 0.3145032522257616
P 9.206333900553036 4.984004302025713 6.507803204191421 0.25727563806186016 -2.195310466122032 0.9402154021967292
P 5.7857878052126575 6.090210978244872 13.002996246616828 0.5619217949878839 -0.3886595238242016 -0.9276697043212345
P 1.474166598804601 1.8215581457808878 9.295361044540204 -0.10442509778531048 -1.4653562809108376 1.1197665916929167
P 5.205471786606092 2.134952532163756 11.32846133563092 0.32516381726340127 0.3339598182884765 0.285845736390069
Ni 1.4941088584819937 9.581816559333559 11.006756428380616 -1.2987140861668343 -1.779599337496677 -2.999552049192892
Ni 4.455805425978109 6.42992092378966 6.294340658523719 -0.3205707985760802 1.250694363754446 0.8678149369471312
Ni 5.834821093182329 3.7061203753223104 12.841766721680532 1.7540132614974566 1.5283789044899614 -1.196832580738984
Ni 6.528267850146211 1.6688793085694342 6.680439253102518 1.036787579596524 -0.19745558058043414 -1.132007870954115
Ni 2.0558376444276707 6.043317698459886 11.22608670828048 0.9396083647403496 0.9038600034961466 0.26769631917455183
Ni 6.015320036794718 0.8612906827435046 13.141821100711256 -0.09634617743191795 -0.4933730993842083 0.07212381454944353
Ni 6.112741806774483 3.4976798401281943 3.749980263593105 -2.646547812678455 -0.5638115558114289 -1.0378237341705223
Ni 8.252385535919519 8.519671623685586 4.046259257005427 -0.8740681169456946 1.3000034944022192 -0.9007363702655004
Ni 8.008574123087667 5.910085835188759 3.2769749086826208 2.7169425603519333 -3.431654731802393 -0.22518827060901217
Ni 1.4916791548661914 3.2619425193119302 2.229494168857405 1.0356028152598036 -0.2915057628893238 -0.3040802571202247
Ni 9.121303619013862 7.11651778555976 10.565852130741833 0.5695458871920449 -0.04120809880719355 0.07631728380550082
Ni 1.7573298651985447 1.1624916949806081 7.430041133134545 -0.35207889648669044 0.037742251745780164 -1.9004902941474946
Ni 8.180653209169911 5.479906810010962 0.11113090538123421 -0.5475935512906698 -0.8008348713821563 0.4134508718362686
Ni 7.638315327081117 5.633688358863434 11.429386551324392 -1.023093112828567 -0.01584570878300497 0.6608038514677781
Ni 3.405771628353519 8.706328931462645 11.875802538165484 0.8754112612371504 -1.4682408015474842 -0.10654060146641652
Ni 6.631249903400601 6.3771496302572155 7.549732071254528 -0.4259636595912987 0.07789876936000778 -0.7008122735399156
Ni 7.248609557134243 8.790396676569404 7.422942660570839 -0.034014923492863995 -0.7837414062349792 -0.6313914597439321
Ni 4.940914442900851 0.9826469023417037 4.737882801756067 1.1657340595619665 0.5564078071481902 -0.05071295297383524
Ni 8.745092049148598 6.585674270576494 5.337950441756322 0.6781878512721805 1.3682840239461724 0.5876816775608074
Ni 2.7859729259901673 6.699047979295392 4.674706769739644 -0.6569793355153654 -0.9997788635826589 -0.18236988989190528
Ni 1.4259182920031117 3.1481669749950343 10.886053425254511 1.0252893491489377 1.723378310220419 -0.4734046266820815
Ni 8.6073185091187 1.3048816718805298 1.958134589529307 0.1458964775562197 -0.2679110062885192 1.0030487925831821
Ni 1.446449287556641 3.86593880315866 8.463639854801013 -0.8284258936265475 0.7786177118551687 -0.14291245522723128
Ni 8.504261695753055 8.94315961890602 11.691403920249732 0.5952764591889297 1.951406364271071 -1.6111779393650636
P 4.626557520085568 8.913507889779325 6.497258290498839 1.6946865987126813 -2.059401181685511 -0.5971741904322748
P 4.183173990257277 3.15658683252518 8.576492111743905 -0.2880340022906394 0.2576163092307305 0.1439766348256875
P 1.7689363724709541 5.885022507890367 2.691200467453017 0.10515529108311567 0.04247462422444298 0.28557988432319203
P 1.0655465207100967 0.11796117604581075 2.2466039548196064 -0.47068285687554423 -0.7962040574783643 0.37469072034893536
P 2.663001887988851 7.641399181670406 9.58740020514295 0.005609632877293565 0.279839382294989 2.1331946706278937
P 6.742231288559324 7.302754567711007 3.085464735183693 -4.631917421268849 2.9881895729922214 -0.30946928934627993
P 7.206183193996773 8.974456070480334 9.79777235471163 1.551236011593793 -0.8445590517429842 -1.0593698357724142
P 4.35659875834212 8.87998732489516 0.8684134523433681 1.9542461477127118 2.140943461335377 -1.4631811276363897
Ni 2.852743050355196 8.344789033431262 7.639236745452341 0.24430365128222445 -0.6797156007706164 -0.6714371628119081
Ni 0.06776069583916325 2.995749798172975 0.4662059227918003 0.35408384273186116 1.9759912526992873 0.6964534823505877
Ni 2.5508243410500397 0.9562472380546211 1.02552556415227 0.5534507814023952 0.6308746680085134 -1.7625403251318612
Ni 1.0217744755700278 4.333619369144974 4.137623588970719 -0.39846905371545566 1.3166223339058227 1.576175712258266
Ni 6.031963506562964 3.8969362142879533 7.44087387325546 -0.007573955692515988 0.3239566843291776 1.0314540831987526
Ni 8.998454066193336 0.5266027476723012 5.960119974147863 -1.71346285087892 0.251063081493245 0.011617015413638057
Ni 4.830923629216262 6.654378812820257 11.089463539462526 -0.16144779502725742 -0.37555692500397253 -1.7240431974979276
Ni 3.200087872261948 1.019681192454875 3.1477240213358453 -0.001845023628538758 -0.11259580652156093 1.0794187840034895
Ni 1.0164851976987042 7.901797994187063 3.7974407857222396 1.2089262786787245 0.13582418092188223 -0.12707420264339403
Ni 3.812204973193802 1.029129001514783 9.138262950252162 -1.6361225251255438 -0.2418662454853254 0.9003278219731721
Ni 3.452038792206739 5.252280961265915 1.3269499222217493 -0.8718762515006984 -0.5555040643869981 0.8852161631427141
Ni 1.168715474242625 1.511798969807816 12.739870559042128 -1.7055518235619593 -1.100530369171124 1.8235358909786272
Ni 3.6570403622831043 6.538930511014021 13.164183718990543 -0.04983800656804965 0.7773794685726935 -0.17586936976922615
Ni 0.040263926919406806 7.163112024899723 1.6218897751412087 0.8596748243385001 -0.24894346404708093 0.5006110118935443
Ni 6.589561796361778 7.9582605682127445 12.154424127800658 -0.5767876563561228 -0.9883510813616915 0.7513491059472028
Ni 6.127600378886505 5.537490785705477 1.302919218960074 -0.5806635943717613 -1.054560587309229 1.4193664444442846
Ni 6.394512666096295 7.679311903090828 5.273146508317313 -0.6329413207295551 -0.042601122499978245 0.7503391766254497
Ni 5.363355796563708 9.282757424283925 10.692723777547904 -0.7427675349257788 1.5292726199488242 1.3198467543803913
Ni 5.388232223583961 8.267272143073262 8.644550913526698 -1.3205810614432547 -0.8684394579050077 -0.6292566727891162
Ni 0.8013564360513968 1.5045659290438507 4.036603054135394 1.2673664250934884 -0.2919451644195875 -0.4905502852234325
Ni 6.681227037774873 2.4955018587210027 1.3504816017407946 -0.2493784947019705 1.231355039995886 -0.1918194653405793
Ni 2.610296009553754 9.333033599103219 5.43541519880006 -0.32012934016328737 -0.22448687366661338 -1.0435621793161962
Ni 8.394981103125394 5.264840659956832 8.560722400775957 0.9048401080212287 -0.6516347833740003 0.6804846177261571
Ni 3.1460176217964397 5.678488355533266 8.845977081282271 1.1043957656638013 -0.29809215785758986 0.5543709792238194
P 8.074363020992468 1.6597772650240825 13.28317658457168 -1.5997617271083222 -1.8621734008451671 0.2550182094862511
P 7.929823690893952 2.8419589043065967 8.378334829852976 0.5452001113578289 -0.018820989361245006 -1.7934820090160402
P -0.022314024206972 7.076147325481815 12.990877632582318 0.5037654983621259 0.5376292409891064 -1.3498417580805848
P 8.632279041264116 4.266082953639577 1.984011867538992 -0.28073232642290363 -0.5694119327173419 0.5151598562419967
P 0.46064844302134783 5.044550647128725 10.30501129906738 -1.0358884648210225 -0.9284235517681235 -0.782956962660471
P 0.6849194317738067 8.204623169841192 6.327563117464253 2.057515277516708 -1.9294553139212771 0.4771265556183589
P 5.398025798158424 4.725418422207 5.585975521358812 -0.8746273318832744 -0.2781501675180242 -1.3300375788704644
P 7.283700084354773 1.1112342937010868 4.554182256379162 -0.5385129291456402 0.6990258710634543 -0.20827581112438967
