# total energy = -340898.26318897697 ev
CRYSTAL
PRIMVEC
8.99815995455146 0.00000000000000 0.00000000000000

0.00000000000000 8.99815995455146 0.00000000000000

0.00000000000000 0.00000000000000 13.16971664143921

PRIMCOORD
 96 1
Ni 6.329125740792942 2.021139691944167 11.411427747779186 0.277571926417051 -0.23066240634970595 0.09829893028291457
Ni 4.578245782740435 0.24212338756551305 6.009881823802916 -0.30335212070494855 0.17884002236177585 -0.09280808237167243
Ni 2.8263580307742986 1.7234445683859287 4.730904965071461 -0.5490400539292093 -0.800336591589499 0.443009816440308
Ni 3.342159553193864 4.257263421249398 4.734104710747235 -0.11496842051879556 0.6918445228236666 0.07721382747784121
Ni 5.207199166444756 4.39568211565444 2.7652056359848496 0.2935492756819138 0.9580845691676663 -0.11467274365524767
Ni 7.272384851310504 6.200236097767667 2.452306321570718 0.52114075641578 -0.7662373359129449 0.4680443908114326
Ni 4.8507640547778195 4.60244183482749 11.245002280551178 0.5453147825588223 -0.1922573242089463 0.22667822489097736
Ni 5.644617717599788 7.8765123117317515 12.435781874968137 -0.10428445844238814 0.050514206699467844 0.2415821385860033
Ni 1.981736749553237 6.4620645557926215 0.5109164213864444 -0.035075503546894427 0.01577268945322445 -0.7987054837439793
Ni 2.6817036115286745 1.500695118993951 0.32281348703946255 -0.033069785970775305 0.33556932886744145 0.6436473942931497
Ni 0.5978044534292163 8.894681103775802 4.598232495606097 0.13940367074302445 0.48232095533510483 0.2867157976998482
Ni 8.663950286514275 2.367064952797538 1.2963073147819075 -0.16663705253768074 -0.18100951920926892 0.4031428050420412
Ni 6.728527066188285 0.8911417681270007 4.887716798216237 0.3608692410848108 -0.4098767813317651 0.08645514357045112
Ni 0.6717855248495743 7.506076063193317 2.4097423255917696 0.6283909823547114 -1.2499955379152086 0.5651624134123686
Ni 7.631627388879695 3.8008227599746065 3.6723092400349535 -0.21712966197059377 0.7542608802773592 0.5813773326093342
Ni 7.769911110885589 3.868938830744038 12.533737643740949 0.06980699349080881 -1.0602398970821933 0.10437624682524604
Ni 7.912046045347139 8.690872781064094 6.950673638864074 0.054036875140745656 1.0235589967213923 0.07674974335722912
Ni 6.848346563990893 0.8880931915382712 0.48175518464277567 -0.2754582225081579 -0.4802972400368567 -0.8718181445692534
Ni 1.7598871161555718 6.451455725219682 9.116143816295914 0.4460514314801092 0.40626001051478416 -0.07466277892121335
Ni 0.1930492228677159 4.816517058034298 1.465736367798929 -0.37508872711830243 0.35788727563835143 -0.314778103153703
Ni 6.279473894226796 2.036652519686109 7.120167478632686 -0.6111383659218507 -0.433492363868176 0.13474843135920017
Ni 3.4197956771831177 4.171223015873268 0.2298903891228391 -1.068934596642714 0.19114532209169016 0.8955221730544126
Ni 6.059369903858097 5.818669125379591 4.720539984632979 -0.3918515483989381 -0.5811677877016893 -0.20703191141495958
Ni 5.222433051228461 2.8736703557552326 9.31299116247562 0.14706787215650158 -0.4631199569266218 -0.19632455229978446
P 0.34357314184423865 5.638435981718863 12.329291351489275 -0.05565101370540093 -1.1943859189707042 0.5884974885938832
P 4.054651853810126 6.091736285173505 12.642124979335822 -0.6072344028817541 0.9170628753396658 -0.11965374180960683
P 2.3429948749496874 8.494811874063416 1.3225027580083233 1.3338795783243738 0.004214038081347581 0.7210000613417001
P 6.343846730459889 7.835003799914131 5.782664787999178 -0.5924009374133474 -0.6914470302749317 0.10154186270024447
P 4.6142294243529784 1.113126373923813 12.455719997770107 0.7479130836824603 -0.18981066244066666 0.9808429459101041
P 3.9801920802807946 6.0537280575737595 8.280683561712944 -0.8449992246041962 0.0008047552894824851 -0.5748323324019649
P 4.722891203826117 0.9957993664254493 3.8808649919326514 0.12268970042245322 1.1370413196129643 -0.7903414280500002
P 0.3326286799054197 5.651249361477868 3.592250811389011 -0.5738517136562504 -0.7272954074321087 -1.0036409176412264
Ni 1.5070478199137949 1.1296739900592139 2.641607810822124 -0.34426634242080706 0.5543799780848839 -0.4422215162110577
Ni 1.9814937992347728 6.408786450769399 4.765633363371939 -0.06037618709521215 0.4261315526277306 -0.4257052637235894
Ni 5.897825938399233 5.60173248731087 9.204512045649327 0.37982778446518456 -0.1124227712788064 0.031150714571191514
Ni 8.545201569744897 2.297590159876695 10.152929801262282 0.10125621313902562 0.1632794489193575 0.09446875790354699
Ni 2.359236553647022 5.117487511811832 6.982820465076871 -0.219183459175829 0.12655432558418203 0.41902219527645895
Ni 0.5506109041595316 0.019915627402111263 9.066124844804088 -0.44775787264825473 -0.1888704100145844 0.2980106538873771
Ni 1.5393782085894312 1.0434536214842218 11.344104414900743 -0.7643334340220126 0.08687191939289556 0.0079508794159605
Ni 4.14960943568989 7.0179618789187375 1.656500058041092 0.34799547044593615 -0.6402339977362265 -0.15048641091974727
Ni 5.6374731786049495 7.832394333530626 7.954297805176061 -0.2444244931308049 0.029238585150143194 0.12941724895427387
Ni 5.109407164182909 2.9067295953862615 5.113919741394385 0.5946357402811372 -0.7965812383121248 -0.7900064133080846
Ni 0.771229589276978 7.292180803185372 6.8757909518174145 0.33010881997350244 -0.3110533460039482 0.007941623444579871
Ni 5.046078114503219 4.404905229596139 7.164655281207474 -0.19756562379573717 0.21279529626129803 -0.04657964753175204
Ni 8.018026373157227 7.2126910582478345 8.954011371176769 0.1981649479426329 -0.6927418378269553 0.5688745721566332
Ni 4.592183932492331 0.2961393417040726 10.378922187497759 -0.24954201686302832 0.30771708254186353 -0.5229634114468155
Ni 8.168295644207358 7.083693437303242 4.754149011836533 -0.07028907533354992 0.17291491512659252 0.14678505080876011
Ni 7.093069519963974 6.027435434219957 6.952622640307754 0.3954279528962867 -0.26189565333237474 -0.1258953518439445
Ni 2.4425415184004424 5.111953643446813 2.5530812138537096 0.3726796034561775 0.3409979560821805 0.15850850989327542
Ni 2.3379918980213117 5.260216324829629 11.37251160584118 -0.10073145098380716 -0.12969595653695729 -0.13853720897767108
Ni 0.9993446414430392 3.3903357015293376 3.7949199670519187 0.3618303194464994 0.10639764813064902 -0.1834926906424388
Ni 3.7421907497852254 2.6387463959602115 2.626502599725606 -0.6805576370559375 -0.18129979675617808 -0.5949118767606594
Ni 0.9518253587834136 3.2323100166082344 8.024756096978686 -0.13786332283909805 0.1924002775447138 0.06909171259133907
Ni 3.387366308748107 2.6730923724631066 7.0281774899021645 0.8646668782364527 -0.16991495195800416 0.19566172190480496
Ni 4.007654464427202 6.637807617641732 6.039013366618772 0.9631498995057155 0.5554184466517273 0.08637132560739318
Ni 0.8469760996781764 7.475248367228182 11.355258533966236 0.5726823759384976 -0.15870622772637827 -0.21200056827414457
P 0.06723875017497691 5.446973134449119 7.906953086819333 0.7860643979412011 0.7200721502107922 0.8615154770916646
P 8.225164015047888 1.634893676385668 8.015353019838125 0.6910395104238679 -0.637216036845509 0.9552720394195355
P 1.689449520120815 3.1060838289261232 10.36195975618898 -0.5595813197801652 0.44936326946216154 -0.6378428717962306
P 4.085542536894863 6.1939913747671405 3.797066028198353 -0.2100825253158253 -0.30766617469927016 -0.8558562219233583
P 6.813136764133459 3.9342024848114994 10.404747806350514 0.8119826604688597 0.10178766016246342 -0.018704004167406498
P 6.224792076252446 7.512545740192422 10.260249955087898 0.2506092817852781 0.513674787056038 -0.10202985808025654
P 2.368279704389859 8.369566485815106 5.690977137442745 0.8683157878429497 0.10718774813211218 0.6205234066811764
P 7.009863534969928 3.9803900397995435 1.4635903066524945 0.01740199752653132 -0.15394068801693486 0.867436727672106
Ni 5.330662919024329 2.9865072814419786 0.4228100384873741 0.4313264665651088 -0.8913454159689036 0.16148944689847025
Ni 1.5095763028578122 0.8786712182618285 6.941902232551518 -0.8397570023686505 0.5108733130515009 -0.8432105081348897
Ni 6.794357604332163 0.5387369322985882 9.348022798766182 -0.2056705122910587 0.6830701190651461 -1.1224533944964603
Ni 2.4474905063691597 1.5192133321568957 8.99116297394993 1.0275238949064112 -0.33333478310996784 1.21588394094348
Ni 6.320118582689877 2.0265835787097557 2.710498623162658 0.16324808146078984 -0.021966219858446042 -0.5324561814285991
Ni 4.053815024935417 6.886624736388933 10.400256824722902 -0.019130293071547698 -0.17707727403439827 -0.3165948446474676
Ni 8.042483371882632 7.187928122084363 0.08096274372022613 -0.3074167776926254 -0.15159198527910023 1.2363987730673804
Ni 7.582119512872639 3.853785929399821 8.213438512826006 -0.5926732172381276 -0.16498948963192875 0.1338125498084921
Ni 3.2227269762688096 8.330397495582696 12.289861414618516 -0.4242955278602564 -0.4737075026344809 0.7302634889214972
Ni 0.21395554767956487 4.779462635388523 10.126642576804446 -0.5113029443897518 -0.08950935701574263 0.08451036113925445
Ni 8.53105646231431 2.1652722179130905 5.969319018595317 0.7080882383760386 1.5861860453064167 -0.6110118676463155
Ni 3.4850143404508644 2.68457402455053 11.38407424136809 0.7915184790772369 -0.30402883505699896 0.006497434798885584
Ni 1.1308437508518199 3.314436222409106 12.545893258008112 0.03570105294603529 0.1478829118586292 -0.06914493442677769
Ni 3.250792237131406 8.254731968620986 7.836482197592786 -1.0032133431855046 -0.4369751802104539 1.0529096819693673
Ni 5.769881102167986 8.053443130693353 3.549949561680402 -0.6994696434690921 -0.5403147582410694 0.18175899578078375
Ni 3.119455094601602 8.447058639245268 3.5525572284319185 0.11186407056185896 -0.6737475561126397 0.16202423635601776
Ni 3.223347849304885 4.072009304340408 9.166241071779243 -0.2643883378472414 0.9589322618799422 -0.07922597281186355
Ni 7.264394485281012 5.860879493672774 11.46165727621368 -0.3563556694851734 0.9059971044438074 -1.7029701788777123
Ni 0.5054932303887251 -0.07109446171060456 0.40305007925227876 -0.25178787547441156 1.119945283362626 -0.7344795838853737
Ni 4.601946936030617 0.4176558924719539 1.5841854458422002 0.08356779472032705 0.19547917358035366 -0.258760964358135
Ni 6.008566292819231 5.547248628855268 0.34467361680528247 -0.692613025558575 0.29731182804813955 0.36350256494259975
Ni 7.868755897860781 8.62505124108016 11.239365833162806 -0.1035655779984926 0.7214667165654737 0.584938053377399
Ni 0.23414471914394702 4.902350505731736 5.73921807252981 -1.1115030661325438 -0.48863507047859067 -0.03541848870860997
Ni 7.959583324326651 8.996801220970289 2.47451108086236 -0.1189816554432467 0.6295698331541609 0.6746590121833155
P 8.548287938605387 1.6762312231643692 3.8108152165914433 -0.542541333578743 -0.155712435205377 -1.1468559917105412
P 1.7632974187740147 3.196344371315577 1.6449104280343512 0.9852356756611612 -0.49845051390711576 -0.7425075963961729
P 4.477970288334287 1.1048570649360843 8.222762406159069 1.2206086001126593 -0.3278871297318353 -0.5307510258120344
P 8.532118245187599 1.5125097029992698 12.267406506480455 -0.5770388531349804 0.30016652388811527 0.7901118285376973
P 6.3698784071753405 7.859640761838398 1.4517109358955853 -0.3317723237188544 0.17820393143967375 -1.126629637361337
P 1.717613760742786 3.2560111698984167 5.882688333926919 -0.4958786394148815 -0.5586521230976766 0.19072083295976186
P 6.798289800227307 4.010515879289114 5.909067339616175 0.7022816589965906 0.03265866657528569 -0.008568972615933628
P 2.4324095903044873 8.439581168332534 10.13562454005967 -0.20041363476749355 -0.2583123068564906 -0.5445473082651783
