# total energy = -340854.2785061882 ev
CRYSTAL
PRIMVEC
9.37529706306127 0.00000000000000 0.00000000000000

0.00000000000000 9.37529706306127 0.00000000000000

0.00000000000000 0.00000000000000 13.72169492133632

PRIMCOORD
 96 1
Ni 5.9948368692001655 0.8991791226592262 3.438039586694148 -0.6617119651043443 1.509299005040375 -0.8354781724876384
Ni 6.441982290567718 6.043869673195474 8.004687754849057 0.5366175118951404 -0.2020113182719166 0.4173471215668812
Ni 9.33828345796103 7.090312213070136 1.6442021096522808 -1.4528838594754399 5.617207347206713 -3.1834581732236655
Ni 1.061668022415461 8.826945377137285 11.562517388045856 0.535041168546956 -0.7271012891434316 -2.1854459146231267
Ni 0.7321141403733333 1.4627057324925865 3.500870953006914 0.27394024320173466 -0.7386085184520828 -0.08096069611478314
Ni 3.3645503826028227 7.155423651645171 3.940171125735217 0.4372847410310727 -0.16752562579022115 0.24181379498083513
Ni 6.480936650147165 7.402097094459815 11.331828826839626 -0.22060707899623297 -0.6702344007530586 -2.6360116890338214
Ni 8.170346442565293 1.330176532248285 2.4140030694329457 -2.0232771822694446 -0.3616025197064095 -1.622404661318819
Ni 5.9379756921004425 3.7332526928750105 8.94581758205081 -0.2264781930650293 -2.1793094627080856 -1.2570920397506737
Ni 4.208392751475831 8.294006611723637 1.2805183959343354 0.6474379716838332 -1.3307901407657725 -0.6889124367785361
Ni 5.2474850583997625 4.158600548412908 12.267510668878533 -0.7946603671403282 0.6592768733002905 -0.2108685115522304
Ni 7.611541232367123 5.621484411550984 11.872805972013422 0.793518283116085 -0.9047190090623322 1.1975239503790538
Ni 5.943394613842179 1.9925225239616 0.4585448451491771 -1.6469661527082669 -0.1082249311473749 1.5876867982216591
Ni 8.834989382075712 7.076830535795709 3.8882751059960894 -3.2943375112747524 1.1887140653969077 1.738558103284651
Ni 6.470980084594007 9.332733282059458 7.119597828718349 1.9037391401020956 -3.4117109416906146 -0.43151081466177293
Ni 2.759956221216679 2.656799826883908 2.983330175601277 0.8800068510276328 0.44704850528605594 0.49356850322446616
Ni 6.71971609277748 8.204885037196025 3.1003207583806027 0.6892358815562258 -1.1794465240520526 0.4965255289702609
Ni 6.249863701758562 2.196969628498066 11.871228109506268 0.6581666709552472 -2.173564589804508 -0.8956586986322768
Ni 5.319768599280037 6.442226048293125 5.799900066073421 0.10550881776779249 -0.6147214552874187 -0.40880411709287656
Ni 9.012763766274386 6.523528625013455 9.908970919743075 -0.6319100512515634 0.021335271142666482 0.03261881447628576
Ni 6.34338229064063 1.853871254690733 6.191557791370946 -1.2804823936501561 -0.5665420673687146 -2.1473406231109724
Ni 4.32928720798052 0.5985508448554786 7.48836764112988 -1.2302034428899458 -2.1454462343017378 -0.1763491376191221
Ni 7.231663567914741 8.830911127823713 0.7471802428629055 -0.05290816085294114 -0.2735008416714709 0.778174453670163
Ni 5.213199596791569 3.4145863433911527 4.858921181155478 0.8816328166668299 1.8594107504983655 0.12975432057871847
P 0.5154913374527929 8.439726855031305 9.200629720304903 0.6370427444924384 0.8407206518335004 1.1242505956061992
P 2.9050670702108286 8.08511561634706 6.064426887214694 0.2738199155737865 -0.9868521282186616 0.9133108644964013
P 1.2293452116040104 4.920099682584042 8.755333107531593 0.7431981947052942 0.21500515942842324 0.180819771795966
P 5.2428349110227686 4.600130166798971 6.9280839465741435 -2.587285170362396 -0.6887301455644009 -0.2515456775566184
P 7.505684752460613 2.1132013486322743 7.936271524035332 0.5698847585887024 0.6424358904835517 1.5498198479725567
P 3.471363142816697 5.500411824400807 12.05250604224281 -0.052570317897548166 -0.8920128743495734 -1.0540383962571718
P 1.304263210978106 4.084048185626923 2.2384609434811717 0.7216538928756153 0.08923296342590438 0.015225815810818938
P 1.9815159251297656 1.705938441260142 8.157643852482455 0.5189666315825965 0.3299383558339092 -0.34098947144174824
Ni 0.8944052213601035 5.373179667035539 0.5531603437955758 0.10167041785830877 -1.4013998326635349 -0.6245358702746793
Ni 3.905636281223339 7.8508175657453805 11.122764388466123 -0.7346575042241347 3.1245117765964445 2.256049435873302
Ni 3.992939048107531 1.8088135766789817 12.808776573203966 2.938514317254281 1.4646710819183548 -2.606607267729775
Ni 4.548809790303689 6.227766126420714 10.07176545418578 1.981905304190877 -3.225096160479427 -0.881648500396114
Ni 2.7581280382761273 9.346477467653553 2.8542088958641068 -1.40634123582921 0.1960306752084495 0.4973397973414402
Ni 2.890057219504043 9.371940774661443 9.378161284307884 -2.5643907822627257 -1.57237665022715 -2.3665150834257376
Ni 9.006454191305199 1.1675057517277079 11.874768221702949 -1.1860743137812153 0.7838031127108501 0.12560301741450625
Ni 4.409614753799222 3.9583535769911453 0.9197541497429941 -0.9283471900042335 -0.4048862700957091 -0.3116629545634891
Ni 8.001309835292744 0.1549539734520227 8.944144091512918 2.4680739154068463 -1.7946726868900318 -0.13641270643550055
Ni 9.338855351086023 2.959425042976566 0.8988256739573862 -0.6074316064942248 0.28014020136485945 0.3028823801573816
Ni 6.611965802850502 4.299689394937844 1.4726669856943106 0.4246092024459332 0.3843853219288799 0.13680017168190636
Ni 8.994894449942635 1.6299610333102397 6.349069345880316 1.001288872469282 1.70667616697439 1.8318508386022259
Ni 7.156979950968922 3.8550565532014085 6.402501976819219 0.062086484918099524 0.3997471490969309 0.9705361646674575
Ni 5.7202437915293 8.85961828763894 12.657151767763173 -1.8174747723862121 1.8997924967495219 1.608762387945036
Ni 0.7669602447499618 8.867709169063023 6.504316766132539 0.6269519359153396 0.1736574497195719 -0.7087379561448955
Ni 2.0805471887248816 6.590411994746254 10.307490425010803 0.2547785826716193 -0.23957796367178094 0.12586295594411226
Ni 4.161638144683363 2.8847414260307467 10.29745979461031 0.4390156076792504 -0.9757968988457646 0.45856550478672
Ni 5.9859772134113385 0.8465865183432627 9.259317205285752 -2.763224731247925 1.8062205396286313 1.314876811969626
Ni 2.856278023940926 9.299300972490188 13.007864757900332 0.17552689882814285 -0.12962525120002194 1.4896565482190989
Ni 2.4845006162097585 7.125422700825859 12.993224293900509 1.0384415702601792 -1.6538086295513972 0.011172214566735597
Ni 7.962130468582152 3.292876236036065 10.779558198741785 -0.5150282157601388 2.154084883813342 1.2784162551497467
Ni 1.6424583043859085 3.606545552149081 13.013504936654362 0.5592540183477336 0.11637815638212859 -1.8354467834836001
Ni 3.972219641447945 2.690588397744156 7.217432804399544 -0.5846110090552835 1.6781371789944324 -0.5615021909519621
Ni 4.306617739517678 4.739672089297287 3.2347390809968077 -0.3182588626134519 0.9155490097983007 -0.7342471561595936
P 6.959864328788924 6.839644893677671 13.608394727980174 1.5951036595110206 0.9231234797114488 -0.1897240162641313
P 1.1521958915127288 8.328957719428134 3.9871816781393625 0.407443232189608 1.4918371008101856 0.5309906526266662
P 5.248319459844424 6.719941099908625 2.6732056593335054 -1.25541670893078 -0.6657979622482597 0.05670825132532168
P 1.7733749535236718 8.218141707339306 0.9839280586049243 0.38650776758852146 -0.21072967198152096 0.4296951016092728
P 3.9804230264376 0.674581691999028 10.852077059580047 2.888912595066754 1.2179948166388959 2.063830678211775
P 4.263650752766147 0.9867500230413656 1.7437115134010792 1.0149375736009683 1.892153492147025 -0.6005595619647399
P 8.576231181259164 4.087170159571557 12.88091198438957 1.4142432642851064 -0.8384516532936657 0.2630855598754179
P 7.862302304730898 1.4864346095312346 13.762037097363564 1.042549936001598 -0.2377730492525582 -0.47880111510730444
Ni 8.642758289700984 5.325075017456202 2.443998395073977 -1.687647689588029 -4.244879749318787 0.45387632684116663
Ni 8.203319362575142 5.798086883608278 6.279651833332998 -0.03709536219040063 1.3046713321915338 -1.78732293139318
Ni 1.5303297506987372 7.064736402496674 7.981813904908758 1.4233357135046776 -0.5864429200576997 -0.7126792001808306
Ni 8.138170422811584 0.4848884925576706 4.742657183903807 0.3009519959038882 -0.8305619661329439 -1.95264306489165
Ni 9.2240829636079 2.0758314142679715 9.550135172171586 1.3202992685367778 -0.8565326791650926 -2.0550783859404413
Ni 2.6447619453676596 2.160368468498508 0.6566973751918668 -1.770731859803718 -0.787869826581056 2.9649267458095387
Ni 2.0662686111943165 1.9535775396792834 5.271175496720173 1.129154717776036 -0.06872250217737842 1.5572079129065117
Ni 8.548958441904984 7.292499870998023 7.7395712275182404 -0.9982367159065195 2.404931735530723 0.21495142337235237
Ni 1.204875686092011 6.567864405146116 5.34203399243653 0.2085390920881054 0.11339130583966278 1.5039271992055
Ni 6.583389897195109 5.449485210385028 3.891376454287036 0.3459604422937783 0.0879947201434291 -0.24949393723391228
Ni 0.2946627762392704 7.081630687926798 12.84494740706521 -2.7242943727313147 0.26315729365361773 -0.3768638167408542
Ni 0.13397299600248092 0.3689507556461604 0.9494972798912007 2.0821950396515754 -0.9021383928193494 -0.9770004322355627
Ni 8.542780121095634 4.163110066332935 4.707460443414479 0.7671516201970981 0.07941366334263744 -2.1687319443025554
Ni 3.488932449640255 4.532946787557979 8.71440149778721 -0.6188946128285019 0.46641816806191927 0.030152869434296455
Ni 3.052052978631185 5.969823576454566 1.4562967793738117 0.5154213374334995 0.36597493774249223 0.3170036500501121
Ni 1.2915784339598166 6.209446795826673 3.0758277946257753 3.0042414842487615 -2.2610528026251644 0.19419645021318813
Ni 4.158094282367832 7.204034567269583 7.945561505962474 -1.106144887144424 0.41241805969638007 -1.1283795301729083
Ni 0.6286446111163857 5.081879809877171 11.392821697384996 -0.19843028578887761 -0.4724612889322057 0.9098774133348201
Ni 8.547158384855827 4.271957266024244 8.41159158834107 -2.1250717844104434 0.4779734769996865 2.411681909770363
Ni 4.991530071425393 6.2051154085521345 13.570674157503168 -0.8198216968973043 0.17631699882960603 0.5159275876459566
Ni 4.934162628280594 8.675656207333784 5.236075321791293 -0.09335007091807149 1.1811102849077209 -0.1537871931582061
Ni 2.5583498317109163 5.279182937999789 6.631488921596167 1.0102910759678925 -0.6274065069542549 -0.0942710400704441
Ni 1.742230216454376 3.237796365391238 10.480754353759737 0.3935042535110126 -0.11409887342964865 -0.6480810045844709
Ni 0.4037209201160275 3.9993611266422895 6.69592627630748 1.7749685235928852 -0.2319638987699489 -0.17251202326121903
P 5.9748487357168 7.984799937044993 8.778070078133776 0.056932965741618075 0.605902314333892 0.7350128306810244
P 7.5189039214153714 8.072618345271392 5.475724791995367 -1.5454602854522803 -2.5162643590691434 1.0721428191673665
P 4.48464525673889 1.528004677010241 4.778415504691286 -2.803641701612391 -1.1728863543360317 1.1533817086442009
P 7.583209084437136 2.4443274680032765 4.000793672043912 -0.9695596596868012 1.2860025521374367 1.2493962137683128
P 1.3516365873812226 4.0095051981380685 4.857411758317381 1.484958114302165 0.2911550644181244 -0.8104531111982106
P 7.143235765374825 0.06147851093675777 11.021375237642554 0.39714313581518057 1.267355369349895 0.6505230383670603
P 1.9463585608883869 1.497713091979869 11.883468497440546 -1.4507336459016564 1.468122273691749 0.04788371105515625
P 6.6555984356983355 5.244531839803486 10.044349272785498 0.9430927237445241 1.0651023673808173 1.0988144149212817
