# total energy = -340855.7329938402 ev
CRYSTAL
PRIMVEC
9.42229972838435 0.00000000000000 0.00000000000000
0.00000000000000 9.42229972838435 0.00000000000000
0.00000000000000 0.00000000000000 13.79048807313927
PRIMCOORD
 96 1
Ni 1.7958620576428923 2.0627298523018833 8.133754054555656 1.3366882514177625 0.22340469634602816 2.43977661112405
Ni 3.9575166345899313 4.645523537043938 7.764472457669255 -0.1724657434043159 -1.8467789206669678 0.7175550402158932
Ni 4.129596094176033 2.6720888190845775 0.6255116151738923 -0.3488105101480638 -2.701688976626973 1.2322284437397746
Ni 0.19627969415878607 0.1056164418985121 8.138001627264488 0.18086502321160464 -0.24832202841299816 -0.28020165073041425
Ni 1.1546934070424972 3.345698447583179 12.884328695515565 -2.33020647880269 -2.4006243664046205 1.5440271525501794
Ni 1.953647888570388 5.85072989282657 2.7927809405175448 -0.16969357997581744 0.932111285032356 0.560666582424544
Ni 8.96773028187206 8.764528966347015 13.675765124105617 1.1361730580753981 -1.0968025266975756 -0.9485897423033534
Ni 2.3284481263963714 1.2662722801968864 12.01719633775304 -2.0467205008940494 0.4189460906228849 -1.492529756001836
Ni 4.86561903594728 4.275151780081201 5.335511949126755 -0.35141452342981416 0.4147338523137502 0.5156288254586152
Ni 1.4543790715880558 7.3632162867202435 1.007855346146929 -0.1247679231077206 1.0290686136857117 -0.5557537185039589
Ni 6.6432866328520275 9.150880943616276 9.491840992037261 -1.6752526583577858 -0.6404288873558518 -1.2142194087568636
Ni 8.622779889524297 6.643390278148826 2.068324813869108 1.6787305896040574 -1.755729472857615 1.1808223213536566
Ni 4.019722657268979 2.9596574062043173 11.297140425068724 0.9014092279628088 0.7638526377308521 0.5410408377738166
Ni 8.104496871729133 8.739654095115164 11.077112766723285 0.0916279460206422 -3.1486978869243445 -0.07601517918404974
Ni 8.737892125069575 1.1143188527892833 12.04928680610207 1.3828176987859733 2.808127762408202 0.35800451794250604
Ni 6.691048270077124 0.1092261249170433 12.998679609244352 -0.8978387370027312 -0.42149302541445477 -0.9193231321287523
Ni 4.479436660072783 4.564906340733437 13.529806163772902 0.5997262674301672 2.553447910097977 -1.533768708046965
Ni 1.6924805852353635 3.0001356057543305 10.536125775549232 1.5687894470965238 0.33485456218860393 -1.8228825736653445
Ni 8.895291641708999 3.228437927704242 9.906948885788525 -1.5605724585033705 -3.0049179414904956 -1.4352136958891861
Ni 8.643367614388538 2.5467816552541245 0.49540850079154075 -1.9480220211798709 -0.9545860690961042 -0.8766677593520709
Ni 5.917948578950825 8.907559475930164 4.9463172640352795 0.8324512127358568 0.2807369544085939 -1.7296795698480987
Ni 1.0115498298628416 8.035610438556379 11.669083821622928 -0.4228724222604846 -0.7425960423449212 2.242032038548287
Ni 2.448591869986273 6.099412649047124 6.711775444977058 -0.1344095599625427 1.5553821725516825 1.359291076418943
Ni 0.29634640152867675 6.865002767305323 7.587609296520877 -0.09846425221618527 0.871181539426519 0.16258859349991997
P 9.349861068871672 4.378599208586693 1.2892118110685022 -0.3120794732756174 1.5487230153639522 0.3472681053616084
P 7.881942152601733 5.126767494682887 4.02722280783737 -1.6531655966507592 -1.3661142699883635 -3.0808356758647326
P 0.9877585230975288 1.1655855855061412 9.984134480544995 0.02262107983362556 -1.812246176997421 0.6229140184005402
P 1.1317877964498337 0.8989448682701383 0.20677613603465078 0.10980641670188185 -0.0013405731882944654 -0.15013391267633497
P 2.719897567808219 9.402475190446921 7.274344213634657 -0.24714369183418083 1.0476952276479634 -0.21296113241520095
P 6.268109503037682 8.26461001068476 7.001472529601069 0.7235832486878442 0.06945166703391911 0.5070732225791204
P 2.7988564393699304 4.966918180119112 5.021420530556053 0.6150091617311667 -0.1425429877029545 -2.7801672726395346
P 1.5401691104388169 2.1141284972146677 4.237444678875615 0.9759344528648936 -0.9559263851740827 -2.5633607983363143
Ni 5.334406713370885 4.923754625152025 2.985130593467693 0.5015098695587299 -0.5525550090610033 -0.38159516077825245
Ni 7.134763207974988 4.752344148845266 0.954988706939477 1.8228280662783252 0.605796384883647 -0.8666265730659849
Ni 5.875802632352312 1.8417769241250188 10.036000471523348 0.585573887189185 0.18379325260199314 0.6667837232002969
Ni 4.421904098049417 8.424223767755809 8.40836415288556 0.21004318743745762 1.2141237637192637 1.711085608895995
Ni 4.328689287027936 2.5457923137846756 3.8786708306247286 0.5410444373182425 -0.8948678272998654 -0.1300821362317824
Ni 2.3554995488610104 9.440390524476076 3.8986121857289295 -0.718810252779233 -1.2696678195331552 2.095870737366455
Ni 6.033032547596974 2.3050714008182562 7.462557477012538 -1.25435741442833 0.8055111938119031 0.22043455797411066
Ni 0.40679459871798185 4.767278493884085 11.128716817769726 0.36497195039927466 3.7330831531220676 1.0303773051948062
Ni 6.80265541013064 6.98519362239377 1.0016008236000717 -2.1299864481032413 1.982925003704643 -2.4218115420051967
Ni 3.473163318047001 0.8366700628032151 9.924793779207466 0.5857785470008234 0.9765422616522215 -0.48558394235709273
Ni 4.842656891556363 7.563393044038686 13.306359152863056 2.365579458985345 0.7174470538831192 -0.1823943153719375
Ni 8.455863850178746 6.097669523600953 5.57097144993565 1.4640007953242078 1.099386742484984 3.1320070565322258
Ni 3.243438228841025 0.16878448137785185 13.539693925087564 1.6352028415247517 -2.2966080740219543 2.6127120950759326
Ni 1.8326749826060913 8.50366317660268 9.748302798897594 1.2635434518029722 -0.030447260746263693 -2.3294379760677817
Ni 2.923786711212022 6.50377064106035 12.929989159905547 -1.0338644924124583 0.26755130895625534 -0.13511224245652215
Ni 8.125876069768932 8.033179485231448 4.11865303529396 0.8510534012180762 0.6879680705873957 0.34696728629173795
Ni 0.9545826058220176 1.757494453227703 6.178331946950057 -0.5131235425382582 -1.2532420698769642 -0.5219416550505205
Ni 6.726447850083968 4.52328804291863 6.861608854950129 0.3580495122478285 0.3725883292939519 -0.45215831570879544
Ni 5.180860917312455 6.49400913856179 7.27684018082758 0.6646116552496424 -1.2240379375091823 -0.10629197579072015
Ni 1.8428039547933035 5.076716238628495 0.5554813148164626 1.1732869322085602 -0.6255308871980968 0.622563834149973
Ni 3.809737285953431 8.278894217043657 11.39565904859642 -1.4190232021722529 1.3961704659437955 -0.49011165502411713
Ni 3.160361812306466 5.899518560719952 10.692744183542777 0.8492492581298018 2.1251396615339013 -1.8895785323309973
Ni 8.642312316821126 1.4060992078789618 4.513364476865076 1.8249862502719085 -1.1106980537327453 -1.027294038283792
Ni 3.827649077700306 7.884250616030446 5.718419133622392 -0.8084201399285819 -0.033257990722181434 -0.7046067075853413
P 0.02359720739130658 7.1433469230099185 9.826978059238062 -0.4555110342311122 -0.769278950952746 -0.15145391703933916
P 8.039059000249887 1.2137429593190179 9.191222519820508 -0.475171231664201 1.153918040763645 -0.4856875578144926
P 6.018154736356409 3.230058563254196 1.5640621780409873 -1.803549163444055 -1.8719759887578857 0.8010639566738268
P 3.271921840861437 6.746196990274104 8.544007579496824 -0.725160620477293 -1.9246591780842144 1.0663997460360022
P 4.344386838343189 2.930127918916202 9.034134881301451 -0.5602608623456932 -0.7737349298415707 -0.7403892645015894
P 9.048206143686924 8.596227848944238 6.270824067583855 -0.5328693577066178 -0.5813799037124955 -0.9122723959295579
P 0.7485527159243223 7.91690830682196 3.0255918328782294 0.5524789044074292 -0.022187848950948885 0.3831172538497338
P 4.82999332074742 1.0502095255690111 12.195825237866893 -0.36335395517987745 -0.14838916207108638 -0.30077099024133364
Ni 8.025924314455493 1.5211925988248212 6.616620582445488 -0.07113908203867102 0.06188259643740956 1.9081822634751138
Ni 6.982197331086297 0.8638298417145078 2.91071703928562 -1.231857433553601 -0.9160190074561837 0.5456348849024022
Ni 7.700732484597577 2.9613439978522345 3.2199964893949176 -0.5045296302216602 2.8665198291938503 -0.7209684367728164
Ni 0.7360719377297349 3.9366745076335463 4.885363464987563 -3.381134354455338 0.9384691089295838 -3.419474387686117
Ni 2.6430964028798773 1.0157804424321981 2.074779089169797 0.9940211351632752 0.6642190477969142 -1.9898024475507667
Ni 1.4567440688150235 5.260837397242742 9.163696213450534 0.0811491579765054 0.21456241546404983 -1.7623490350566615
Ni 7.346030012050964 7.049378328011715 8.562624159261935 -0.009800016809557315 0.47126058375588514 0.17084106331669932
Ni 7.506237374003681 5.163222372257143 11.166461608174151 -1.2710857829266045 0.7893027023728406 -0.7005070835946711
Ni 1.4776615741690806 6.897179920811677 4.817996848757877 -0.8675236309589577 0.8932788855461905 0.3699825162399886
Ni 5.799519693907967 7.2981741518287775 11.079926265416402 1.3184498740328647 -0.9486964430845468 -0.4177042477959839
Ni 6.406777487855546 2.5748318414879208 13.12655906089537 -0.13379455208636312 0.565255230236491 -0.19251700562823618
Ni 4.811629258614512 0.42611031312150305 6.647663291066873 0.5965134169198243 0.9935799338607986 0.19502974474776089
Ni 3.5590852690936887 2.2469169670140943 6.496257299272365 -0.41906924646431054 1.1256374486513967 -0.1817844497020805
Ni 1.2975731598302997 2.7367257950885553 1.4102845934097152 0.24522719153775832 -0.6829400212451852 0.5621377676534318
Ni 5.988879651160438 4.506940352923455 9.243460691637367 -0.5745705941001459 0.1825748068138598 0.37009333078624007
Ni 1.810956581776766 3.9380313187916474 6.620192576265183 0.7126884561522113 -0.32953674952011636 4.071325657946297
Ni 9.235832397792933 5.781353500068947 13.289507369833448 -1.0272834967608309 0.6977794002508628 -0.011790821987340983
Ni 8.239791673251164 4.954395943805805 8.615979815824286 1.1920045632227214 0.7514216110563511 0.7865390235847745
Ni 5.266302331073983 9.253169429257557 1.4834977466088568 -1.0088273469381723 -0.48792184646165 -0.01659055736882949
Ni 2.8252011893563918 3.850611222091223 2.5351328661238446 1.5437366178929544 -0.7987422505191857 1.1019169651060055
Ni 6.121677543259573 6.503440860570533 5.000471931612956 0.20519280132369178 -1.9358820433832276 2.547311972403568
Ni 5.9631285060556465 7.312232222994656 3.0885177192550475 -0.3291814230632266 1.335051744255604 -2.587663379637421
Ni 9.281605929779424 0.33872602115997313 2.2355621536347363 0.878573718125532 0.47704042366245586 0.08835030371063494
Ni 3.9000594509642377 6.907817697183177 1.3933084360239472 -0.4161353606469672 -0.4461481049589736 1.7988646134841924
P 2.454179293713731 4.452460616005816 11.925793434965607 1.7434154313769523 1.2723800762579958 1.239273009291382
P 7.346670728431179 6.8123132673324 12.583571715493088 0.1702849337029132 1.3818684474988268 0.8542611095220966
P 5.128227951137787 5.180823228113619 11.24108151071985 0.9338866317652239 -0.655615108177987 0.5521618873876426
P 8.939519916543208 3.7941622245343964 7.077775254874803 0.4368497103761831 -0.8965814675568624 -1.244130080273367
P 8.408846574630664 3.4108253831720274 11.979672971391782 -0.8006173560547115 -1.2880684335275299 2.0357532032492682
P 6.376399993593618 1.6991138842305238 4.965430398995057 -0.5426182095632656 0.5614337996078719 0.5470225092785482
P 7.434411183321711 -0.18764980985528115 1.1527015328840073 -1.1915152822911286 -0.4503552010617856 1.1250795192653977
P 3.9850485943397307 8.081063612352763 3.40590600049394 0.2460244906280731 0.04268236935987488 -0.25727589517217625
