# total energy = -340896.0717635795 ev
CRYSTAL
PRIMVEC
9.05913661097174 0.00000000000000 0.00000000000000
0.00000000000000 9.05913661097174 0.00000000000000
0.00000000000000 0.00000000000000 13.25896214172455
PRIMCOORD
 96 1
Ni 6.517323983465286 1.8379085547266603 11.613670769252948 -0.5587811924763731 0.04183133421348925 -0.670347272181839
Ni 4.503885599843651 0.5990788851599381 6.205433314176223 -0.050271494561042455 -0.8690909754460775 -0.1478273760303454
Ni 2.6060599162817626 1.5285390431265662 4.808614115812918 0.02637540466973522 -0.16038515809069798 -0.4504914695293339
Ni 3.3117575907806125 4.13242476664745 4.480083624593926 0.14319270547181145 0.8746823534909258 0.6865457363185725
Ni 4.93410399240261 4.623466201692003 2.567345696433359 0.09380335640540619 0.09965004499417032 0.31999255747510696
Ni 7.304961547639768 6.034354239045498 2.629198762739419 -0.6716279386664756 -0.4766179914130566 -0.059953754845812876
Ni 5.164649957284332 4.721984311169339 11.648992342480732 0.09848764925495297 -0.8952766327025097 -0.8929945215365525
Ni 5.589940179585298 8.052168185598402 12.519800932981694 0.33109869469059755 -0.277687883169625 0.10949402766778563
Ni 1.8275177251569585 6.650248693383535 0.35726697812226127 0.8076428954429251 -0.4840461655563276 -0.7733454077126358
Ni 2.5543866016648686 1.6324835753695963 0.2598332472844138 0.865815132908283 -0.408431050024174 0.503469564388262
Ni 0.6431180654451955 -0.20031562636899783 4.4937402728731985 0.05413149173708097 0.2753643772427709 0.24066836852248233
Ni 8.428240119274967 2.3380634810938985 1.5399490255529298 1.3020110117505512 0.46050154546716815 0.19814232223481357
Ni 6.656064659018886 0.9021368963579299 4.891164591288897 -0.6774466022307817 -0.9679244380762235 -0.7612550522070051
Ni 0.8631219131776042 7.378204666271884 2.348016754370473 -0.2210174270607742 0.01442903094113644 0.9715427515551011
Ni 7.8011938679009205 3.750944528478198 3.722718976873735 -0.2567079384838482 -0.037645835377231936 0.2984739666770408
Ni 7.511872225383433 3.712515671429659 12.826401972466268 0.10923923134450218 0.689774013447883 -0.0738629087277373
Ni 8.021140643073355 8.960600275912727 6.518304182034982 0.34500630591062514 -0.0057448729035772025 0.7249132803531774
Ni 6.908307255826881 0.7592163352215399 0.5694219899878963 -0.8724046132003427 -0.6662165378429171 -0.0895947176406973
Ni 1.9953563471603244 6.185415340244079 9.066398307484407 -0.42394071562399893 1.0079125484333868 0.15090035852871433
Ni 9.125811748330031 5.031788661321609 1.3399640576663157 -0.02435400336433225 -1.2119817776755966 -0.08165129442390454
Ni 6.455187366186662 2.049276327630127 7.058978814155805 0.7058102409751393 -0.11101586362895075 0.31592661493584945
Ni 3.3750266001221956 4.294918498113654 0.45392162322079366 -0.07719942930013801 0.45025389959723106 -0.1766432718207732
Ni 5.938671639293808 5.474617371893666 4.805259517565612 -0.27289868931109773 0.11511523050930499 -0.31653288106128064
Ni 5.3960203035878855 3.0147900370540333 9.54764591005485 0.05337198786323711 -0.6762978333383192 -0.5744140139176236
P 0.33078531029475333 5.657476042220106 12.486177041934699 -1.400954260485684 -0.22386081004684028 -0.9076665217264303
P 3.891805041973655 6.229823227385035 12.647432389440853 1.08919334689175 -0.02942113347459449 0.5969037103797075
P 2.429624173736421 8.585280250565967 1.2707585961738825 -0.579567275983789 0.5284439749454125 0.14680536252373427
P 6.18937418289618 7.935839813754865 5.886541744197129 0.16936576432275346 -0.24803535041051478 0.033023506113872156
P 4.640098776312729 1.0686519785181106 12.65878167565264 0.5241422622462651 0.15796754978814087 0.5868908062283957
P 4.124253425521146 6.115995177216509 8.254035642050477 0.20197635126892316 0.09426332676096023 -0.05166966046014973
P 4.5198930940456234 1.1009115636076547 3.798321094651405 -0.01471905137772949 -0.3788250542322831 0.39643556822519466
P 0.22537229202447953 5.586860073174052 3.561821465259476 -0.047057358499118955 -0.10287138014494542 0.5276523322820527
Ni 1.560544972394008 1.178575540853558 2.4858560458419583 -1.038187288157528 0.38293136309117276 0.4932941665171569
Ni 1.8354172921881529 6.483207275392491 4.763096484450263 0.5403512679059598 0.3632415979717293 0.416252860061438
Ni 6.1177164131522055 5.57335290064709 9.170295732217618 -0.1099318865361526 0.5924410466226636 1.0816587290776019
Ni 8.603507233211337 2.4201754943631 9.997270784831956 1.048686387916639 -0.22620231369582333 0.8009253742134336
Ni 2.55945971810692 5.234695200730655 6.99770915624058 -0.3693682796947574 -0.9093976454849242 -1.195442899480309
Ni 0.5647674056523143 -0.07219588245229247 9.365918725877718 -0.7876728800789015 0.8355571053546901 -1.0255045504835372
Ni 1.4746734174757858 1.236381890883432 11.448132262007864 -0.738429055451425 -0.13048451387652368 -0.21921379819313216
Ni 4.004799651583845 6.861462460966439 1.7121559631783618 0.4744410383663959 0.17794347868943547 -0.621482428160336
Ni 5.562382286341155 8.02579703923624 8.104421284951531 0.4568536643019358 -0.3663523756865691 0.15412966409928938
Ni 5.196266343682116 2.8895474748908914 5.095856686502814 0.4973151147510919 0.19777336893116906 -0.542749335824491
Ni 0.6847765046572901 7.382797648479242 6.844434907994154 0.26242092970822545 -0.6849483099244655 0.48084668478242354
Ni 5.356939188711084 4.6295177048764495 7.082380375572067 0.05380676140781056 0.15534990965963566 -0.026717618500502374
Ni 7.877788867039392 7.467201623283871 8.71801924818589 0.17020805771839073 0.3269275940320434 1.1048179408028844
Ni 4.5593184561095645 0.4183047221429919 10.437746837654014 0.5402941894157791 -0.7714746730524843 0.4360192440550878
Ni 8.066073960131524 7.102018771684709 4.734072822919827 -0.040873855396226386 0.16854866773809682 -0.05467193762158326
Ni 7.298774157407767 6.144540516339552 6.823684955832514 -0.060259716122005896 -0.3359675927471246 -0.02864466031988615
Ni 2.289162262247125 5.312114581290959 2.532448090793948 0.01309488551074519 -0.3246971620396279 0.054826460921576545
Ni 2.6332010892467372 5.070235636643155 11.373630829315388 -0.9943669485384683 0.33667310345458146 0.2056987944258328
Ni 1.0997066984526676 3.4398537809424083 3.746677675184973 0.30231390924842133 -0.44872846409164013 -0.3788785331780378
Ni 3.5233337238236633 2.6367522707561735 2.4947267523063457 0.21643315012420147 0.12179675629453862 0.14084631672682194
Ni 1.2859081901489582 3.3737311436021717 8.267294594237239 -1.2774760027236645 0.8082705017245951 -0.3121193253746173
Ni 3.9342561556298206 2.874554603977329 7.115395492646017 -1.2837065570144084 -0.8562588566784157 0.6846004396667436
Ni 4.1243077803401675 6.874661622852276 6.115033096919819 0.6028373022553232 0.875140524074267 -0.7078835785644002
Ni 0.8625838004692866 7.1850095211947655 10.99901198113401 0.4935127102858662 0.0804531603507453 0.5587117726910183
P -0.03351880506355336 5.691330035334294 8.20566619451647 0.9006091006590167 -0.2580505685546717 -0.19562469801928245
P 8.57238004018475 1.4707236339601886 7.942263647449613 0.2822143102850688 0.5208314527054773 0.21169666388048058
P 1.8952347705218402 3.2163648833970404 10.442890615360794 -0.9925270671162518 -0.6357258254532278 0.3941244035935148
P 3.910774873812326 6.286216352120338 3.9062362464239904 -0.18708555020001974 -1.1648732542235678 -0.25991950344261044
P 7.086600121355473 3.859762876160199 10.515708860490886 -0.2567529327891707 1.5707303728729787 0.4276248493438055
P 6.371915783444991 7.806004269384365 10.447505339495759 0.28316587556506073 -0.1615177290332444 -1.1288834663925202
P 2.34608081689964 8.520860730888419 5.915539134231704 0.3090512279722548 0.10534195317262503 -0.30547559480585457
P 6.874734095944306 3.8647454012372138 1.7744203142816888 -0.3617429019390157 1.672401819172552 -0.8805282707487416
Ni 5.292845797947667 2.9033626580589775 0.6521509304529979 -0.3418775304736564 -0.5857052705607269 -0.933698684124134
Ni 1.6514443480717633 1.281179320894046 7.063261067981086 -0.6249462183392206 -0.7604199579002193 0.07072050644401368
Ni 6.981323896046405 0.760448377786038 9.40138615120321 -0.6157694369359589 -0.6346189655422941 -0.49787741501246513
Ni 2.7492214504491503 1.5764981117769588 9.223039836769244 0.4928187695426351 0.05112330103837648 -0.15789761578215386
Ni 6.194429181065224 2.028675851220797 2.8258563097882377 0.20599035752432265 -0.09729208628495502 -0.815912591650885
Ni 4.126110548504396 6.861688939379031 10.34071714430423 0.3875755467314035 0.7467941395866686 0.32045664159571907
Ni 8.105562736150992 7.1153538206181 0.4416057271440637 -0.22267373171727461 0.15273818306840145 -0.41774101457119023
Ni 7.665216228980937 3.9058829401003474 8.140657830966184 0.6704084644370776 -0.02941804815080095 -0.05954906320822647
Ni 3.1836704597553207 8.302399654102583 12.405217350828762 -0.5436373948563993 0.8576781056234454 -0.45768850149840534
Ni 0.3182547126828866 4.881524764135349 10.346538545421483 -0.9140433717870516 -0.7890579333518862 -0.06576239110778997
Ni 8.768138920892406 2.1544076067551368 5.528284602455017 0.22554873927222444 0.41900908265033643 0.7418383382432902
Ni 3.793803303277028 2.687882037182848 11.51645626951849 -0.2779923017839212 0.2726863161899756 -0.2007406790896091
Ni 0.988460502187685 3.4837271790296485 12.651330535878378 -0.20268828973428316 0.08183409985867196 -0.710312756831183
Ni 3.2261306325479895 8.352668802561409 8.015161612980938 -1.0890172263252018 -0.04266411452742975 0.5868650951967828
Ni 5.651940909816368 7.679973562345404 3.6801174815516093 -0.5900604622056289 0.7381866004233157 0.3306901463982692
Ni 2.9252676501248347 8.368069334617637 3.476048654929144 1.0212959117188283 0.17941954901432972 0.5768974424611096
Ni 3.3803533723863493 4.148368846893897 9.227495120101747 1.0348361122971081 0.7397318334232486 -0.4589272590015129
Ni 7.198543871131238 6.0573463274917945 11.585668072406476 0.9128964026668019 -0.06867133722446883 -0.6436450803003044
Ni 0.33242139034731494 0.10819507909054878 0.6108784104559593 0.5421708376132017 0.08156284847515631 -0.8663897744648303
Ni 4.542758354580869 0.24044669516657485 1.6059384935865628 0.04976601567953365 0.7060442113628163 -0.26423869964325464
Ni 5.942376826123806 5.674624987621541 0.4384431825906349 -0.1771639202109336 0.22654221353374535 0.6949123631157128
Ni 8.131662108418045 8.633085313895796 11.565606614619114 -0.5223268063040811 0.7256694417929116 0.06698057978560723
Ni 0.24391725036112819 4.7726158250883115 5.754787474715154 -0.15241448118039558 -0.07998933334044933 0.6709789922285669
Ni 7.9147048482918185 8.526350567609638 2.5328593755912143 -0.672652523276248 0.706345544653319 0.5695613138110127
P 8.362452669985366 1.3378170423149476 3.52874021648905 0.514074850707934 0.5760420364393498 0.06363968833783233
P 1.633887741527664 3.3625521691566513 1.4658045228386996 0.4479627895702092 -0.8692840652934901 1.0294357672171432
P 4.885909386203123 1.1724606237135857 8.39391776880354 -0.08200764932205877 0.06747191759972897 -0.6669816981437158
P 8.496401062328529 1.661074210175157 12.48499663644827 0.7931747837337372 -0.40571930751996577 0.23384774605622305
P 6.160421182630473 7.743894829515252 1.492282567011606 0.5262662505678034 -0.5535669952652853 -0.513166994181684
P 2.012278814149167 3.24977497882255 6.05961111161771 -0.7283058509744941 0.30680562647118775 -0.2658878052109034
P 7.158901089791208 3.9482253441184687 5.839578274648489 -0.4601971268528719 -0.2651951500192529 0.6585963022934981
P 2.4473710221470966 8.649681651970507 10.167051685701708 0.6720436860476554 -1.0505686925410165 0.8391319671901418
