# total energy = -340888.9894497619 ev
CRYSTAL
PRIMVEC
9.10990000963017 0.00000000000000 0.00000000000000

0.00000000000000 9.10990000963017 0.00000000000000

0.00000000000000 0.00000000000000 13.33325950689942

PRIMCOORD
 96 1
Ni 6.691968520724539 2.1626082576258594 11.549308867550069 -0.2984251157169764 0.6828245787132434 -0.16653935061755187
Ni 4.801627842727496 0.5880130677307619 5.846500570674041 -0.46787161267899424 -0.6479550205295679 1.0690430971961202
Ni 2.855279499874227 1.699716021667103 4.524654999777561 1.2836877879613313 0.05924850124867215 0.260826331527596
Ni 3.473167573481615 4.220152039196607 5.19405135865879 -0.6372466329731283 0.6067037271892648 -1.5497198320595826
Ni 4.050225075539623 2.6272131547741036 2.332973407470154 -1.186575164677034 -0.1516614050644549 0.26888391172474985
Ni 5.383659350154972 4.742340613891401 2.3592536468288454 -1.005393638666275 0.19039533129954306 0.7837766303482888
Ni 4.814654999647534 4.871273027800011 11.353190030563852 2.198887127729697 -1.894334301848428 -0.8280417708142512
Ni 5.626511062864342 8.166332947474856 12.360184705532895 -0.12174147757657097 -0.25663620470564835 -0.6934272939297541
Ni 1.816176982552263 6.822768464121687 0.37017531828785516 1.6314310331871453 -1.5714523386406676 -1.852701713909306
Ni 2.7117712460550845 1.7359278739448338 0.19512585789231288 0.7443793594975889 -0.29265144645799274 0.4216264656685254
Ni 7.886340172693458 8.8612725548093 6.897681904331866 1.0534938366076114 0.5761029715842724 0.8946181731829044
Ni 9.036200853535586 2.7287885391506315 1.2276000120149622 -0.8430986651473737 -0.8609575477056657 2.646280417949681
Ni 7.206359021067198 0.5229446963901531 4.514974820096978 -0.8254608974609525 -0.05360235870648833 0.47090037220298897
Ni 0.8982088047867732 7.6324745909516905 2.2971742336598906 -0.11102537671064751 -0.13262907102335222 1.2181881635966245
Ni 7.9777033592326685 3.9706045500283356 3.762086228228226 -1.3362784175738533 0.5053382421658845 -0.14140013234776294
Ni 8.069722458567853 4.34944884910298 12.751449442191301 -2.423063155024111 -0.9235685376686674 -1.3357053186792027
Ni 8.394909446971848 7.311742343620352 9.044190235786546 -0.5541586061026973 -0.5206797576189613 -0.5175047023250894
Ni 6.946699542960994 0.7841619673867953 0.18636122315611042 1.2057211414778655 0.4622990036872232 0.27782466585780535
Ni 2.103557886188312 6.5830687767929685 9.183815850249522 -1.146845964408212 -0.32866925931349844 -1.4291237809413646
Ni 0.23232340134399346 5.281045437184819 1.184125747501808 0.013385934388602755 -0.24078818192979823 0.9610487940023126
Ni 6.631378576196441 1.9924899860700493 6.71532266022119 -0.6197063100965199 -0.36896898737380973 0.4177708393678612
Ni 3.356433315598133 4.747077761862325 0.16616002003010585 0.6763621109173512 -0.7255000060945828 0.9518745837022122
Ni 6.39494934294765 5.843445110232796 4.729067489672873 -0.3883533054376925 -0.7757447611827478 -0.6129898173082927
Ni 5.323615999623519 3.0231385162439044 9.358041775690118 -0.1924002775447138 0.2358480643157035 -0.827976721904271
P 0.22289009995189532 6.030079630387229 12.324371866872715 1.123180502470472 -1.858836108941818 -0.5911200138183949
P 3.958060217805333 6.404715155687707 12.295571829189491 -0.6147610502761025 2.4077596918978212 2.1144230464473455
P 2.662186060659439 8.590562768070923 1.279685864945258 0.27951028109034437 1.1119404107802784 0.28508803228843804
P 6.525239131947928 7.740199157790475 5.719115017775937 -0.16474009262528402 1.4315393323613927 -0.9450645027589143
P 4.816732056834785 1.304765419491319 12.683742843826886 0.10106775127730336 0.05671493619354104 -1.4105694149779449
P 4.017693622839301 6.227482052275568 8.05998215354764 1.0563770716926775 -0.0085579168723401 -0.25738053907084063
P 4.961524806546043 0.9952292391912594 3.796139034219209 -0.15450170272672747 0.4352630826153536 -1.7314184069160765
P 0.30866071891543323 5.917590585877689 3.457061270380476 0.10203628583815977 -1.0762519562397335 0.8901367403727831
Ni 0.894335275330549 0.4403406786471785 4.858359744629273 -2.071369152680665 -1.386748401298947 -1.5416496534569384
Ni 2.1826409276028986 6.675798448323792 4.741599979025947 -0.24687681132603934 -1.3534999236584624 0.17637202043725755
Ni 6.1422407184987815 5.569920364411697 9.114282716946319 -0.5515263106861727 0.2633041036441272 -0.1514120080578102
Ni 8.70193129488734 2.5943901852755715 10.132384181927188 -0.029217502104220645 -0.5525874049608355 0.45204055918400854
Ni 2.4478574446749937 5.2282808967086885 7.00382772551034 -0.606600368842181 0.28763599552127234 0.670095304072033
Ni 0.4561964594998554 0.18252231131967375 9.178855509729967 0.45988139538466605 1.0338300396300972 -0.5457639542810988
Ni 1.6013291022710041 0.996276877684829 11.429763294543843 -0.9431554586616595 1.400788424331781 -1.3132328486082996
Ni 4.131212086042523 6.9092578541908125 1.7097505764555105 0.35012845762853895 -0.4109329905104213 -0.7802341644126691
Ni 5.83957340275656 7.642367942290965 7.964248948005252 -1.013101548833494 0.867814422726499 -0.5862264331715195
Ni 5.363991076175696 3.1302436098864908 4.570788444084393 0.005006194965339765 -0.6697458911524143 -0.2273963340039245
Ni 1.0118821362890436 7.479000106593721 6.802375953096856 -0.2066112789377732 0.5260353655039198 0.5401242394968181
Ni 5.292350823015426 4.51559520428317 6.928481565052817 -0.9771385004753236 1.5863086869272098 1.3203072389565778
Ni 0.6815371225367091 7.4526907155552085 10.874872912019773 0.7955473977309718 1.0680660779948317 1.0727742821037785
Ni 4.893829140061561 0.8116510904680664 10.261476019084817 -0.9037250205801791 -1.7235050656062703 1.4911385320812642
Ni 8.556673940278934 7.463504166788835 4.82445360802739 0.1065503716584294 -0.06872481617022358 -0.9000290597858305
Ni 7.633941284842688 6.3427951657677735 6.885388094357325 0.19634434979412635 -1.71670244086214 0.380550521563822
Ni 2.3349311249681377 5.332534591668777 2.6287053563849443 0.9165347707503376 0.39733314033879963 -0.18363153021314826
Ni 2.227908020425048 5.15209480347632 11.333057151687427 1.0265833853700128 0.571025814171681 0.1323789026857591
Ni 1.1154434788533816 3.3958791823560133 3.5147005183166855 0.8959739158798504 -0.1652604839051283 0.7208763912796424
Ni 1.581487740192791 1.0952103910775728 2.5077195081975585 -0.07141316163566411 0.14242548828848375 -0.7836089944221731
Ni 1.0210466956327913 3.2046532726297627 8.147781547228725 0.15530208714083577 1.2110538665446886 -0.5243322667698841
Ni 3.7164930009880783 2.883547519400717 7.048374225246913 -0.16388622926542099 -1.8095727439303158 0.9568514680915134
Ni 4.46372343400156 7.1869640440862455 5.797860992892592 -0.8951354791389552 -0.4688864270967538 0.08218942631556167
Ni 0.8396640327961223 -0.16912073751193293 0.09921409831102153 -0.635280767496009 1.860075637775874 -0.007633091065225565
P 0.33434152685780383 5.702906683795424 7.969488962453089 0.49004403501097543 -1.1245100199151732 -0.016148327625088315
P 8.636239806390556 1.717006611760973 7.6859569915434145 -0.9612565391377446 -0.8734685356884827 1.5503831766751945
P 1.7502759663567649 3.085049396263894 10.243089508027674 -0.11300281215199248 1.3769363003045316 1.5030617658814114
P 4.246261012436349 5.812407681123305 3.9984981526671244 -0.2823271817138493 0.8946834792032011 -1.3828547226714958
P 6.884907091640278 4.049222986545773 10.391209193198513 1.413698961745862 0.2400165938710963 0.8736315436289083
P 6.571599412763368 7.901726793699014 9.968917959310547 -0.73215273552441 1.5211852149549996 1.219890748110028
P 2.573264327305243 8.611442658742762 5.61532866068298 1.5249323407022575 -0.1745712197830929 0.8871072095178401
P 7.203197885786601 4.0400675371019705 1.48937845284816 0.45697656303304524 1.0252752080815504 -0.2100714695722318
Ni 5.558532989481594 3.130462247485149 0.371558201099367 -0.4537917375471604 0.145033358224976 -0.617065272929247
Ni 1.6671754590668377 1.0536054780329447 6.940175032621043 -0.17032684268444215 0.4953366508684824 0.9437085029516522
Ni 6.872444748516772 1.0983897461580578 9.15505589612605 1.3425069149820685 -0.8683895785036787 -0.9952071850515765
Ni 2.7794851323394547 1.6072778669344905 9.157575694450586 0.576172134259311 -0.9921506576134397 -0.7302516618469553
Ni 6.352761396306601 2.2203012539717384 2.5834127558429514 2.073948483372067 -0.6104894194839422 -0.4505259223116951
Ni 4.1953275618489805 6.8790403160762885 10.1817297769543 1.0349543830425274 1.9632663489334512 0.009784075969957345
Ni 8.194391439302631 7.406284885240049 13.334859277480318 -0.7096753803575004 1.2155754085641257 0.7459731863472701
Ni 7.630880358461477 3.9016426074516257 8.0313151204036 0.5773201318208251 0.09339197989960045 0.017692275073440497
Ni 3.1383149812369484 8.63406254030392 12.325731974934365 1.1568382997342337 -1.06212888657479 -0.23339266079667548
Ni 0.2574612592496967 4.979799265833875 10.183276637964807 -1.280064075165815 -0.038880479115281426 -0.7443438782739632
Ni 8.869544343958529 2.3988188532759933 5.593128745509244 -0.43583412462747523 1.3294318269656655 0.7255614554601376
Ni 3.746154835206013 2.804154741388032 11.259537526168693 -0.8122258868279172 -0.6372905988371863 0.7924049954472482
Ni 1.1561738415033778 3.671672293263189 12.85356868759449 1.875977653718111 -0.30343748132990317 -1.2243930068557558
Ni 3.245429184779479 8.483384795228783 7.8214767741015905 1.0201507423707914 -0.16361883453664725 -0.12081510910755967
Ni 5.630464759440075 7.9879519966697625 3.3219286585699233 0.6654580624103379 -0.07303038552411294 0.6272877219882036
Ni 3.119521257652305 8.251956897049293 3.455580911639563 0.9269960752929778 1.7804642566001336 -0.4283010494752237
Ni 3.299040945950409 4.317436660699472 9.113696039389918 0.2928201108253731 -0.07507981185397392 0.3194474836049144
Ni 7.214557931016873 6.346493785145071 11.2680571045964 0.25869565833783836 -0.9280674539802856 0.3098971209123179
Ni 8.293170084396326 9.079600416869198 2.273707131403932 -1.1647357002044394 0.47707821887892676 -0.3244264248767445
Ni 4.811949359364141 0.35114473730466533 1.2924287929870415 -0.8298644258452869 -0.3362113333268145 0.9057788177854144
Ni 6.145046567681559 5.905474418952059 0.24714429756302245 -0.7156354545956772 -0.21685661081486524 -0.30138214146277126
Ni 8.125283738326816 0.1417737288697895 11.286991120640183 -0.054444137881493326 -0.1685620374745355 -0.003527810647600376
Ni 0.5546307503756633 5.240315074534823 5.616648685184877 -1.3129633969969967 -1.4955304905013727 -0.3674384096618962
Ni 7.46335840838973 6.192964641387437 2.4426793775467766 -0.15277109318886592 0.6121822338053329 0.1594690740343318
P 8.70445473717185 1.739034349825766 3.5179536635867175 -0.1457183001071426 0.1452706710467627 -1.3247153953266024
P 2.1485334622122507 3.4052805990983077 1.5440451404326145 -0.3234985137458364 -0.08991122043985161 0.0892573889059366
P 4.781039468853867 1.181818209845972 8.054995394318249 0.6946480537107327 0.24990917039445992 -0.04978041385723685
P 8.953109456145603 1.918435609424597 12.646983486562515 -1.263837071783991 -1.925717958366032 -1.8337722239946548
P 6.45362620848749 7.930860253720192 1.1901810979946406 -0.4098235594963265 -0.3810578002175437 0.984815300294291
P 1.8296140849697855 3.069079741661916 6.018006279991336 -0.4031749438315572 0.9529127951587395 -0.9874792202796994
P 6.855673422719715 3.928115976689132 5.836554381915091 3.1248928140849475 0.4613752063213732 -1.1586123609155208
P 2.554233746322053 8.598369952323003 9.920824975525743 -0.7505957727209459 0.5975729685325902 1.347176809653912
