# total energy = -381170.04057648 ev
CRYSTAL
PRIMVEC
9.17664483442171 0.00000000000000 0.00000000000000

0.00000000000000 9.17664483442171 0.00000000000000

0.00000000000000 0.00000000000000 13.43094730464998

PRIMCOORD
 96 1
Ni 5.2656962845371025 8.872851718824885 6.150473479467849 0.29846471070566016 0.14110496970484732 1.1608492206658394
Ni 7.534896945447561 4.947459428666373 11.695453599148436 0.9207799191799367 -0.8406435187386619 0.23288383948105698
Ni -0.0428292353793323 4.958205279418259 8.097665683603202 1.5095347752002648 0.3900504906344573 -0.9654556648207566
Ni 9.361095091373175 5.159843689812086 5.537902173749821 -1.6577205630112934 0.14636467544188986 0.8304835474865245
Ni 3.673998113089432 8.5214137630222 4.575574073508138 -1.5149564604364683 0.5485147775533586 -0.10190773068009547
Ni 6.935588644077695 1.0313722560675644 5.092196219284612 1.5581980447339228 0.7362963253791384 0.30597104638503436
Ni 4.443955296254391 7.441111638287642 12.883622592083707 0.2443995534301404 -1.0876565985322493 -0.4750881850320915
Ni 0.9715588869806412 1.4688596076861555 3.4160674121172203 -0.28825331739029714 0.33761361299097986 -0.24678553716381368
Ni 2.1883360692575025 6.620581967083708 8.646776821695623 -0.9188773028405853 -0.32266187677715397 -0.3086853599924038
Ni 3.6682718868988458 4.626497109368396 1.2359389337328912 -1.3392071611848742 -0.31676042369105445 -0.997741778547972
Ni 4.1983148753095065 3.0026715053995034 12.716796700402393 -1.6748500236027284 0.4592291065126478 -0.7464696663677145
Ni 3.520849092424863 0.6439893836166016 12.898087736866113 -1.5466296231700332 -0.45436817887592074 0.2522954112384494
Ni 4.428538533433582 5.349726818555046 8.367439762013827 -0.7315618960179465 0.1762241820054836 0.6126931120034802
Ni 1.2827389032030354 0.4610593984387168 0.8047651135552029 -0.3750905268905153 0.6637264244312118 0.8668078358388556
Ni 5.892974998453292 2.4749685613455736 7.112921793752955 0.11282926268860567 -0.6432452737587244 -0.6904193603413659
Ni 1.8883515593692668 7.152607110714187 0.893379381518976 1.4139511869659842 1.084434749160842 -2.4730112048074635
Ni 4.859115871716418 6.9425720705697405 3.3526329390963143 0.6151333460138567 2.276437255501034 -0.20563863061185872
Ni 8.82561035275255 7.798440999882563 11.57668395957427 -0.7909716054348312 1.642989941669338 0.7612979896297984
Ni 1.2802061493110455 3.0192445254318727 5.294277861609538 -0.6058915157006145 -1.4705442528696804 1.031530702072959
Ni 8.367585670661953 3.3984877141792302 9.705792801764023 1.0930500016336788 -1.3182873803130715 1.135497115054296
Ni 7.104438903543695 5.045465992312943 9.142298191025569 -2.200294549600185 2.5011064203817828 -0.08174308280676244
Ni 0.9202522673787713 0.6198970210512735 12.078530789983017 0.9825000218975531 0.8778841482576752 -2.1622257677529215
Ni 5.268770460456729 1.0008782662737863 8.656366415235947 -0.4147557066906211 -0.3174098843495953 -0.4707211663126474
Ni 5.673075065432435 1.311975692695355 12.929596663545595 0.8404422013611333 -0.34116250668450276 1.3084829926281403
P 8.182722166480293 7.699149706000926 8.669326590314418 -0.20128909539391138 -0.37785986210553635 0.09690924902423956
Ni 6.800444199993143 6.629822848131656 13.368599996841564 1.0635815598609166 -0.14381671220905554 -2.542945467904756
P 5.057257980541954 1.9599752699742738 5.121999207744815 -1.9883492600440078 -0.8655953035879932 0.007528190056245099
Ni 1.9310321331071127 4.845442671357487 4.126860014963965 1.6673724842787605 -1.3631487596021363 -1.054704311975945
P 1.427739063519463 8.850093640375121 4.425738739185589 1.3484433350711615 0.5255473701239078 1.8705667671151849
P 2.1117936771810943 2.7224167812640885 1.7651349178528606 -0.06524945602711343 0.11085876922579617 0.12343326345669711
P 6.157344950896552 3.0997787578815257 9.16636577665065 -0.5159697537378016 0.11572741017200715 0.5592473334795143
Ni 6.173147132787881 4.73447868562581 6.880768287282916 -0.10472668818612932 1.004216073418406 0.19681511878295782
Ni 8.245334412150756 0.829935731853534 13.335318142437691 -1.5805018504374457 -0.503927734971603 1.4672421850796409
Ni 6.078269804928154 3.6297850397140414 0.09708155787732094 2.4594671475744416 0.6282940517655309 0.7310471611650571
Ni 7.594655254667266 0.5163853883474403 7.802117163683763 -2.0921107561033905 -1.2094114458452592 -1.6141007694388136
Ni 1.2862076748377174 4.935291198011378 1.7551562345842016 -0.008102574502476367 -1.5367002798714633 -1.2260523968360497
Ni 2.8719777339150054 0.6442233880522745 2.373019711206254 1.670688178915555 -1.6404792594323425 0.5688370340504784
Ni 4.3542627725576155 2.3788982696961414 1.6823606664719226 0.45353642700324476 -0.042246567374036925 -0.1109281890111509
Ni 7.14760583944196 5.569718518021264 3.7307813541505035 -0.7386864228778697 -0.04971587916788857 1.0853714020424985
Ni 0.12546033110550597 1.5264797587289278 8.567560355401369 2.00750449281622 0.4665546936397836 1.5792083284370029
Ni 1.397538726350843 2.459845451149923 10.456100035983628 -0.06630052299944711 -0.23498185966066626 0.25827913962571003
Ni 8.266963763322568 1.12704795200194 10.572720505407416 0.09006240130573522 -0.43661034067186744 0.76483171381467
Ni 3.9888487871263045 6.300785081641826 10.64522058556563 0.09530899441665522 1.662847599825214 -1.2367016490197797
Ni 3.7814657972528196 3.850685226989343 5.866570121464843 0.01211760919914042 1.2993288369326976 0.6220226169345223
Ni 0.1902254175841603 6.39767209465498 10.047987123525399 -0.05004240926937188 -1.3118110285601083 -0.8167011489904515
Ni 2.492743721812184 6.675302298453043 2.861865989300571 2.3849030990146214 -0.17193532482214258 1.6703611345934393
Ni 8.793299387340605 3.3356185224617536 3.7081499133953377 -1.556387216777429 1.6112509586948445 0.7030977271399826
Ni 7.429411416503992 7.223551749623515 2.044512354770615 1.514315998638992 -0.22519726947007668 0.8694640425147802
Ni 1.7079479044321968 8.860885374349687 6.753174386322745 0.8953609648861999 1.2020282660073105 -0.07613962057705596
Ni 3.6490192866619076 8.312801102780865 8.721788549463394 1.4725779954702574 -0.6091812421954799 0.9277175268400345
Ni 5.988265275317147 8.59976395407224 0.9325269471103868 -0.6307391708719137 0.8690575511049807 0.8413320601652542
Ni 3.193316295638968 2.378457790758404 4.13572465358593 0.2709485075632624 -0.030723140115469665 -1.972377824316416
Ni 0.26225932419993525 6.209174639236985 13.14015385476415 -0.06289072598694975 -3.1979375977867637 -1.816784945408039
Ni 6.3977271545221965 6.826625166854909 10.986340322251815 -0.6311096668374551 -1.034894219228553 -0.5926575335088439
Ni 0.9433315283873034 8.836117610746493 9.555433481038458 0.35608338966039316 -1.161717739313722 0.5031263221162302
Ni 0.39162615288449976 7.138098835702461 7.061185707186791 0.0963934857300856 -1.6408078464163547 1.6175460476749366
P 9.0603397433439 7.9780738166785925 0.5960524278884228 -1.7098874748228359 1.756381504619317 0.5460197790456467
Ni 8.907493551949024 2.649902936139071 1.5636708637052215 0.3847871853529889 -1.3964203771710724 -0.38054512224718334
P 3.863587589207234 7.994334830796731 1.4425914627012955 0.14739877313335906 0.5011514577780466 1.1156438277737948
Ni 6.311567638971856 3.79379003086493 2.459367347969587 1.1683663549784908 -2.874386376426121 0.3606116165480499
P 6.618590635219353 1.5547530005449466 1.524761890871752 0.25557331065877276 0.4852916079276546 0.5109285917694685
P 3.9869033384846313 8.623173574284074 11.080974469031332 -0.012298614861694947 0.4165289965409601 -1.2784458228361013
P 0.9245561136662471 4.418829643514288 11.77715418311864 -1.0571651148116117 0.699697186098866 -1.4570441615007164
Ni 3.13872443729314 1.524139714372198 6.373682510508457 0.9549064285500006 -0.12283548197169813 0.2467559694774589
Ni 2.0804095528673052 4.7254672206912645 9.87844769805473 0.18199656571288658 -0.8815415425046044 0.26873453063107916
Ni 0.5645159712753328 7.928437346382311 2.851846928795953 -0.9131892513168725 -1.4758417538231936 -0.8776460641049401
Ni 5.619272398516721 5.722335293302734 1.5709240835466307 -0.05585875884083283 0.4900581760783625 -0.5574565601276786
Ni 3.7666913995495444 3.04535207913735 8.261522930777058 1.194567181743575 1.3925557520093437 0.47069776927387974
Ni 6.57216599051074 8.762860457414044 9.752318389562536 0.09607646871029905 -0.5900360367255968 -0.6308062766644232
Ni 8.228394326336938 3.0287331758822993 7.00625339532867 -0.4736000305223392 0.5754054312966156 -0.7736966204044675
Ni 6.501267234824093 3.4264122435028734 4.996553559270566 1.0921280040400416 1.3726821530138682 -1.1049799203020454
Ni 8.05131261672197 4.677510076345107 0.98547985674205 -0.17279433038832823 1.1660762733927337 0.2307310548041123
Ni 1.536151942070078 2.9716544468671624 7.5913856162190205 0.6349987174792161 1.312236031912669 0.9195378192427195
Ni 8.825289170193784 2.911492365287864 12.613646627493285 -1.0155284131074318 0.5277821729916975 -1.179437268080672
Ni 4.60769416471373 4.023114377824459 10.651533199342078 -0.12169056973397752 0.19873598995475447 -2.128752832806456
Ni 2.09038456547815 7.784107081117026 11.801598011169705 0.34121547140962527 -0.5661183495677348 -0.2542679615837879
Ni 3.5089653377504897 6.994007163195117 6.730301599816277 2.3598842083727805 -0.4939130310480784 -0.047168173045370375
Ni 8.106289894138317 0.28364824728490007 2.889278461859095 -1.5628247448726569 1.9082750802992363 -0.4721419579195739
Ni 8.530067338819833 8.537307711358892 5.602316712407192 1.7147273194136405 1.3869201509901212 -0.7073397902457883
Ni 1.991552103823323 6.871847671129281 5.171049290455234 -1.4815694003355904 0.2985549564266213 -0.33134346371155193
Ni 6.513150989498465 2.61029653832085 11.300543125184433 1.203290420549186 0.42946601631760234 -0.5861462147528873
Ni 2.9373980328135443 1.1643968952642565 8.984926996209897 -2.4102881147466295 -0.0306128397898505 -0.030992334616456306
Ni 6.845446464798646 8.8377418768294 11.930266497205064 -1.16338150016939 0.05118295063171831 1.2351710713078663
Ni 7.454105766950894 6.619462416450292 6.403244153217357 0.24265428860425953 -0.34005641810451753 -1.3130847530662095
Ni 2.8069245007979147 5.279874200345525 12.336701001377623 -0.294697273243428 0.25810610438295545 0.9993734006141239
Ni 1.9922954120307548 2.9653500920707963 12.892177977784804 -0.29633326618495415 -1.5350241777206208 1.4212423213107588
Ni 6.799618301984885 8.058433692882058 4.274748065315934 -1.1074417515789765 -1.2987099724017763 -0.04801997952270439
Ni 4.4285660633671915 1.694687653077394 10.734254226184706 -0.723657039348573 -1.4065332972353584 0.270499850061618
P 9.395782807719993 1.3077085529860237 6.476684839440532 0.0974646073070773 0.06139254417486845 -1.2424892022358343
Ni 5.940133774724802 7.2196975589183126 7.894898545931423 -0.6584296948086468 0.38776477992407415 1.341052184813413
P 5.073518994660093 5.115456260190507 12.389162042862145 0.5144805707867849 1.9303778257355464 0.6397693993949821
Ni 4.4581423887073495 4.81757320190106 3.3766473001830843 -0.8923674294755148 -1.9651375978142347 2.022096531697782
P 0.011007385121166674 5.621695032674276 3.2597441901075808 -0.06443030255992774 0.3882432622223894 0.4389626429541279
P 5.415789482571118 6.290745832519228 5.418459886131152 0.21457064299416595 0.38771541474337745 0.3151863943357152
P 2.0618543776151177 5.071289070037797 6.875113638919713 -0.2100115628685738 0.29257637024568317 0.20530567275247225
Ni 5.24860019576617 0.7175319305941271 3.3016759496512735 0.5019245884986453 -0.2742395196097083 -0.7333051039612983
