# total energy = -340860.82808315166 ev
CRYSTAL
PRIMVEC
9.33968273335207 0.00000000000000 0.00000000000000

0.00000000000000 9.33968273335207 0.00000000000000

0.00000000000000 0.00000000000000 13.66956974986050

PRIMCOORD
 96 1
Ni 5.277210112460968 2.381992611170087 1.2574621557159715 -2.915258174939818 1.3281745575197963 4.844228835915193
Ni 2.07446488725228 6.578367972503161 13.235710431837923 -0.2724130079239308 -0.2585542476639676 1.5883881951640582
Ni 1.4595962330655976 4.410375505231051 11.800611251861403 -0.9735543826684911 2.3666816909105886 -1.0684627992126179
Ni 9.27224059961115 0.9856353679501318 3.3152398323409873 -1.2166413879347948 1.7079437208329038 0.16887545494989625
Ni 0.5452403875793498 9.315473989656265 12.084801911249995 1.992182260636853 -0.49491807527382503 -0.204823333799415
Ni 1.7938821471927924 9.06521719850075 5.219082730818327 0.7250845158237189 -0.299821996064503 1.06174502087281
Ni 1.045670846716605 2.0019982911494383 10.938922809659537 -1.2089000534264793 1.0850096478277056 1.444684354383783
Ni 5.160809650129519 8.308964431438078 12.335733961446397 0.04791430718277554 -1.3412653292654835 0.5872427902511758
Ni 6.87253995052239 1.239749447956075 11.383894234429134 -0.3415898240299085 0.09142842841532642 0.5386419985243368
Ni 8.311308691732163 1.4334824809450222 9.159869276287147 1.8850040255864373 0.5367632934443853 1.8801091593879815
Ni 1.5796578509160975 1.3764263608790008 8.028452672965184 -0.15298372342030428 -0.8285063691554957 -0.9223770884637276
Ni 3.6023248593197685 0.1769748407750887 4.014410328226789 1.6121467310362365 0.3429229410190352 -0.22527157435143783
Ni 2.9743432909781187 0.9252963495041455 10.040380914491804 -0.5649099310819303 -0.18037857049348935 -0.4471842595329718
Ni 7.385073704142139 1.6334077233960371 7.210807371276552 -0.9999305586691746 -0.39876575902026806 -1.5149081236970363
Ni 0.7951077139768432 3.4092829628318664 0.04223404402333412 -2.2792636692062356 1.5169120415009425 -0.38252538590200574
Ni 2.1107588932396033 9.021152576717892 2.147256504304262 1.886616621489196 1.6625673495806335 -0.6091694151209379
Ni 3.960408284320792 6.2743706485501525 1.3868597201400503 -0.44422594823559625 -0.8590006810896109 -1.9055584526990215
Ni 8.119807842847944 9.202968174905031 13.319874046236835 -2.236096646900459 -1.5834861298767502 0.02639185972996745
Ni 8.373893903806547 4.744222454283257 12.399789239537867 -1.107336850569996 -1.3705327107710332 1.1311758619711227
Ni 3.610693214791884 1.6277945742456559 6.086048093602495 -0.890944323875743 -1.1207711216980312 1.482150726760357
Ni 7.055504329650456 8.303454018794609 4.450005645788285 -1.4601870780050723 1.1204816154820703 -0.26174652934902015
Ni 7.858446169263472 7.375780720107814 2.5508512678991173 1.0589931691592858 1.0085802639243726 -0.5276662162391236
Ni 1.7075741417041521 1.2160640132716043 0.2878443431616864 0.5574704440847496 -1.5459925038066666 -0.703982186627465
Ni 6.538515547503699 0.3999588252184102 2.198518285380439 0.706977521810363 -0.5681870591713054 1.5768341717778716
P 2.5396277715030884 8.709067087766165 12.91345122679716 0.646781311936441 -0.27698777177880685 0.5842222582572971
P 1.4462685062143597 6.01159868291625 9.20853275770669 -1.3418080891428312 -1.4292718764834544 -2.234412060109184
P 0.6625654784730083 8.5613693495563 3.5419223310331454 -0.863409608790584 -4.258007287839679 -0.5270203551250086
P 3.217259091730639 8.802884197941836 7.199803357418018 0.7906810707776061 1.0955465428032873 -0.5645548617353567
P 0.035867182499515704 2.2797230883802797 6.565986355483759 0.9340067022828559 0.12416114276165713 -0.4098613547127974
P 4.616007293656913 4.373119511951732 0.7496309322080642 0.382250020753432 -0.8081195779690277 -1.1079053214789565
P 6.9864653970055 9.120937743976913 8.629735825065103 -0.6893232990637097 -0.43750534168231103 -0.20921272111636227
P 3.287885770391509 1.7609410872037832 2.5458620095361657 -1.3919751969155252 0.10635008272216523 -1.849332283216441
Ni 6.497476982833524 3.6763511823911847 8.30988158825433 0.051848866350491345 0.10684142053628695 -0.5048623309707305
Ni 4.353749010557571 2.496973441769659 4.142659111709942 1.1507483847864117 1.5696415106841741 -0.22000904040091787
Ni 3.2963195036407504 5.352263800601507 9.882592583366678 0.11719653851836591 1.014135389414647 0.1765234584134573
Ni 3.1348363941397666 6.021573463769174 7.4328424439833025 -1.4048124578895096 0.668369579630178 -0.7648324851456182
Ni 2.244680599840795 8.027849329479137 9.00093309818934 0.30470323541620425 0.8261630657342998 -0.94762300751471
Ni 7.678563885342769 7.611906571721687 6.546357144885828 0.07923651433482483 -1.130757800597098 1.4202575887999864
Ni 8.216641670453853 4.172054828242237 5.681223293829429 0.4038089778711304 0.5027005474327214 -0.08672665206428289
Ni 3.158717962155615 4.1563268030022344 2.2491496378914726 -0.2724842274814984 -1.2562173504552043 0.9959592327262524
Ni 6.01189755275454 7.397925107188603 1.2788855193118858 -1.4041568265833815 1.3420813974088759 0.15452150022106936
Ni 3.7507977911726966 4.865040586411929 12.30023382846703 0.2989984717219431 0.41009892464490016 1.286817077618932
Ni 5.222162024120957 4.223086853130229 10.556775692834957 1.169094491393767 -0.33780875972092145 -0.16735567587126018
Ni 6.0356110064863495 5.094002901589292 2.3993644205206843 -0.783720837409689 -0.3824492812484317 -0.5159615262076855
Ni 9.140579096162027 6.935274597515918 4.712242447617999 0.3110723721673417 -0.734929784048915 -0.3872983818106169
Ni 3.057027499677494 3.190500901521251 10.699527135221127 2.308364186116618 -1.0787397556585938 -0.00824604205887612
Ni 5.698299035246471 2.8644992857241527 6.277393903758103 -1.1129683378241606 0.0024595172840860867 -0.9120008874357262
Ni 8.30027852676278 5.1687297008442 2.708324851725793 0.7843949806585782 -0.719518334589851 -0.15390083591793496
Ni 5.738254196752845 8.794982826592049 6.668740607792543 -0.982739905822501 0.8646776768697302 0.6970150112810125
Ni 8.562546149544568 1.4223495794687253 1.185112305643712 0.1667787203218676 1.2198159290080348 -0.7899670754297169
Ni 1.456626214047592 3.4024836740107722 9.176587307866484 -0.2881083071720006 1.6994328551484152 -0.8343767118933438
Ni 5.931856474187541 5.610076394856286 13.364929608327275 0.6924361336610785 0.40757127312704006 -0.9944993603512742
Ni 7.517276909173164 3.7135231185284847 0.7018519187162087 0.9736937364598327 -0.0832669756504566 1.7290103116952158
Ni 5.8789565128102375 5.40198826994698 5.916969020367728 -0.6515345103507102 0.10026633842193054 0.9014717057696282
Ni 4.776024073013787 7.576126248268924 4.8088315755438105 -0.04858613643881955 0.14612324885504513 -0.045785947985863086
Ni 1.7837766107856168 2.0479682081513957 4.533444500829343 0.025652667571097756 0.6130952325379054 -0.04032441065065959
P 8.590387742917756 2.3213967514568203 12.491895319889332 0.004227407817786267 0.0015022955771393483 0.020018352103455848
P 4.148453450699786 7.903426079926094 2.599856581696206 1.1043767395004076 1.159612777155577 1.7575523849989665
P 7.603033873397457 6.941494826025326 0.07092648246740416 1.9062089417988266 0.1953896991903409 -0.04291042621028094
P 6.394749815603835 1.158484870988576 0.23276263196486743 1.7937877131819169 -2.1047276735364524 -2.4320483892418565
P 8.573557635149058 2.968972973571348 2.886206575666442 -1.760124773711833 1.2152848739069004 0.18259666119073067
P 1.919482196734101 6.571484626540047 5.352033110445077 0.7658020481477391 0.15008609015753507 -0.3087426955929005
P 1.3950683670423303 5.294600601176459 1.6811250949837453 -1.1456300897232399 -0.3987971264788358 -1.006715185691176
P 4.868552307011834 1.9092645841375666 10.446776648852381 0.9697959440673232 0.30317471458681977 -0.2914787663061303
Ni 4.1864846376221685 3.6914814679546084 8.114283420680804 -0.6646054846020555 0.04867843904230971 0.8581622443487157
Ni 4.820144732891325 8.962667485237546 10.023498504501406 1.791012464429625 0.027555798131081576 -0.9242357389390212
Ni 2.1388619977212957 3.7181089026097447 6.769088957903093 -2.6628912870334847 -1.168454286706607 -0.08924170517665275
Ni 0.4764807114395471 7.793927642922651 1.2019134603968247 -0.8906337346138598 -0.6957299739210018 -1.1480669812995066
Ni 5.871157877967361 3.2121316060674787 12.964342222480209 -0.3750403903788702 0.27629665924905317 -3.564651984798442
Ni 2.3457546432774428 6.760361024656785 2.925534110512408 -1.8522481713116552 -0.3920322969511764 2.3817861506521947
Ni 9.046014811390629 5.272465553778117 10.38557837962131 1.542845730647569 -0.5711204307680164 -1.5189025895684098
Ni 4.485513250513608 9.30303353263745 1.0096504934249657 -1.1506188011870828 0.22669802238531922 0.35423476648742863
Ni 1.5661993685106077 6.929073048371404 11.046474856841119 0.6172794458225821 1.0379543462111158 0.3252298946146463
Ni 8.909926298461835 4.046109210450406 7.85558729246658 0.38022707678613227 -0.40379715079658846 1.6268812090329337
Ni 8.723011233658875 6.899522293110495 8.661600019668024 -0.24332071854366483 0.9112344415833469 0.2516256388649344
Ni 5.020415543592863 6.434013840609164 8.520570814725001 1.7326129414448097 0.17509109684230492 -0.030980250431598258
Ni 6.653188168582535 3.465208981321854 4.257427931517976 0.03940061328480956 -0.196451564795952 -2.1590409422670365
Ni 4.515839199417582 1.1675163439143974 12.74502779927014 -1.333308536312252 1.06707131818173 -1.8693367513628256
Ni 0.5102614088805018 8.354009719877826 6.824791757982608 0.5120848168610987 0.418442411513589 2.1411828310396928
Ni 6.9831124510071865 6.194600420774102 10.032794290440464 -2.0008131968389735 0.5256165327989464 0.5983270730897953
Ni 8.523375521363704 0.35792465039943244 5.534767733384957 0.3214004935662271 1.172749057427219 -0.08767333224826837
Ni 0.6741933831189726 6.082300079036693 7.015441761795946 0.18903547483753894 -1.695293893279377 -0.6606117900616301
Ni 8.25838071130752 8.6197050061175 10.432191800743835 -0.5325551689003086 -0.16134340823890925 -0.4296495930833181
Ni 0.6362182342912688 4.257905189290996 3.994698928423329 1.5483139528509917 0.2566356904850161 0.3868139859750306
Ni 8.911691498444235 6.973118990789371 12.09078864769824 -0.657013016966778 0.8329482069769332 0.7726427252186565
Ni 4.780665895189727 1.2932564886924043 8.130413986234254 0.32875693393129835 -0.2283934078098712 1.0331111591862017
Ni 4.239944979946266 5.450096974229199 4.076114808246462 -0.46644927841017086 -0.8738490589563531 0.28405984813423985
Ni 1.182366439004424 2.656588614781331 1.9821561357917266 1.4612258036822316 -0.06632212026600191 3.3906361232981865
P 5.9424570137643835 0.9294590459705763 4.988134799152826 -0.027927836758519644 0.3781537391968713 -0.2226487920166101
P 3.8886141453541025 4.473493079204888 6.110816931450767 1.5236663295056405 -0.36827504663057864 -1.5611278167862084
P 4.789958879224051 6.956018032229723 10.621118633145784 0.35560002226607146 -1.707384505895324 0.5928729919537596
P 7.3131301302563045 4.027719375713134 10.154699561605913 1.1758279534628588 -0.22811572866845228 1.5393359177220973
P 2.5217702986652704 2.807443165658132 12.70967896914641 1.6265456800703857 -0.6381750583246687 -0.10007633389831153
P 7.363676491657076 5.589445036331841 7.427811157049342 0.6586284410830141 0.35908926636625255 1.0618373234763003
P 0.9086082049086361 0.15003079088501428 9.939472183434459 -0.931437398893783 -0.5981589229430473 -0.8285225671054118
P 6.855084084029773 6.128456789687581 4.2342991419073215 0.5816820083339467 -0.04608059640814644 -1.508767558016937
