# total energy = -340862.1962191505 ev
CRYSTAL
PRIMVEC
9.39258076642848 0.00000000000000 0.00000000000000

0.00000000000000 9.39258076642848 0.00000000000000

0.00000000000000 0.00000000000000 13.74699136828426

PRIMCOORD
 96 1
Ni 5.324315802343286 5.26656082430868 5.911068433149309 1.8049064488028979 0.5832390684084213 -0.34050636115774263
Ni 0.9828584178723753 9.09243128257149 10.484500015946367 -0.38694151269183036 -0.0012354150689978724 0.3433602856667699
Ni 8.052747752142704 8.843584252477351 2.2954724942805695 0.36008222640714116 -0.4216681175397383 1.3623555742768794
Ni 5.204513436945433 2.690739523900429 0.7684690089227747 0.5106627397025915 -1.6936280755411801 0.14282220950627014
Ni 0.13947418618101767 6.876552455450304 9.667090026612613 0.33524228454532584 1.3592329694874978 0.5235095137582726
Ni 8.007607009837562 7.561478217076509 7.386107466404898 -1.2128626376186533 -1.042379986082637 0.4438120006266292
Ni 1.3212637038715325 2.0955222994686493 1.0357245577110124 2.4646934289703872 -1.0196015547355408 0.25790273012289777
Ni 5.470802489191183 7.5910930236699565 9.016884878387403 -0.4997797742415005 -0.4813038269245001 0.12339803934338749
Ni 3.738650954924159 7.846402149208525 0.04315984705916699 0.19514107351464458 3.044539926757492 1.3992300787057257
Ni 3.280837791911838 4.519615853060992 5.989674000830852 -1.8781579491988816 -0.13705676777740267 1.3915733334914164
Ni 7.234870012295675 2.2756626025627638 1.8771795533496285 -0.4342693512435167 2.037482270125233 0.17443957930123505
Ni 1.372791400976403 1.8012715348129111 9.405704840691772 -0.20696326296055326 0.9312031713957898 -0.2087740909170469
Ni 1.6112690221015689 4.246122691504372 2.9790964442373005 -1.718505298398834 -0.6195119346975266 -1.4712590195485178
Ni 9.255984288347484 3.5706082956271787 0.30057009287523473 -1.5880120427715618 1.532009559264013 -0.5167876216534067
Ni 1.6939237312745292 5.434443809735668 10.87315466883239 0.3002320870187281 -0.1812478604723201 0.1989185382792058
Ni 8.623544267046109 7.71675635935462 11.724465299281823 0.024545036329215793 -0.08760648356607492 0.9456563707066423
Ni 6.234794994205794 4.42615967621202 3.6253980359702043 -0.7497339389412829 0.5461192807379885 -0.048718805361941904
Ni 7.3183230908186 5.782110180194432 9.628392594590725 -1.615237197036102 0.7881634465620748 -0.8770891631602056
Ni 2.220330910319819 0.4150722250473718 12.64116895429989 -0.5068371953089142 -0.2133686522662648 -0.8290756113954045
Ni 8.119669888831037 5.44958464964326 5.431738746526371 -0.7450563309599555 -0.6260139974821024 -1.3542175185507774
Ni -0.17044528141134938 2.192650975327466 2.935367406794511 2.0863977648790133 1.5749253847909326 0.567298485918765
Ni 2.936740602076452 6.135327565780607 8.848649671188372 -1.0955727680555325 -0.0423308995577271 1.7116399387375683
Ni 2.3409504302288147 6.727135283459003 2.0439166439449 -0.2982145423680671 0.8217104292795848 -2.3056786688646547
Ni 6.24353948673307 2.3173280900504056 12.310182867707065 0.3363512013387885 -2.749459816253349 0.2563718953006682
P 8.512467609014355 1.2405438662996666 10.600992435945068 0.35385604299177126 -0.002680375045640545 0.3739836669795817
P 3.2213076161461314 1.0811048108211438 10.319041255569099 -0.55969059166452 -0.43270509208019026 0.8268539211537373
P 4.028139681221865 6.682116644701503 7.272735261677477 1.358059775115003 0.26538669720476876 -1.7652361267964696
P 3.9470253552653096 5.079667255771912 10.654344172200094 -0.027657870926584626 0.08260285970389644 0.2668128881283341
P 6.394760034197236 7.287872344552834 11.117741224371885 1.685908338299419 0.581096825254438 -1.0846378663105836
P 2.0164179857578914 3.876111371827145 13.195104847790072 -1.2878691730325305 0.23226754605329675 -0.8130679231132385
P 7.3627406044184776 0.34392248783645235 7.114700396996836 -1.271898765746203 -1.4789574166340398 -1.5659812882237676
P 0.41918805386096164 8.36315375540952 4.242033161916428 0.5980118558422216 1.70848853759278 -0.9323694237897492
Ni 9.215521051175084 8.584705946315404 0.33946101205723 0.6203709402637122 -2.5359181287443295 -1.7822231482727695
Ni 0.5803666152643516 5.341964461267831 8.050801609444903 0.09135515197522977 -0.6091370192211057 -1.253797685270118
Ni 6.8618718519915145 3.2132581745823554 6.081146464659673 0.16189208165352764 -0.015100860197180443 0.35189017751465207
Ni 7.742435674681764 7.651553064913859 4.4393158638414025 0.010090037246150364 1.0255896539981757 0.8134844418253667
Ni 6.296213078669656 1.273070372875344 10.045599753205714 2.0280792316437783 0.5225330087776161 1.4797727134464838
Ni 3.452628090863366 3.441638771575597 3.8829886193335588 2.4980748326443107 0.1078400370041304 -0.17329929504920477
Ni 2.9812802192239727 1.8230435366155158 7.584792480611636 -0.2639003424672294 -0.9898572335935726 -1.0006360693766316
Ni 0.9010997608874948 4.435279871962809 5.607383760551147 0.3049996836107005 -0.4318903094883788 -0.4338973126160785
Ni 5.017732579375719 5.922144164178484 0.9357179951600834 0.4776795999083515 -0.40266200875088076 0.5621213125931996
Ni 2.656550530560705 8.910713025938618 8.638389240665184 -1.0414839566309289 -1.2174024344705356 -0.26933076945418133
Ni 0.7580150667285127 5.954661278173574 13.158015425564821 -3.4050911223812514 -0.6238481001790352 -0.3371194469633807
Ni 8.271115858229312 0.8646866044645707 4.452457962599903 -0.3008805192360044 -1.2246598873638974 0.34341556438473764
Ni 1.7349317381210227 0.56817504566134 3.270464625910632 -2.337084436869446 -1.7501293530620181 -0.26320717305494673
Ni 2.50480399858362 1.6696251252937964 4.934950131106764 -0.1310252168713421 -0.3017222984110094 2.0492905756140707
Ni 9.426769581176114 9.156488682180532 6.241092719489939 -0.361363664222726 1.433331391264809 0.42472798741198464
Ni 3.7273235027352287 1.325377654169005 2.5726259444922692 1.1537717449937677 0.5989145701621491 -0.375661826012953
Ni 7.611080435160872 3.2500113424225594 8.883883119489463 0.07496154110855477 1.2188237402980946 -0.7294368792551437
Ni 6.9252717709594105 0.5338432850966804 0.3452327528284555 -1.3755324779784697 -1.0996243124170868 -0.4239422582858957
Ni 4.496153186752577 2.3911255957290365 5.94036389200277 0.4442938253590541 1.0518267333178337 0.0653831533915003
Ni 5.142118524100436 4.171216861316377 12.611063854999756 -1.1830548102286012 2.9790644707625016 0.17863587677076978
Ni 1.9130714215499276 9.043834070610023 1.150433326656082 0.7021214792696425 -0.19118851662479974 0.6349357254517646
Ni 6.095409098282302 0.9137046040363711 5.395749195487958 0.31020976705673026 -0.31975498754300413 0.13140008371225756
Ni 2.4075344340159868 8.042378343173732 5.350974763825742 -1.433871322928679 0.6490431113874242 2.359827901213549
Ni 3.2992190721222343 3.7745963608338093 1.1056645305422186 -0.8106238324481201 -0.4443699300126282 -0.06346742442602617
P 8.820750889068321 1.0445676723344604 1.136336941709857 1.4277664955825218 1.0944666794755473 -0.3472807037670987
P 5.9395486160077455 6.6164437212313505 4.36454622607193 -0.4227029865621558 0.08041767912711957 -1.0594816787599302
P 0.29299873366337975 6.042275269896912 1.4176034029609705 -1.173245023227031 -0.2334062876434303 0.8922941530354181
P 3.928813141505495 0.05357997596331268 6.074272974185495 -0.9706289814915801 2.001617180797508 -0.08027215468819078
P 7.270176722725351 5.081573949631243 7.2485963295667375 -0.9919174585567111 0.08095606812909283 2.232266217410775
P 8.829232389339138 2.8238605685718348 5.171975659273051 -0.5358652071101482 0.9667743836321803 -1.469609913980869
P 3.614396506327672 0.9430526613411246 0.41627917165290873 0.18811527701611472 0.39864903093674564 0.10826761145985224
P 5.557655681886906 8.153426823463722 1.467064732336517 0.6051775203527255 -0.28569455552418543 -0.34095656132128377
Ni 9.209500407018282 1.2583146287718532 12.698205399919527 -0.4449736250348982 -0.293069764942334 -0.4815087438464547
Ni 0.547763089527854 2.092009474328799 6.764495212005181 0.4277924852699213 -0.5014810732033234 -0.5029928818621596
Ni 8.54097409109844 4.629565401422204 2.8768469334419957 -0.36601376140022773 -1.456733572238833 -0.6141879513814519
Ni 3.642555462930005 3.0723600731842216 9.461091949160185 -0.5157576377269956 0.7774208633335901 0.6055737273498796
Ni 8.62639961154481 1.2369652930957011 8.42921459245795 0.5447522251871328 -0.9423435042833255 0.8619276249284189
Ni 5.525833618855317 8.135186431962143 6.480895633736048 0.8704181788979333 -0.6795695621110555 0.01942005639782462
Ni 0.5215061304945574 6.900494143368698 5.905019611250741 0.0970437177195748 -1.4348038620452774 1.130986628778452
Ni 6.056674095938065 0.05445630373215781 3.226185183245395 -1.0523023874026716 0.27022139958925073 -0.5846534322574447
Ni 3.6653982189196235 8.530097482777725 11.189267604064376 -0.14483409772997635 -0.5761160842103948 -0.6329346358613358
Ni 3.8189950892725117 8.39792508874569 3.8867146560527535 2.703108482682319 0.5405901233896432 -2.232349006932568
Ni 5.773854101857723 3.848553540382433 10.33399800089717 -0.5506043130925355 -0.05370674549483654 0.10944929047277925
Ni 7.526866557610332 5.399559765432444 12.452381841516614 -0.17155994376059486 2.444289925613371 -0.052490870809864434
Ni 7.188649123222931 6.556312420308021 2.165151377882398 -0.4166842911719017 0.2473671206988966 0.20641201844277351
Ni 5.123314577763587 5.03730671732077 8.264443368979713 0.49257245785978393 -0.5785092670329198 0.6625956532608782
Ni 7.897093906641079 3.4898602803135494 11.370933262245954 0.9376234730998368 -0.9286150989536394 -0.8470856748195797
Ni 2.889439566236108 5.936618130864341 12.997876622832505 2.1701295959810305 -1.3124507190266363 -0.4478247213304481
Ni 7.649355201056306 8.53228595405469 9.756624801066163 -0.13317774443797065 0.7554371599736474 -0.5179836988440369
Ni 0.7586847577244255 3.169141223561288 11.579764142003674 0.9725092292334282 -0.10525196456198002 -0.12861815009174624
Ni 4.710952112215807 0.5070894585502873 8.726644745642671 -0.2569989873617058 -0.45576557344407953 -0.9996837327656912
Ni 5.770491558007278 9.124610263665415 12.18390337873584 -0.028189832170654676 0.041367250092877145 -0.2874896997513952
Ni 0.39451186614059786 6.3458434744957835 3.568705358800083 -0.6569592809107072 0.6417828302805849 -0.0930407672077688
Ni 3.639117778434857 2.4729819355520304 12.419306808234607 -0.8359895649064183 -1.0766818446883006 -0.4416355618006007
Ni 5.068555832936501 6.636421740141678 12.485361070476625 0.46785207229496845 -0.9170302223295175 -1.1695207802979084
Ni 2.5343624496935413 6.0214237409919145 4.097043652414232 1.9958427402075756 -0.4433520302710751 2.9806919790635957
P 0.6502286296766786 8.117312351103491 7.984596126655421 1.3489788958596576 -0.3982001163247852 0.5346544746314986
P 1.7201666014369439 3.5520109860632627 7.625497107105143 0.9197795029398803 1.430874445083884 0.5922358725903929
P 3.8465529207172238 5.161965046882535 2.5452136980466684 0.17219757734459373 0.5239625421352911 1.3218015641139171
P 5.69903280489502 2.33259103350564 3.3694840282417795 -1.298044056683003 -1.0941018399369609 0.712168064872367
P 1.5555616266351113 7.646593782363482 12.118357255103623 0.10903174331938642 0.701926846760333 -0.195225919918967
P 6.985853915750955 3.9027111600518976 0.04160443571382128 0.027366564938410932 -0.8824388575078931 0.9750937021311529
P 5.527035869170559 2.5230537826657864 8.413983583776714 0.12950980866808018 1.0881708191645065 -1.0373799617648842
P 9.07814516749739 4.794114020740509 9.994309688389716 1.794063078330491 -1.7243830973358494 1.132961750226952
