# total energy = -340893.2904858577 ev
CRYSTAL
PRIMVEC
9.02849485789820 0.00000000000000 0.00000000000000

0.00000000000000 9.02849485789820 0.00000000000000

0.00000000000000 0.00000000000000 13.21411483878407

PRIMCOORD
 96 1
Ni 6.304318193722369 1.9792266797291842 11.329980293551362 0.8100569042010565 0.6483666541456897 0.5489048139029257
Ni 4.547219577132393 0.17562228525723972 5.996327337181279 0.007924397053399257 -0.89629273267185 0.8654986301091288
Ni 2.940246775844564 1.6341937137929992 4.916298133872897 -0.6930017763565612 0.9118584483205909 0.32625113679030904
Ni 3.190128432695511 4.407611958536222 4.93581593442138 0.44773139028569336 -0.5754319136591767 -0.3298907904254254
Ni 5.061094428560848 4.411385869457337 2.716796038183961 0.1875915433021608 1.211934726487745 -0.15747106976769654
Ni 7.174935969136498 5.934023498701784 2.387063662769339 0.8396320467550121 0.5417136954711251 0.938497648174674
Ni 5.369805759005059 4.5349137384111495 11.318352494806614 0.36521851919244197 0.8877774961119872 -0.26929374556865876
Ni 5.57338929335965 7.922757183693967 12.266438368946902 0.37425209014962 0.6053515840367446 0.8645866598178208
Ni 1.7541011562411486 6.727059416352419 0.5460641447467587 -0.16537515510612164 -0.6612288548203387 -1.0244182593978939
Ni 2.808638403841953 1.5820360980243853 0.5155595686004171 0.7381488052068449 -0.4006316085844132 -0.6486062809603217
Ni 0.7498192205068546 8.999396187119867 4.621174688443704 -1.6515545434098975 0.8720647133624205 0.83123430960962
Ni 8.694359454151478 2.5808223888359936 1.4548480771867933 -0.15880110143302975 -1.072289886268192 0.3031641730638585
Ni 6.899142531559236 0.6212669940707448 4.694354252032231 0.1845098190530435 0.40756510247945293 -0.8234821764680269
Ni 0.9806480443031877 7.432546017730206 2.7122366481955327 0.03026188420833498 -0.8039888436301058 0.1679020352930334
Ni 7.362322383413384 3.9107648487279167 3.791261882856959 1.1218795242708612 -0.6303031117757597 -0.5557503760698493
Ni 7.576523427919246 3.8785150644929356 12.408278734363147 1.1215781909803586 -0.14154514256605946 0.503803550688913
Ni 7.74765855114827 8.643167887350709 6.560556813921538 0.25029329320675603 0.9348690502831514 1.8295846682758685
Ni 7.039996082469075 0.7951169857542648 0.36326691449188747 -0.4566965698987812 0.04352646252772504 0.24195263455154462
Ni 1.741407092233762 6.325508071549777 9.408370760533371 0.34754758427524013 0.7974780390947814 -1.1365623230940167
Ni 0.29665648388470756 4.816187472469552 1.292770340168445 -0.2799710227768469 0.9501010367415573 0.8038019244302802
Ni 6.344305398195139 1.8446930753379582 6.729763450612883 -0.10993574319089452 0.22831781737692936 1.585702935022411
Ni 3.340281333482739 4.4435182832569735 0.6526717111712375 1.371996182690437 -0.1368942740576094 -1.2122018641062025
Ni 5.636047048844189 5.603309725877771 4.873326108944336 0.438088982099923 -0.08759954158753945 -1.0340994912413994
Ni 5.259531720750282 2.871440615246917 9.12075180017028 0.5555318323011401 -0.384935280895079 -0.05669051071350882
P 0.14796890784029548 5.619461703480342 12.493562801233825 0.2824022579261588 -0.14461966772632515 -0.3597832071094836
P 3.9954972745524695 6.037345595786086 12.563769281410096 0.8797654244407881 0.4299488694912918 -0.335578584838822
P 2.5661239989327043 8.527431609604843 1.5289259760304665 -0.1525947155120017 0.907673977925598 -0.09900186988721014
P 6.140730892335575 7.511671748143246 5.654002919753072 0.26483905223141485 0.744589418625866 0.153073197810317
P 4.645765600347628 1.1978104351777707 12.48189437426146 0.035703624049196574 -1.9792097596365852 0.8040428367964927
P 4.123963730285827 6.156178647326072 8.151642172511076 -0.8857113576115778 0.662984918279497 0.27082689438373353
P 4.882357312519435 0.967674096949977 3.9949709132924194 -0.7369702115177115 0.8635394495002289 -1.392302241237641
P 0.09922677174024098 5.442656685374619 3.5757002441505907 -0.26897210056318194 0.012966073242364765 -0.6935406795791669
Ni 1.716470388970319 1.233834130333867 2.7506366432426272 -0.86495329912862 -0.3290215004465947 -1.1240608481928964
Ni 1.5250392089215192 6.225499432140233 4.933859459549117 1.205734511214304 0.9174130595902329 -0.7074436628135042
Ni 6.08203664616771 5.512338609989844 8.996182945739902 -0.0335994332220002 0.5086644783256401 1.547163641296632
Ni 8.797753779195991 2.17268024266394 10.114731320229732 -0.04017143001256307 0.18552514769143533 -0.033752156749780576
Ni 2.4242411995898334 5.056724636967979 7.179717460102579 -1.21875894849843 0.48423848407279185 -0.044620724033168316
Ni 0.5780665482180116 -0.12792113463375113 8.999433203949474 -0.18235446327293756 0.5569677934167182 0.6176789952538458
Ni 1.6053386436880155 1.0264315425830284 11.438626494152844 0.41835345134420854 0.7346852721382767 0.0009618496926370532
Ni 3.962245327369536 6.801625756777031 1.5135314891606266 0.9548719757676394 0.0849721312670214 0.10011721443857595
Ni 5.628652711417411 7.71678109815733 7.8912188448670815 -0.31270579400570664 1.0371259367725492 0.07814019594685251
Ni 5.175476432052724 3.0346577483376214 4.930133399651644 -0.3517605939153232 -0.5871090928867889 -0.7263266157609362
Ni 0.6257911729285693 7.461518458270535 6.757077356616827 -0.24231644564886656 -1.4009398623079807 1.6332850556767484
Ni 4.919220657713003 4.525226163247618 7.057196268344232 1.2074334961832818 -0.47932613437283905 -0.7538536175366114
Ni 7.98842142802236 7.256418136751477 8.96272424602086 -0.27240889415887276 -0.5528928520163963 0.21272330537278206
Ni 4.61790366469557 0.5771934927489404 10.329037998127403 -1.4937659424017822 -1.3695775459466153 0.7857602364372209
Ni 8.201114713858782 7.163876062728924 4.610497590225258 -0.7992790968592621 -0.2949641537515694 -0.1883407627633595
Ni 7.229856304383247 5.98381564877343 6.824178937353453 0.33321214148917455 0.25736459823124064 0.1917780705796826
Ni 2.419194270869969 5.151451606786966 2.680654972592519 -0.7777036846813317 0.7854398769833247 0.7092310937312302
Ni 2.2415134887466666 5.303572719489991 11.5566686495285 -0.35783379669259663 -0.25973978333163655 -0.23342994179251414
Ni 1.1571551220730334 3.283194159429607 3.7492541011972382 -1.1980895930745366 0.813764949180263 0.7877713533299787
Ni 3.8721499754991893 2.493291129553198 2.6328861082563306 -0.4213202472820163 -0.6696471607910209 0.16245592457679764
Ni 1.1035168331200587 3.4257902098795783 8.250444604985066 -0.7913246178988759 0.06554564711129356 0.12861223655447526
Ni 3.5652894865354288 2.684406312276067 7.084562539619331 0.10512880872055443 -0.7351187601312694 -0.17081638072635097
Ni 3.6977104230904327 6.602547441440708 5.959460380589699 0.6446375261205608 1.7241085035182242 0.17324350211060488
Ni 0.6591424335567949 7.434026690914567 11.37592630474168 -0.28741976574540823 0.18604862429507313 0.2493126744610416
P 0.21085237570049875 5.580792659281454 8.0485322450599 -0.501768008316123 0.13918538408463127 -0.5514113823748632
P 8.17641275146603 1.3981707968078685 7.991870313122519 1.1504701914243607 0.3134748109612472 -0.9116031377766753
P 1.906664665200476 3.30969279233265 10.402851362066798 -0.2134226454326518 -0.15807630745186324 0.3512913675883886
P 3.8877060724300048 6.39029655186059 3.697679726207342 0.06640902355285337 -1.0210899663556092 0.2897928939632751
P 7.136709321193913 3.691417562056899 10.201045538382944 -1.3879951292218549 0.6650011773785773 0.015552860132934505
P 6.144197834425785 7.6369601736272426 10.182982228383242 0.781599677301628 -0.3841678066014352 -0.07562308595195363
P 2.3083333804384636 8.398667213535608 6.038189760071072 0.8437725512859469 0.916301314583293 -0.4117817116639618
P 6.898618878847693 3.9346632750633024 1.502101414456963 -0.12830421839575323 -0.1626130189799522 -0.144957253571402
Ni 5.335389135963696 2.910804853562852 0.32907419812718364 0.15975163827175715 0.5099633996427217 0.795101825553121
Ni 1.3348810466714687 1.1682421139656867 7.083809563134114 -0.06093797313595311 -0.12243464698885365 -0.8960806166610438
Ni 6.861015197061943 0.6006215344934402 9.503671039786546 -0.38752823843323575 -0.5172249663011413 -1.7540346016536952
Ni 2.6276802780239983 1.7573604429457477 9.049620802103286 0.6152197350800759 -0.7535265732144958 1.5024138478847673
Ni 6.314493307617337 1.8324504360819014 2.4737751347037196 0.7571472006862187 0.4408182081056279 0.5651079060253494
Ni 3.991831705571674 6.762803228162691 10.35216268243901 0.5977575737395705 0.5716282236423704 -0.07108046088659371
Ni 8.356793053602283 7.487971948698445 0.31535991418179254 -0.6137760606550139 -0.9833202038060032 0.2542520207441879
Ni 7.615418184493798 3.865053578408289 8.051359969702226 0.4454328240595038 -0.8330783047968944 -0.2628312777727667
Ni 3.2171146043299905 8.152496268140592 12.34681996301814 -0.6337635595205343 0.8802354220986712 0.2409339634790431
Ni 0.044065375676280584 4.763163121178385 10.208855186580944 -0.26325885222848855 0.015289579169218831 0.5388839393318139
Ni 8.600788131695893 2.307304132005432 5.7784535008986015 -0.40701180107914414 -0.7792355479448257 -0.38099866484483413
Ni 3.7950737134571852 2.9615991665824506 11.65083224125783 -1.9808200415464983 -0.10790225770063352 -0.8147041731650807
Ni 1.2771979919465815 3.3464477955859 12.645934906098589 -0.5001772667902354 0.0193542361568957 -0.16486890489366443
Ni 2.929204926427044 8.474578799719183 8.195909786475951 1.2670283250277794 -0.7817364599898086 -0.4444488628796797
Ni 5.744000763877132 7.91536284626719 3.4409553729757425 -0.9681771775169777 -0.29371536894613287 0.32054611598573185
Ni 2.8690661210549235 8.528289316632371 3.897093901558654 2.5122889193611635 -1.8051715295388264 -0.6398542457993046
Ni 3.521754083517209 4.4635434852259515 9.306582604754086 -0.1663945975095715 -0.8354653169718321 0.8057647045836058
Ni 7.277373273708194 6.365675845923079 11.608533742058254 0.5988225246689751 -0.849279340036789 -1.213570205208639
Ni 0.7315347123790034 9.273708951512768 0.5162728197075178 0.14520433658520154 -0.024341662069158075 0.1725449333816835
Ni 4.804468485925037 0.09434235593085546 1.3499279364827845 -0.7005415363770322 0.7284657735911261 -0.18684463783380725
Ni 5.976069200040615 5.587013292354776 0.33077065234268 -0.6379603712107013 0.4741178506990221 -0.20984726937656764
Ni 7.899806749336375 9.086909389412607 11.504485753973812 0.7287064288470224 -0.8615118775472388 -0.18565910216613832
Ni 0.0017569451321745244 4.639526910284254 5.81764619780903 -0.17195177988237484 0.6794590046751201 0.3859356971351353
Ni 8.183048695310573 8.816180937545264 2.504695924470787 -0.5680510478140732 0.5620624343308063 0.22769406775000142
P 8.476249071299103 1.7056993944035965 3.5335471037209416 0.24055009777706313 -0.2943398899040092 0.5043169999902217
P 1.9443676604315179 3.2627987891645387 1.6535878239596185 -0.7955471406206557 -1.2279719824562658 0.4761919596192315
P 4.78168959297295 0.8685349016114939 8.21924573757118 -0.35745687296915213 1.144888069350893 -1.2989493421060918
P 8.787741178211503 1.7705510741795965 12.528633087315113 -0.8780335293513458 -0.19209611604073368 -0.5036868226053907
P 6.516099601561104 7.7873478152851625 1.4052942793838485 -0.28981089168540414 -0.2654535458869622 -1.1300579463165956
P 1.645533503546397 3.2129614966177584 6.0648292374965305 0.8949351902026911 -0.8880045245211288 -0.463868147946556
P 6.873736346554409 3.9620376719839245 5.885421304274641 -0.39824485351979155 -0.23508213268395645 1.0412936949969938
P 2.2590739115733856 8.365415266352676 10.291258260688636 0.8868637260484661 -0.09459011397275968 -0.07660293336671968
