# total energy = -381166.2340144951 ev
CRYSTAL
PRIMVEC
9.32723534622398 0.00000000000000 0.00000000000000

0.00000000000000 9.32723534622398 0.00000000000000

0.00000000000000 0.00000000000000 13.65135174059377

PRIMCOORD
 96 1
Ni 1.9195543191012352 6.890849394804512 2.538332425541413 0.22688262759229957 -0.8170932422225476 1.0491849248196123
Ni 4.890987581145613 1.2734660681703676 2.4393872497264764 0.145067296786705 -2.7944623491059684 -1.9379816062247333
Ni 1.2788758645517202 1.0977782670683767 12.214123544825346 0.4066844996467125 -0.2368173702075083 -0.616669323042409
Ni 3.721175077088987 5.789741304791062 8.502648792282232 0.3875382657355648 0.8336429190511128 1.7017075101152048
Ni 2.519556701204064 -0.35991841686894893 10.605885285724177 0.46160583427494045 0.6148754643667799 -0.7400030848067642
Ni 8.145726283340336 8.940108245766242 8.120833758198003 -1.1652365511002576 -0.3101490890221239 -0.14244451445187728
Ni 5.862512393355392 7.010545803359505 12.31922562855637 0.509032146077704 -0.4679644295031166 0.8772753110290826
Ni 9.914571137045204 5.432079146102542 4.055147923968266 -2.3108221607388075 0.7495195089376318 0.8640798953847313
Ni 0.9833144374270709 0.34987858096397 8.494703853389757 0.8020083228649671 -0.1538854092989672 0.22268375901960358
Ni 5.17045952765331 7.905335452070341 3.482500457084801 -2.0286255910655515 0.9529973844527457 -0.5334373143949458
Ni 5.977741056278199 4.695777876895052 7.200350374846284 -1.2942881891849967 1.406918705599235 0.8378111914961893
Ni 2.605786990075794 2.35581708831675 10.033634226334172 -0.6345410611165071 -0.360545796307121 -0.22698315772590585
Ni 6.953285906833432 8.189340434856204 10.313432626071778 0.7959572315748807 -0.09239747719681507 -0.32922178938285884
Ni 1.1134480221040182 3.2313273419926625 0.0019018232450995955 -0.13743523416274395 0.7814400117953122 0.11571841131094263
Ni 0.5006188262363 0.8620482551979715 0.8872746953583264 0.5051328110232979 0.3406099766151424 0.7421610116900316
Ni 7.323763686604671 1.123055074298489 1.2342720933874691 0.610249278448678 0.8770277137946508 -1.2568040761966095
Ni 0.4219165488462761 7.961317517382199 6.499913257476619 -1.1285394527895403 0.7124735119279277 0.4437214977953519
Ni 3.153090493636138 4.501407623807115 6.639839506327329 0.27346587466847744 -0.6534242711742553 -0.8563982104697574
Ni 5.646745462855692 7.67391742100528 8.112902810158236 1.0439226479794086 2.6393646646664544 3.2000237908918305
Ni 1.570622452504002 7.430019549322546 9.426080514661788 -0.16226900537697214 -0.8139397841952305 -4.008928326655998
Ni 7.492633278819131 6.697719663990229 7.17520508163165 0.1576083666765092 -0.5680132525976024 -0.4502263887934052
Ni 3.236886374136259 6.8940486364576214 12.871217933221724 1.817756822403005 -0.8727907928951679 -0.38145914942102044
Ni 3.193104332387865 4.608708136860699 0.5976547170180246 0.048871014669090024 0.24410156257374735 0.06051374111434095
Ni 8.247924798772196 1.7326645085957886 9.082066899154015 0.8814764935946238 0.7592986998115826 -1.7863006607762528
P 5.425372864036693 2.2347868851366988 10.702031358273521 0.033996668660418866 0.8337143957189964 -0.20116079734616324
Ni 8.628867736370811 3.1029845864626453 4.570035554522141 -0.2004303469380419 -1.2665611555833736 -0.5132978633325934
P 3.0424508304023394 8.292481001037231 4.215223798892485 0.16758296139071785 -0.32360392897544915 0.3301640986914701
Ni 2.76284830260268 2.2826729103468084 5.233655276622646 0.4977282910291105 0.5429660798209874 -0.33393487858781196
P 4.689454011469954 9.549969515412329 0.36501575087310256 -1.2142484622225862 0.5039431615905708 0.6974312728828247
P 4.90328087706048 1.7527087369122132 6.829935087550484 -0.3802856979382096 -0.11156839369831108 0.11425082562648066
P 8.955516838217957 4.3499239978941056 12.256470125085654 -0.27071428006526926 0.3814565783178592 0.06001237599789019
Ni 0.8452918772684893 4.063913659553085 6.091068828679421 0.340365207594188 0.08155899182041437 -1.2072553187342048
Ni 3.8554872631087718 7.6746635998165 1.4354941334094438 1.2530842041428611 -0.7309404603838637 -1.2565071137814812
Ni 1.8817323806074695 4.489021055540846 11.656506917370413 -0.7988481799694306 0.1387125582132708 -0.2555162321685922
Ni 5.962463045118448 1.5407379911145997 12.835123398675933 -0.4995411758681333 0.43877289554082494 0.1683478645812004
Ni 3.36574212759899 2.7459473525285243 12.233944852221919 1.239571257258091 1.3921137793759186 -0.09613097609731831
Ni 7.550359537102217 4.937614429611787 5.403655329736105 -0.25336884680828625 1.0846342667661577 -0.6786557920475345
Ni 3.4844405219939754 0.5305984254241328 8.502443593109147 0.45477698427856517 0.2279321519027365 0.35808705035398325
Ni 4.9699053176673775 9.411460073579427 10.726644999085162 -0.09990664108966665 -0.4653228781152115 -0.003991123437264094
Ni 8.361754376423963 4.278738539303619 7.452368537442131 -0.33743594976253494 -0.4384317101513223 1.2908323694259125
Ni 6.615266905350306 3.6698006659364193 9.311218412079993 0.10086437701724565 -0.818055606135817 0.1979363768715946
Ni 4.959915848832156 3.8649450795409988 5.13406838703006 0.969783088551517 -0.4065397465387321 3.0102277837391838
Ni 4.260345231607022 4.83335459521393 10.847404712446144 -0.6152788704527855 -0.4057905270775334 -0.040062158128208424
Ni 8.712607653460092 6.45859733669931 11.079123080482722 -1.750816351826714 -0.04358945455517654 0.5292615857507014
Ni 9.371352962476294 1.020474142225878 3.2425508040369406 0.37043374484479424 -0.36777805238950206 -0.13221615185564972
Ni 7.280280116380767 3.9799685432907204 0.3945933462263901 3.191678761361245 0.9919737657159432 -0.7740935987325701
Ni 0.9113296347850642 0.740458417909505 5.318252366621317 1.3681256439914373 0.10095230874536162 0.9235924489280675
Ni 0.1493877961769919 8.0387149145761 3.6532653434797613 -0.12341012352824553 -0.22528288720534748 2.055994727107124
Ni 7.029983761391812 9.402972289601786 3.242797043044644 0.8036898243324481 -0.9109086828128119 0.5352928795464459
Ni 6.287256027172682 8.42160724431903 0.9828891155046748 0.7639248857296844 -1.981684960649955 0.21041034096888925
Ni 8.944249538168519 5.307691138271997 1.9009371577612704 -1.2961650944927354 0.25574943122532084 0.27124701264028767
Ni 3.3917184774646225 0.5308679825196865 12.328522083820669 1.7825995577755815 -0.3869214580871724 2.7948937802164315
Ni 1.3122114029430196 5.981164151574676 0.5712166690129495 -0.3235710188549846 0.21694402832234896 -1.925494529501316
Ni 3.2170380177577798 2.2669751736057457 0.8725777709478142 -0.3157101280496692 -1.5978290288619836 0.40476182870270294
Ni 0.1675628465713081 8.856564200614908 10.658211074861054 -1.3392321008855388 0.47713195493499766 0.36357507005174805
Ni 5.639507528386848 1.3098049762768318 4.672093228703383 -0.4271705354152063 0.22611798151213314 1.216763772445272
P 2.626437488676336 5.243445142625866 4.10262728172626 0.08265428176712217 -0.9467115514440342 0.5595939181856556
Ni 5.391244510658471 5.6728897029538485 1.3964922996704348 0.46182746336744335 0.7319552748016233 -0.42887980479682913
P 3.0076322616237383 7.810011108936855 7.702802002787646 -0.4121627491524643 0.2132478104176843 -0.33928405871486733
Ni 4.335280238723893 3.2783832432752886 8.406256480725187 1.0070383733585495 -1.1428237306226963 0.04233578465373354
P 2.3858414582332554 4.114700454891817 8.727172131131612 -1.6888082855550335 -0.35553908712114896 0.8176522000498112
P 4.497611439105028 7.162533099970089 10.702331695245038 -0.9970226409937604 0.42705432155231615 -0.35218971103294183
P 6.739393750596924 2.3692949430944292 2.9298123406779832 0.47170435616152306 -0.4300882232826335 0.09729877115317435
Ni 6.036539946602416 5.97279762165386 9.759624308724614 1.0761953919701852 -0.07456044901539419 -0.5424264052674336
Ni 1.1289312324368546 5.731306176637315 7.750609679222577 -0.7151155775364652 -0.5014731027835234 1.8899603411504482
Ni 3.6001168922035154 9.439721596054422 6.179734458646274 -0.30003102675151555 -0.8408823742223454 -1.275125757323933
Ni 1.9500637052450351 6.472252408944655 5.973653861839737 2.629531737736433 0.8402833071857658 -3.3975611325527932
Ni 6.0340402475848265 0.7949714436867711 8.771771238678292 -0.20830872124485417 1.0623134917817705 -0.8785084121052353
Ni 7.982462359445175 0.23266135150925865 5.513548814158682 0.13889742053056725 0.7805658367204751 0.21551398074404174
Ni 2.4917149043103795 9.147042284588114 2.311801865689849 -1.1203867417754187 1.207063771548689 -0.08668782840654748
Ni 4.6253665788212075 6.790721525573789 6.608168879408566 -1.7137310169386422 -1.699162375095848 -3.950930924205609
Ni 7.503909906103709 1.1220757146087614 11.163446882491781 -0.7109799581015368 -0.28385493121228533 -1.383835084306894
Ni 7.097914014918347 6.866710510261512 2.8780601765022347 1.1322562395194953 -0.87752187982225 0.2529561847508998
Ni 4.600686714640072 5.6236045924727 3.7642510471372628 -0.08000321729752029 1.6588091680897818 -0.7335539867473109
Ni 8.687079010881192 1.8531723866079846 12.89192719340365 -2.758148602276598 1.1599053686953316 1.3616755174907194
Ni 6.198572675459063 8.177979862455365 5.416747036978978 0.3079135148233858 -0.5995959124998899 0.8000776815011577
Ni 8.930333303339248 7.9449295652407566 1.5089517064800981 0.16915853340795384 0.659978013132373 -0.9670875439972249
Ni 0.038572780922557025 4.726268608568572 9.549693429252176 0.18796101082643757 -0.42318763950805827 0.6629095849568712
Ni 6.568640056884131 4.131386878557747 11.71770570529622 0.1396929198486691 -0.0557397167644653 0.07611159555259796
Ni 6.458224247293701 4.408471052869536 3.384484273889835 1.4642887588782716 -0.34953504701891414 -1.3739317091502534
Ni 7.869378960604628 8.540240348068034 12.62279075615488 0.34527292930845055 0.6680978140260301 0.20907593842818187
Ni 1.5875980204592803 2.314711963053611 7.420137343691438 0.8156955905440726 0.033706905334141946 0.7771097598510746
Ni 5.446051344342656 3.2505227919113233 1.0393254171678634 -2.0991033853711394 -0.6968646017460773 0.9330646500845609
Ni 1.5657163268202234 6.841153885977191 11.409594483290347 -0.025604330831665578 -0.5223409473714682 2.331513370539572
Ni 1.5506714965389798 4.068801130766583 2.3894510982325374 1.2574753912320216 -0.9637641360509466 -0.025308911078433832
Ni 1.7075929005387618 8.494051879653453 13.623980839728262 -0.14116641907040203 -0.9171081267553044 0.01991910752143021
Ni 8.802149110806614 2.8629854990685426 2.059388228324056 -0.48875205567242924 1.1029559478934812 -0.64186484847143
Ni 8.008690544659594 6.499814388784133 13.700906278824068 -0.5972132712003263 -1.41436256347179 -0.6111144546624507
P 8.819189969407875 6.992199131838609 8.783279181394349 0.22800465701188471 -0.4701974325986934 1.5387880156384273
Ni 6.825008441949396 2.7326653696887893 6.423096947031957 0.3153303761127472 -1.182096302970074 0.15962334022400895
P 8.250750951019695 6.99795403592015 5.136075608032244 -0.3076183521804702 0.48303495068299396 -0.8694946386423994
Ni 0.13450246161664642 2.671721215282312 10.854435582294874 0.20472023256264743 0.44709478514295903 -0.07338674042226716
P 4.787996250726831 4.991908265363258 12.962626703043327 1.1750895326349375 0.1140201976729133 0.02079611080974483
P 2.130610995855103 1.838528627437772 2.6805522415131127 -0.6175434981172462 1.6345274127242817 1.4403098794651712
P 8.89781856164029 1.9839122415690489 6.644372542605496 0.16568008794105013 0.0003604686632122824 0.2576209372164209
Ni 4.118599239180447 3.0748816269850336 3.351788583829157 -2.09826392018898 1.3377835413644703 -1.495525091184734
