# total energy = -381168.3197330542 ev
CRYSTAL
PRIMVEC
9.32219372681454 0.00000000000000 0.00000000000000
0.00000000000000 9.32219372681454 0.00000000000000
0.00000000000000 0.00000000000000 13.64397282097875
PRIMCOORD
 96 1
Ni 3.4392555546910892 2.0940257194798773 8.916650277816409 0.3356536610511316 -0.6948303449248678 0.9649422155194477
Ni 4.405193296091745 7.219479665019482 9.392196817917478 -1.1666527147214938 -0.8632406873128876 -0.8240745586363872
Ni 7.120291524381334 7.558891414314061 6.346207325346775 -1.589254399819095 0.2173111818537806 0.43684585372144125
Ni 6.545261330102807 4.0011228115089885 9.913069728075955 1.2083752912712609 0.055643814616549325 -0.1652316875497219
Ni 1.8212676549186393 3.8016092226050753 1.0282081306708342 -0.6018253160510408 -0.02291212871148312 -1.2626160548926966
Ni 5.525981996528141 0.2602728505803476 13.738389018058763 0.3217046550702073 -0.5859119872548941 -0.6140899923510069
Ni 3.53292495667719 7.763783908964987 0.3543095469970068 1.1919174028255535 0.21903304964089373 -0.7042007303961744
Ni 6.294410420663717 3.7393183245088246 0.17322500275733693 -0.320434530108532 0.8534211301193044 0.4202408981749085
Ni 7.686642756354021 5.642761116619689 2.0841441941907384 0.8122927355101108 -0.3259287204538838 0.3242305068158545
Ni 5.813963203350854 6.3004605243548975 10.869853075293655 -0.711150165130814 0.8660527028403859 0.38114136107028557
Ni 7.486513902667954 0.2226922912425125 10.927812882211288 -1.2174564276369226 -1.262295181218168 0.48157970629370606
Ni 6.755691207793119 2.5541319102069853 5.667501286397846 -1.2527959834784812 0.47584871734719986 0.7334156613972337
Ni 5.144816141790114 8.447753258459434 2.161491367281789 0.09243038731727951 -2.133512973199261 0.2347915980267311
Ni 4.627816603101107 7.872256954497458 4.667807881721745 0.9905905122151714 0.040248048886769396 -0.9036008362974889
Ni 7.4905317681392924 0.39983914087639727 6.494435798000059 0.1458568825675359 0.8890625334719977 -0.7986337499657794
Ni 2.8106880021715033 7.521155174341954 3.1084248846688234 0.40847861543265773 0.07670886281696467 0.0944759569923986
Ni 4.558832369950515 3.6625780262256264 7.681829707762717 0.3248331733968599 0.8485967121474676 -0.40736224244002744
Ni 9.200790740847493 2.226270358868295 6.941221506193535 -0.028770901485105287 -0.4108242328466989 -0.9564136092231463
Ni 7.620697558339523 3.9101848122679055 7.726936074049536 0.2738276288832704 0.5015741471377619 0.2496752000067829
Ni 3.7603119046514104 5.470990376074717 12.623744575469605 -0.7731908844126425 -1.3513769637781887 -0.6885792218088335
Ni 8.243671794657711 0.48119765390321795 8.699151380666894 -0.391561527962345 -1.554259371801149 -0.27377826370257363
Ni 4.9022899512974405 3.7949718207127483 2.1736214056838903 2.3140213844023956 0.93185931692255 0.26422635834808045
Ni 7.811513540550262 4.094568480847034 4.137357349787738 0.07430513847147847 0.7012444759813278 0.38247884893478645
Ni 0.4187762450956015 9.319965664711974 10.668576659566934 -0.9048285380570029 -1.5432972163626906 0.07301855844957102
P 3.261192333419542 5.441783943309742 8.339823696817867 1.7045118123332192 0.05386075457419757 -0.581626729615979
Ni 1.2600343072702318 1.584856823472828 12.966808760243698 0.9721451610257903 0.5649469549674528 0.5788306549280805
P 3.889508186710066 1.430807573092622 4.98669495721529 -0.22442979517643283 -0.7756473163729352 -0.8762201302916909
Ni 0.3109128710290832 8.367983247233811 7.370187841188719 -0.347671254337298 0.1068578755965192 -0.4770093133142043
P 0.7662330475265273 6.982201869562453 10.592006957427877 -0.9289426574963873 0.5133212603713612 0.48601588768818876
P 2.2310246776394846 6.132502561020544 4.563239903117218 -0.8025012033409856 -0.6416136516925723 0.4863349615905044
P 5.3727064882224616 3.6781181230718474 11.911283805464596 -0.2241580295722849 -0.0968169464207494 -1.008462764509902
Ni 8.751638127681458 4.427417405798638 10.522109149297725 1.254133471342982 0.22886006303364456 -0.41782894629930617
Ni 7.065672791674669 1.7476782580955623 12.702211344020302 -1.4872361117030644 0.10530132974267671 0.10285338242281641
Ni 2.5336790172972012 0.2503997152655109 10.657634268638262 2.053031273603426 0.5275608010095109 -0.5559943737598554
Ni 6.3545851807971045 1.9347560406450317 8.02868616092136 -0.1989411639870251 -0.27663064554970423 0.4039745569147172
Ni 6.096807881461948 5.961365729645063 8.366634325809907 0.45725372795383185 -0.37460998770967097 -0.0641125142091928
Ni 2.632438337026576 8.757856030858681 5.582594746460604 0.6731289486920342 -1.3904847284129278 1.9146192773497093
Ni 7.966243311068305 3.3300553780524367 1.9135266090026204 -0.2964872752643152 -0.5321373646365997 -0.048601305947471134
Ni 8.750733874895566 6.996884324591126 12.912437065669263 1.4447272918065766 -0.6443413350363806 -1.0692636978473584
Ni 4.636756586829677 0.49512967234153676 6.797781844428016 0.816378218433394 -0.4894843058527635 0.3046379293959076
Ni 6.180828813000635 8.488370056275262 8.342689339151717 -0.05027920787052631 0.538746385312685 0.3609898258230751
Ni 7.983107159415523 7.211043079749037 9.721316865401484 0.21510029024539085 0.2808696233317163 0.3652961665079128
Ni 4.995166966821676 8.849427939269257 11.097694014099556 -0.166465559956823 0.5748027647156101 0.09970609504308635
Ni 0.46591857847972884 2.044851147875908 2.6647360092121892 1.380631489767932 -0.22554693950001156 -1.6457124828068237
Ni 7.192967346224848 7.415721163945576 3.6860419876904964 -2.4432316595521857 -1.921241410651917 0.15361621479798063
Ni 2.482798484251806 8.044130239172791 8.216563787687628 -0.29385909361284873 0.6753712077589917 0.5020022358141161
Ni 7.001116600516852 0.9974747225828786 1.9185195759317362 1.9635872226079796 -0.6117757423955335 -1.3619933058414542
Ni 7.333163816812922 5.4154953571631665 12.09138392605282 0.3659687670949052 -1.225364626740406 1.001880997527326
Ni 1.5248685072128205 8.449599052805896 13.099401117455969 -0.4034274261619955 -0.49433289219431636 -3.453435060902278
Ni 3.839261562834162 3.55033881445088 5.325897889371684 0.12148950946676494 -1.0136959878843832 0.6884172423096724
Ni 8.483317427306664 3.4734120722943014 13.255842442731641 1.3831102903257275 0.7732513053369328 -0.11815684554910617
Ni 3.4691984407559135 0.7464485559028109 12.806615252016254 -0.12920744693631298 -1.5096124225157355 0.17638204773958654
Ni 5.949815531689174 4.997693281305975 6.168208427211543 -1.1435382401912177 -0.2360817775930644 -0.45116741255043585
Ni 3.263429659900102 2.547811462899404 11.351935405376059 1.0574641341092692 0.6431380587568989 0.6083515472053329
Ni 8.842119339432761 8.69948977629708 3.701159789163512 1.66727092570389 2.7059426096970043 0.22699344213855102
Ni 5.437691500289052 6.3039936357554485 0.14318516587835498 1.9754634052202749 0.6317010205645508 0.29800448323979
P 7.732666426497868 5.824497282196822 5.595284116482845 0.09788781088742496 -1.1746197920873707 -1.472425271942477
Ni 1.9284449155311192 5.283707505264529 9.969855870810662 -0.5177322449548633 0.0016231374257197854 0.48045870531538554
P 6.476482185212934 2.4451461440227193 3.4267106786707173 -0.5448542979826358 1.2142330356036186 -0.35343438207332034
Ni 4.385607367193178 4.396812643983315 10.032222278675633 -1.8598763772808744 0.6018014047916409 0.10234096156277213
P 6.432127187735838 7.941194576679705 12.416956878845772 1.1357562822529537 -0.47444000992513125 0.4853813394279834
P 2.7057014570712377 1.7547258365093255 1.0438209406276735 -1.0084622502892697 -1.114976883613757 1.5067029621784247
P -0.07811066075254149 5.042663543565226 0.8508105140272533 1.2869659444919705 0.1746982322792604 -0.8682234852394597
Ni 1.4835432226781484 2.9730992602728015 10.114168089903599 -0.8684374010224786 -0.2320711137717745 0.08852025362959594
Ni 5.853256249665684 1.8343373704425758 10.441787264206896 -1.2064791026898125 0.13068326015089107 0.5083166080679181
Ni 1.5994926675331564 3.8220061823528453 7.876283209943099 0.09940733285574492 0.36332695859668396 -0.055969830497400376
Ni 0.004735674383851423 4.630520039265116 6.059315882963968 1.15711083666933 -0.7669482459370405 0.45591392609648584
Ni 1.1594385153880649 1.1448865710707576 8.601637506011699 0.867180645797242 -0.0767703121825194 -0.005084356501442857
Ni 2.0662735489272674 0.6692691822978024 3.810474628784293 0.4698145953379779 1.1348828785090648 -1.2713274666237655
Ni 8.388240374076545 1.6082462073883463 4.297155597003616 0.2627520877953991 0.10683679255059664 1.388709638790376
Ni 1.421587923553982 3.0825791027215237 4.942256059995172 -0.252940501021616 -0.44762674638702915 -0.32348642956097834
Ni 1.823076160490425 8.795788036897838 1.5055305486658492 -0.008449673429249963 2.0969475153704016 2.285697340646722
Ni 1.3499282208203875 4.432759022770974 12.363267568847906 -0.16058518991664603 -0.20711238694390785 -0.6917195672100281
Ni 1.9593759541248577 6.087140766627196 6.791109950419114 -1.2086822809887183 -0.09256382757135026 -1.0973519714431423
Ni 6.135588207124984 0.3928419023084467 3.9900983852760312 -0.5171329208079674 -0.43482368108508984 2.0801314722543274
Ni 1.7129251200975344 6.196312976684842 0.47940313162193565 -1.1052118338071935 0.6346163944391329 -1.2009846552341445
Ni 4.19247015875886 5.321164079426567 4.168929755305904 0.5936219543046422 1.8505149906706322 -1.3100431380264086
Ni 8.748850791774428 0.08810032348824068 13.014330506910154 -0.8391157692402258 0.32775780324282267 0.4167753082238112
Ni 9.017563024283321 2.1588056432857505 11.51521269526921 -0.2937346522198425 -0.10875329284701916 -0.9948459450574156
Ni 4.09246166507784 7.026006857613079 6.711797658902638 1.4807667019286368 -0.47422737969369294 0.8901645082869251
Ni 7.454315045735232 7.898526896256697 0.888710824607935 -2.1106147284448493 -0.23051585346951267 0.8079529704841764
Ni 0.7104723460954105 4.608556950980955 3.094739904362733 0.21481464068417197 0.4319041934454497 0.31173725944485026
Ni 2.6568811288266905 2.0155701375615824 6.749523644461709 -0.6183857915128834 -0.6914930530215188 -0.37428757137324575
Ni 0.015742388448838386 5.869076012321974 8.2429651723776 -0.09422013222785064 0.0343818199139795 0.4057925839600624
Ni 2.889786815452958 7.241461397690981 11.31807067243469 -0.5081068060499571 0.1059929564930626 0.275566465951248
Ni 0.24434588269686308 6.999047073522334 2.3236779605156643 0.6587721657497301 -0.014457570186226714 -0.28576423241985627
Ni 3.526343487946877 5.726502382348307 1.5823733910794069 1.481088861154746 -1.0165067178603011 1.2219376033367277
Ni 4.135138667694517 2.8164211512779374 13.617135245006095 0.7028946099902411 1.0747681726053555 0.021123155131860395
P 9.014822299344635 -0.19660786113728676 1.5624257610664831 0.366302239174924 1.0252674947720666 -0.13637696810155867
Ni 9.45820447462956 7.064209207268637 5.295894409048011 1.0155705791992766 -0.2718000569302803 -0.22935191506839858
P 5.77041923672296 6.080279632086813 2.306882164182229 -3.3670441949108594 0.633017168272813 0.9133026369662852
Ni 2.9094939328692218 3.2168280137487764 2.865179953044269 -0.98132605619411 -0.9785806322384888 2.0275524126060307
P 4.107377174948238 0.027088430363376905 8.994515764875455 0.3815979889917299 0.24387093462017997 -0.1095372222008952
P 8.395213374940957 2.3266051293277297 9.509139076398235 -0.4553966201404351 2.4024539634141915 -0.6616908820584216
P 0.6758236166664755 0.15068487068506456 5.44062985573352 -1.9719787891057843 0.7410400107117109 0.5694026767459613
Ni 4.716190999083216 1.3624945378861983 2.222302833242769 -1.6749243284840898 1.0843393612335583 0.12662014582511097
