# total energy = -381168.56178470835 ev
CRYSTAL
PRIMVEC
9.27174634399482 0.00000000000000 0.00000000000000
0.00000000000000 9.27174634399482 0.00000000000000
0.00000000000000 0.00000000000000 13.57013797691762
PRIMCOORD
 96 1
Ni 6.903528931171881 0.4494376955731007 2.5369639232570127 0.3433762265063699 0.948772804848437 0.40949960049800443
Ni 3.4190676527972323 5.270227401596958 10.762285965642867 -0.13747122960700195 -0.830436239188357 -0.5987829296802912
Ni 1.018529129527268 3.942578255516304 6.455884391303681 -0.9518576144213476 -0.943460391496588 -1.4950867180957348
Ni 9.064263012086213 1.4446771259527849 12.866308484072183 -0.1574417591916579 -0.7628439939606798 0.742475971827289
Ni 8.284796585222788 8.42962126004474 4.212645677296958 1.0707503096952138 -0.8260679349173322 -0.41675731050168224
Ni 4.434629823557342 4.29537746816996 7.901063118723039 -0.3117675984621534 1.0062333609587508 0.913034470906563
Ni 2.1632559958664177 4.772102839829391 8.17940093806715 -0.2936958285621071 1.7870840759094964 1.436084528529914
Ni 4.1228766310981015 6.559973649427155 0.0935658262462056 -0.9149448005553986 0.10887002093054154 0.04111939574812919
Ni 8.949033750966672 8.676333153280163 1.1653861711047242 0.9643704021763778 0.7499224008030053 -0.58287654286268
Ni 7.328731209490365 6.4152602355589705 5.2963431289702605 -1.1663994610601072 -0.5113319978554742 -0.4842533964711273
Ni 0.7202273863786357 0.30580444013108576 7.516363536274735 0.4811667871260036 0.4825888642845108 -0.73225635098181
Ni 6.54756805308197 3.070097671302441 8.598161207162441 0.12246292912362779 -1.0760465250971467 0.18009472070448337
Ni 8.686596976265305 5.78999221887249 7.371814232313358 0.7271588818542445 -1.0322323561256739 -0.18147591732272617
Ni 4.684605371436641 1.0009962575625873 5.74449668770195 0.3246339129018603 -0.9052226881716281 -2.228879303216413
Ni 1.4610510296490438 9.077104380500323 9.583787691136529 0.13989398011588164 -0.30013027133354114 -0.053605444030281876
Ni 2.021064496950319 5.849192318023462 12.669338581742794 -0.90619019429122 -0.11982266328730332 -0.5103387807042694
Ni 1.8435661887050276 1.4186049757863743 11.357295638777398 0.07241743453046237 -0.8367971484093782 0.26720318158821726
Ni 5.269430031428283 8.798414234802612 8.207599099625153 -0.5394302987535872 0.04155905438870908 1.8912883159332528
Ni 9.046442715990963 5.34184236883926 10.961794472067405 1.70625244917341 -0.11049444390784197 -0.6547890127322659
Ni 7.242596687781279 6.225931179229632 11.94744784410532 -0.7897259059531883 0.11894977376404675 -0.3885733918682986
Ni 2.0440213404112124 5.620365623106318 1.4852382338236934 -0.7799500575133471 0.43793111636581994 0.6552870354146069
Ni 5.926425963431071 3.8281185493269954 2.7008234929195196 -1.441413654052311 -1.779049635640794 1.0453976898630384
Ni 5.399549716860505 8.266670321504675 11.995852849216908 0.14079026667790592 0.5610761591581369 0.05404227445738434
Ni 7.756455402760936 0.07881447812573658 8.487972067248611 0.08281831814881221 0.0690084088489134 0.26835889245921524
P 8.1591458814336 4.238977436355495 5.6043579533828805 0.5856996141337719 0.25499918332285765 -0.5312379927507819
Ni 8.650233187875312 8.197883236837322 12.024512743733048 1.0605162906720318 -0.4584508335857266 2.324268258941384
P 7.346421701139551 2.2069259202205402 1.0367879792152879 0.7502818410249531 0.29265556022305084 0.08420285720116466
Ni 4.352509967930067 1.1062213045891134 1.9176233338825472 -0.5865791885252478 -0.058936626435208174 -1.9582524406586277
P 1.3346493144219198 2.984955226431123 12.90843095399431 -0.24525187412810667 0.7449390886558009 0.6674380689548441
P 1.5700589491036976 6.216075313074976 10.157831164708009 0.696098155893698 -0.13339705953762832 -0.38211940871283867
P 6.969877546602475 7.045238299288316 7.801309329098077 -0.7551553670671703 -0.5207676893470774 0.9191758079176104
Ni 6.85660462392003 0.2319049146380711 0.044486765189706096 -0.3503901959303578 -0.48031189532487595 0.6757866980298555
Ni 6.413665495221623 4.556729448572085 0.6604570748396015 0.9739585600854452 0.7937478826283879 -0.8442638891000686
Ni 6.347131444868081 2.9141747163420844 5.048851481883842 0.3065174058068076 -0.27325838664336166 0.6212399731322268
Ni 3.476357772241845 6.837699533525539 3.6117595714542228 -0.34027213365974945 1.2485996860089466 -0.1779563342052419
Ni 0.41747984095233853 6.969692111679527 2.805598860257898 0.14180508109566548 -0.047482104741363385 -0.09261910628931791
Ni 7.656107294207927 0.9825454827293167 5.223512635808038 0.0944229922672761 0.6848580642035044 -0.014479681673413772
Ni 5.040705325718761 8.352545234321635 1.9316681749465867 -0.23469106789312486 -2.098098341145393 -0.3679042935547212
Ni 1.7430697322136612 8.282589909639713 5.336646482298272 0.42509308406088725 0.8016185436257162 -0.32568318010198105
Ni 3.133878013050214 4.547810028778312 3.3987903439729297 1.0264586868666903 -0.8205796581092514 -0.8669320201215456
Ni 9.17086027754255 7.387300829903315 9.280454171353718 -0.35797777846962864 -0.7631054751521825 0.04091704992933598
Ni 8.67969879713166 2.528423717880668 10.323726809824478 0.11929224470513004 -0.658978111112949 -0.4808739384759332
Ni 6.473774225495037 4.645979276986689 7.021080764701337 1.3283969579432477 1.2970981478299661 -0.8950701731186586
Ni 8.905595620266233 3.9056025318805836 8.533947874869586 0.44853588846485976 0.7015039002903015 0.8299911812311384
Ni 2.407835387487946 1.2555798632771307 5.989329197993302 -0.8227257579179765 2.522422922471372 -0.8032689347449457
Ni 3.013178421703724 8.19750309524528 11.618751462736373 -1.2030479655210766 -2.2501466972356217 -0.6310263630950294
Ni 4.802541982431213 6.466820415884507 6.514710839084913 -0.13417224714075604 0.6381231220408107 0.3955750199971123
Ni 7.090577137948965 2.010401988880841 12.051706775183291 -1.9984436681655324 0.8586980622475275 -1.0124731712208757
Ni 6.13819264543705 1.1137221472223373 9.875029926768551 -0.6367046444267292 -0.2051804600285176 0.7936388678543493
Ni 0.6168047668031589 1.2462803018913164 2.5465722337895342 0.12284345239149812 -0.5502327886857298 0.27065257358939837
Ni 3.0646273410754916 9.051041502080059 7.463521073457017 -0.060057627413528825 -2.089534253625466 1.317476454376002
Ni 6.365526589224467 8.483100691822782 6.387152009938598 0.7365876313673121 -0.24532746456104845 -2.5251557480215028
Ni 1.6118374372437563 3.4559970177022157 10.379703122840008 0.28731075097136966 2.1896746079924934 0.5079574249562865
Ni 0.37599712151438097 6.594390371126199 5.250001087376465 -0.40819013765796147 -1.9867027255795204 -0.8243766632578382
Ni 0.6292391055613996 4.766558335633262 3.751736050215714 -0.49133267191541186 -0.4552549523562482 0.19059279202232984
Ni 1.857010220618717 2.7322537851844966 4.028770262051505 -0.259762666149772 -0.7979207830591549 0.35366989512289415
P 0.5639205811277778 0.9584853014768862 4.82883850885439 0.03415144907072828 -0.06045152041783783 -0.674332224971516
Ni 3.799543027700794 8.93637781747551 -0.001827461165647042 0.6409973582648123 1.1226272010701634 0.823030433642589
P 1.4688671116512786 7.923532268336581 13.067432128675593 -0.9303670486477396 0.22345046198229906 1.9439679057151553
Ni 3.6034270531915795 0.34380840041454924 10.070195547297661 2.4626673996792943 1.756477406767233 -1.6661190714876335
P 3.513444756831333 2.7096399963310556 9.562618440332848 -1.3341474872737795 0.3055838382489447 0.4264488267578333
P 7.320887312249689 4.035202999528551 11.125707817857567 -0.9097097774087043 -0.1306503500304266 0.1911563778352837
P 4.873878797289095 1.1685645256840433 11.7857328293267 0.19514364461780587 0.3416422745343987 0.8267505628066535
Ni 3.4558764850023 3.177918807250231 12.771928598514238 -0.6132345863292471 0.4725276233937669 -1.1402382292837072
Ni 6.918104116115549 5.444610403136733 9.432005498005589 -0.36941918753735087 0.7396143340087779 -0.13828961174323925
Ni 1.640181165216273 2.3711378162366477 8.287744073323037 0.36752916960348964 -0.6620009570996729 -0.09390285809774795
Ni 2.553058747394236 2.7848524010785383 1.5584349609587371 0.5916810285281874 -0.07884364977178034 0.36149479048395167
Ni 8.428898063845244 2.034415811402535 7.39728557332942 0.021033680741847645 0.46867611085816063 -1.1614356892969289
Ni 7.762621113948938 5.076994940139575 2.5104485836247576 1.5456492615346349 0.8746918665726225 0.14763531462419735
Ni 4.317861452577337 1.9432560032815722 7.783939639865591 -0.17646200904790255 -0.6276736445727126 0.37265594930709367
Ni 7.311773185786821 7.4134656975311986 2.274830334654664 0.5657643086624256 -0.0699121516101054 0.25074760713535527
Ni 8.711602875624768 7.948705059126696 6.804026405867512 -0.03053236426090226 1.0969063992652914 -0.9824696828802499
Ni 2.30716276781978 8.374250392052634 1.93488454368511 -0.12888811592368124 -0.26018304151664223 -0.8198679767542073
Ni 5.685063867722681 8.18734126146776 4.142909165824114 -0.1235052543452131 -0.08647828349890267 0.30680048426486517
Ni 7.115388330639333 8.161361828762823 10.425719726144031 -0.9345283791142808 -0.6465877078683961 -1.4236694426950127
Ni 5.38044064805077 2.477901973123638 13.71995166163843 -0.22686283009795769 -0.6729633696484475 0.2732954105288842
Ni 5.300508924514275 4.882872391052046 4.814685188360427 -1.470475604415274 0.5783604001598813 -0.04415715413318847
Ni 4.317453495746853 2.271077131814208 3.6061149323997026 -0.46473820925633513 1.8062480504324567 2.384152336891526
Ni 5.507287407092968 6.064843861665189 2.7654994853451282 -0.353707690339365 0.15988662118772465 -0.5389407607116783
Ni 3.2953918309374357 0.0077623058745799264 3.926858937098049 0.5791857242746541 0.33766760615736685 -0.4030556446448736
Ni 1.8668382715349314 0.9168931754343896 0.23857964468956427 -0.1369418394660932 -0.5601351354011063 0.6949887248796032
Ni 8.858040834276363 6.434971967868284 0.27959784964553847 0.4134274747975009 -0.4675034307062981 0.13653149140155196
Ni 3.7633368589953062 6.932660757566924 8.912052464283263 -0.7805676364926879 0.16926163464472138 -0.07427094279943337
Ni 5.294584278726105 4.882853847559751 12.20005564071586 -0.07344844689813802 1.3351021378775652 1.4326027406289004
Ni 0.4284492438192945 3.6016932366620207 1.5079141433763215 -0.8330587644128685 0.1893866875293706 -0.0009721341052821967
Ni 6.294671905166249 7.0473522574099166 0.23114834015244554 0.7878623703818883 -0.06841859778371442 1.1068964205984677
Ni 4.097110448554555 4.573474222114238 1.2937525693404763 0.666884253333903 -0.79248855629999 -0.8017231875243805
Ni 2.4809523776061226 5.556520379135514 5.290494511500499 0.8567080284006923 0.11358799523150115 1.8152314848779898
P 6.336227871398771 1.3436521799310182 6.940623333158286 1.1676459318726988 0.9956746116062982 1.7703130270987446
Ni 7.856265750037396 2.6727291749183677 3.156970224004859 1.1207371831363022 -0.20783101027748724 -0.22904363979936038
P 9.076047401439522 0.4759919765391744 10.72133173573531 -0.643042413719299 0.05858155708863459 -0.4655172535142047
Ni 5.21066570434624 3.34152803976676 10.665042964874612 -0.08264039781005122 -1.3547242829838668 -0.33224874913464075
P 5.115036914582243 6.6321356496921515 10.691001999738026 0.5535153160917435 -0.3924927815273628 -0.5290502410708438
P 1.992461160085676 6.9324382356593865 7.08209163587489 0.4812346642494615 -0.017515383175944026 0.02686211449816664
P 3.4053361967529745 3.5045067935452665 6.193600600413746 -0.8315438704302388 -0.2581541840120715 -0.9475494739642972
Ni 8.522079112626335 4.0224543485759146 12.97130081027041 0.3911360103891522 -0.14427848233682247 0.3401908867998528
