# total energy = -340853.92838683596 ev
CRYSTAL
PRIMVEC
9.47266854816356 0.00000000000000 0.00000000000000

0.00000000000000 9.47266854816356 0.00000000000000

0.00000000000000 0.00000000000000 13.86420793225074

PRIMCOORD
 96 1
Ni 4.70686472028841 5.420639755635242 6.843456333937792 0.13590799888494012 -1.4171347269002885 -1.2422459758767768
Ni 8.761195206327749 3.1558005265454523 12.768574411525469 -1.8936311051338162 -0.6433622589525629 1.5906073143025639
Ni 6.498762035007306 2.3352306278457755 12.079620609143287 0.40002200002487237 -1.4111887937294987 -0.7817421164167633
Ni 1.2511121493871107 4.561383479258342 9.612526648335214 -1.1586509274629402 -0.05551011725216246 1.204832568225325
Ni 5.046573553848789 1.4487688478721605 5.751718988298474 -3.413996652400998 1.1908663358532199 -0.16559549864704384
Ni 5.7731840548549345 3.4828822931509484 13.871000716168455 -0.7184580116461369 0.7927819191706927 -0.21939480385568666
Ni 8.965643808043593 0.6058245064512301 12.852494675266424 0.6513275365462267 0.23016361233641652 -0.6748950394535216
Ni 1.4531831113387583 8.147792565169912 4.611554520083427 -0.7231322771933546 0.589710535065378 -0.6968363196113031
Ni 3.933051912728492 2.080321121652318 12.931146240852609 -0.26275465889856037 -1.4794163585483293 -1.456311654210066
Ni 2.391195152654061 2.9322834433741094 8.422201559230304 1.1207392400188312 -1.3584282141980153 2.5246476980368326
Ni 7.445422622556521 5.961614374334692 1.551100189882814 -0.22976971933210752 0.319144864762831 0.015441788476366954
Ni 7.16427382494144 1.12388474033158 0.43513649485331407 -1.0087980363621336 0.183862929497664 -1.3927861228525948
Ni 7.827739518504792 7.941563101798013 4.106217974375468 -1.9050426894048675 0.27603466383691816 -1.8055176000243356
Ni 7.26253381408097 2.2968757935619664 9.677993206798744 -0.2918695739866457 0.22096651921818072 -0.23319185763977904
Ni 5.075720954464072 6.262040052109701 11.132612374664406 -0.5024449797784895 -1.1717301292444013 -1.9571478947405387
Ni 4.123916707982747 4.771222029284261 1.7665494013921363 0.7285861012190743 -0.035851205370654386 0.30374061439261885
Ni 2.1683506289379295 1.173853066053263 7.226288543046112 -0.734218102693871 -1.4582975742918434 -2.4318241890461927
Ni 8.320943470547475 5.68345893992872 3.741852732280309 2.0967919636291437 1.2048857900607635 -3.3038734757896453
Ni 3.335051830361833 -0.02031319008105727 4.145370407337148 0.5995213505082126 -0.1936827438015632 0.10188330520006325
Ni 7.372880928077536 7.44852965778623 10.537158545559166 0.1061690770596107 0.12646150876005963 1.6552900991929298
Ni 9.138728404742473 0.05181170698906493 5.192214882974534 -0.2308236145179186 1.3623218928254668 1.6039829642785215
Ni 0.04489476453561035 7.513057474812979 9.557416558215099 -1.502968691946973 0.22574234334026927 -0.14954101628734248
Ni 8.346178659120472 8.21031217649941 0.5116642881879744 0.17265420526603814 0.8400506223496692 0.5949609848310399
Ni 3.6447038871421356 7.064346646166458 8.064254997231641 -0.24555320741860934 1.3802337401088811 -0.09582218660764788
P 9.444562976164322 0.6774814537032193 7.564283770895959 -0.6199940165402678 -0.3307091725616627 -0.9453624936153073
P 2.8539918391864867 1.9761122967681026 4.758681163611666 0.7620544081798488 -0.09318089233005887 0.6121562656634039
P 1.597290815453254 7.830751827050667 -0.003909370241770349 -2.9030539195641425 0.5725011131656268 0.28301058093411907
P 4.007677594251795 8.053804749471231 11.044033452612565 -1.0824732545590972 1.0728709555826426 -0.5728178730750975
P 1.6753550755996787 6.122621318844918 8.284224566093453 -1.1362519909424496 0.15720830302461314 -0.6517132020204196
P 2.697152868764893 5.842988148171158 3.0299674942759367 -1.4210142644603527 1.0019923262942099 -0.08102368814223465
P 5.067394478955189 1.5981623009445138 0.79015694958839 1.4190481418729173 -0.13361071821033116 0.8707447089994165
P 6.905319489348331 3.0733883116111125 4.493182161432565 1.7363058169153645 -1.8782137421374812 -1.2518467321913342
Ni 7.864398745147998 0.06278105697687705 9.330070622483243 1.397089378213639 -0.8227488978464284 -0.08789907510582926
Ni 7.526754953295169 4.909314588975388 5.3868545365795155 -0.7931341603037888 -1.906013023737937 4.2871957364781785
Ni 9.10591508146287 1.5731260384075643 1.55098935966273 0.9053998371794407 -0.9539674616754991 -0.3824012016193156
Ni 6.678818515636262 5.489022948693977 12.546705572652813 1.4888258247876875 -1.3965867275456076 -0.3200735472246875
Ni 6.853200867903649 0.8604365708574537 2.7793718412642145 1.6959096724865048 0.48573615166424094 1.9589376396511102
Ni 3.8429478910669475 9.476931084029914 8.427830218783637 0.5180130094200756 1.0378908399630318 0.67884271124736
Ni 3.6056764934031147 8.889303573542922 12.943707946395648 -0.33757298956103154 6.673027260844339 -3.772192974639336
Ni 8.620876569566555 7.203755906762857 6.0267711765420895 0.8391517646844839 -1.3289147781199306 1.4122547731001678
Ni 2.6462751668784175 6.43116507342438 5.3732119995739485 -1.3216701807423754 -1.3132575311986479 0.983809484737596
Ni 6.7289573493888435 3.24221968020591 7.268282776522768 0.7106025201574601 1.4102881362921003 -0.33444241435184985
Ni 4.674335577060304 6.66421166098928 4.6907052952934105 1.8809558236589927 0.3722923953200879 -0.2920428663397164
Ni 5.53951227117674 8.214546459266726 9.499034608435407 -0.26324496827141763 -0.040494617679936715 -0.9423532744753382
Ni 8.616168653380075 5.376705519673695 8.467384292884766 -0.7314225422266049 -0.015159481349257762 -0.19583629980945627
Ni 5.16941511744287 4.021687670790632 4.859835052942281 -1.8302544406493835 1.906973844989309 1.0105810964044855
Ni 2.490970768734911 6.251174901474105 12.563883309499012 -1.4948717738714514 0.9456589418098037 -0.28589844400487535
Ni 5.589196416846924 7.574213021895289 12.88661427951608 1.5456163514141703 1.5756506929927316 1.141703500975324
Ni 1.775774833130591 9.038071830501979 1.9707138230564842 -0.38765807914288075 -0.19543520771629566 -0.21906133177566792
Ni 9.314285367889383 2.7128017169340346 8.340263924981967 -0.46282119473928035 0.6698376795352722 0.06078653515975338
Ni 5.649774131157856 8.403204122787681 6.740791554000047 -0.6227726077266694 -0.4841001587227147 0.32533325296173005
Ni 4.9751875249125606 2.2944128997823197 3.4210068232715107 -0.5087678366727237 -0.7563391029626264 -1.2170152263344458
Ni 0.8851763388740072 4.4724540684763205 12.100556153537125 0.39913316966201584 3.2006902208312358 -0.30197195252797027
Ni 5.854497440256816 6.086748323677522 8.709259407382861 0.8536093348707106 0.3215375333647237 -0.16975271534852698
Ni 7.026181265250313 1.087026587652325 6.577124684207802 4.035216570928567 0.29065549907388655 2.659447808569575
Ni 3.0011213245152413 0.6713194829199104 10.743235498970092 -0.3197295336217074 1.2550287294637417 -0.3605643082498822
P 6.090518445694059 6.166811316852814 3.1672368790845593 -0.17512580673498226 0.11094978627770569 -0.0038165455326127826
P 6.03503702697332 0.6909601135457563 8.497886285078856 -0.8192475695613891 -0.05777551624757147 0.12679369528849777
P 0.5168695194645744 4.904682454135975 5.612147745072719 -0.2931774941647919 0.3528268303963085 -0.5636169233021197
P 3.1411178905514032 8.559001099687118 6.656081269715929 -0.12325585733856838 0.2635972094045138 -2.7820562621321314
P 6.402652341590774 9.5161479311366 4.998185269213432 0.5685688679907563 -2.0759094637531796 -3.268750663944583
P 4.599851985562751 3.064825019392648 7.420789895692699 -1.5894397763570238 0.7288583810438545 -0.8736379713868115
P 4.773618614385225 5.449389304178428 13.436856956961707 -0.7654328377337786 0.41693034574443677 0.24344490282635492
P 7.066980047977003 5.313068133474971 10.272241165218796 0.34694208948075733 -1.3123615017469399 0.1929147552872871
Ni 3.1453237553135693 4.089928773823619 13.540686875110593 -1.490268213661169 0.08831687936953822 0.04125103622998702
Ni 4.017936494110862 7.440601034349443 2.4632812117838117 0.2239435995686337 0.03403934897289622 1.126933541755001
Ni 1.5279224648826597 5.543329756535193 0.9082479699882691 -0.06322471228760079 0.11588861834021978 -0.06167767951545507
Ni 3.255320380579955 1.4829841260724865 1.7898133276745785 -0.5012270482109883 -0.1381343171122976 0.7128342377014563
Ni 1.0887790313032277 1.5502590169303807 3.5870447019600857 0.27418346956079226 -0.8017090464569935 0.22562792924959205
Ni 8.871390757630182 3.304890854229541 3.048281951328127 -0.5588207874650569 0.6569579953591267 1.800058119571661
Ni 5.5233329535781355 9.077800201701361 1.5699138565588016 -1.0872776179262758 -0.9425543347425509 -1.3096042507167769
Ni 3.5424369592764884 5.035973637927923 8.95247964079138 0.2710647214261525 -0.9439234471759357 0.5700791339876956
Ni 2.1107378598309574 7.143310809809291 10.194933771276192 2.4436962578934303 -0.40974771195306847 0.8667420155979266
Ni 6.7912780346822945 3.6600022465810964 1.9699380115158955 0.21999824176764046 -0.33986255692615663 1.3516294461086271
Ni 3.5795698193388574 7.3982676793446664 0.25301591978364474 2.176866400484232 -5.387418344600896 5.689128044606416
Ni 1.0083939674029052 0.9637019179706965 9.555822308126196 -0.42493804654026174 -0.6488816461088954 0.2720882775946604
Ni 1.4149608944123149 2.322821432263708 11.884329235953537 1.9660218001914012 -1.7675480627590978 0.163538359007699
Ni 8.635379224861323 6.0738465493395255 13.518323799591396 2.2919466639905433 -0.6062820662708139 -1.0533583394710118
Ni 0.45724191379248375 6.98039985895403 2.449417014338076 -0.19196704666203712 0.8737955800105984 0.264433332152564
Ni 1.5041271219039172 3.2319039443365423 1.9828729401932335 0.2737360976107286 0.4617886397097079 -1.7245643601087202
Ni 1.235235957176771 8.246450406381538 7.723070321937151 0.2018714502599427 0.4756934227162581 -0.8252346403827595
Ni 2.346796755941733 4.385835988779815 6.886240587957612 -0.42216459756018265 1.977248779255472 -2.1649076854604585
Ni 3.2977768802737146 4.800085249848046 11.218223509711772 0.0547657828869702 -2.6000036463703284 -0.6883838179685758
Ni 0.42997294331760044 2.754585657172583 5.9336728444045965 0.4148469808528468 -0.33763623869879916 -0.27987666329082767
Ni 1.4729999335965331 8.939196117917538 11.63183431293097 -1.7974577058343366 -1.3429226623632486 1.5136845357025803
Ni 5.141641253743161 0.711262883691592 10.635774707029904 2.917745974358678 1.210409033871838 0.6299871231972376
Ni 5.492167874597218 3.7610472002253035 9.249478107145327 -0.3788085991720508 -0.13859454457816778 1.5320496684733291
Ni 2.5647818007772534 4.0111351182116834 4.071349082056698 -0.4098775526627134 -0.17215232592895513 0.9348294552944675
P 6.969089492904421 -0.1279189138475086 12.275050283291433 0.22672656163040952 0.47090937106405345 0.22126888094994798
P 8.926654304978104 4.257803402911708 0.9884066371142319 0.23120156668262762 -0.14852491631800227 0.2539270333046014
P 9.157029600058927 6.368901224141228 11.3377467975712 0.909963288180407 -0.8357892759701541 0.6982272864215588
P -0.369575209705951 9.25024065695018 3.0069110194310884 1.0258917586196268 0.4064505292590354 -1.2843133373604718
P 3.598098358696509 2.789947128247283 10.299789579410985 0.19575222473608223 0.05608115926428406 0.5393323397231421
P 6.687315499176044 6.336949913684501 6.707864558699845 0.07743468523939566 0.7630319416017698 0.42780611211667613
P 1.9133274507238722 1.7677514830099719 0.0896720679832683 -0.6840317116474671 0.3062266140392662 0.5247991791039736
P 9.147907420405849 2.336679946108414 10.741572098401992 -0.6772565977071626 0.2179976663978439 -0.9288056176978906
