# total energy = -340860.48038030637 ev
CRYSTAL
PRIMVEC
9.35177675388683 0.00000000000000 0.00000000000000

0.00000000000000 9.35177675388683 0.00000000000000

0.00000000000000 0.00000000000000 13.68727057139430

PRIMCOORD
 96 1
Ni 0.5955875437077897 8.692626156271675 3.929807384099839 1.6665785276225555 -0.15783153843090883 -0.20061778035849967
Ni 7.574789572811611 7.8175804018765485 12.812914270774654 1.4746577608174216 -0.7632718255267177 0.09800582452252798
Ni 1.363591925767958 3.7373908359008277 5.699653586184784 -1.3561833840278965 0.8697049548809924 2.2009892616743643
Ni 5.875992559723583 3.0782589040714234 5.745204220581575 2.564099476274552 0.831152034308459 -0.9325262610825876
Ni 1.530511789722202 6.922465734486532 8.453066366088253 -0.711268178765917 -0.6402743640558586 -0.07806486262422685
Ni 7.675732651500731 2.113557665574704 13.464058850046305 -1.0878890262580296 0.18502455390593295 1.4541156750000117
Ni 4.654603751849526 2.5826708447744764 9.610311336948351 -2.441156779301028 0.050856163419918866 -0.34930673305819193
Ni 6.418825795371969 4.630233021530473 3.4173964135323844 0.4670928255314407 0.23209065415580027 -1.541774866180893
Ni 3.7747418324066966 3.8408963014308615 5.333998178453407 -0.31254535716844234 1.834064301313777 0.4818208757702347
Ni 8.197468278707145 4.471449203384968 5.414383246221434 -0.522834599178435 0.3492180299991276 0.6562568555270439
Ni 1.4932449592074584 1.7929881089335735 9.741696319449668 1.8411137519613905 3.723322474190878 -0.7210797655397001
Ni 2.466381500370251 6.639583838315769 2.1727310332238985 -0.6884655790491047 0.8264268609186477 0.5926552195159988
Ni 3.553123425998064 9.022538137927668 8.031129160091663 0.021742790993730297 -0.9065324081219871 -0.13976131119275928
Ni 3.1251206575744055 0.7890589723288997 0.3652719848829186 -0.07521042389456725 -0.33533098760439023 0.13076219301794254
Ni 4.346210208591129 8.096095018285608 1.8649313277917727 0.521588899696792 0.47214632879494817 -0.13025002926821438
Ni 4.29240943670874 6.083751632926983 3.8947952669695636 -0.8913672703457746 0.33040269706483744 0.7591503471591764
Ni 5.916756954758405 7.987661166386372 3.9776987682275817 -2.4811893697428813 0.7083044681519026 0.4839458925330375
Ni 3.0699077673964763 8.601895217839042 4.0902763924232 0.601905277359357 0.4181958427204217 -0.5022585747992963
Ni 5.61317022477092 7.14152175405425 8.781656941683586 1.0761385705903208 -0.33580818435112486 2.0841981861245333
Ni 1.2178351326932286 9.270107724933142 8.644688948437654 -0.6515216548349038 -1.2498682683087248 0.9619921317521885
Ni 4.952261455351102 3.9291303154601236 7.791944376157586 1.7213831341672612 0.6890355926199617 -1.2465628580845758
Ni 2.798594019116991 7.153407862356443 6.146378611745336 0.4421790930088966 0.8408612911764227 -0.4437196980231391
Ni 2.0639745450253506 6.023395265513643 13.05624656771583 0.9131766529113822 -0.22546749241232783 -0.7563496444855877
Ni 6.480472707982557 4.004468229293693 10.136382447875377 2.406615808101365 -0.38492833891654354 -1.5275718352076337
P 6.7820581577366275 2.700157216608034 8.457446738337465 -2.560686593938261 -0.7621251135167842 -0.7149713386491171
P 5.222022808683172 5.785429953273199 1.9107157566083557 0.09634566321128568 0.8668919109122296 -1.502423103856148
P 3.129300901800275 2.757876382966127 7.971603230457422 -1.4699161323673782 -0.7152438755842133 -0.9966909686859544
P 5.555778370600535 0.6112040757721737 2.7276542459085364 -0.5010781813379499 -0.11656738957479924 0.13170475943686996
P 3.1331818891688115 2.8931965931413695 0.8587895607981936 -0.018952372732786712 1.1894925954341449 0.5067757459433595
P 3.221425254974865 0.44011518972421004 10.066111326707526 0.6421456129366424 0.007605066040767547 -0.689224311592
P 1.8891150225749918 1.7042490989575625 4.699674640096905 -0.10563788714648904 -1.834387231870834 1.5902722995606482
P 6.847137172429753 6.520442201990089 10.747053472370425 -1.388395192873751 0.8898598325623126 -0.2836793248663695
Ni 8.89351167353321 1.0246274241776432 2.1404150333426566 -2.8788464690800035 -2.4388859809889802 1.2391102584612725
Ni 4.1524507452448365 3.9845302411738857 2.683814051486938 -0.43339980415436974 -0.06320800011705242 -1.5509727306300773
Ni 3.7734045283254902 6.608274089617309 11.009205284927127 -4.007140638627957 3.5197394405564673 -0.7383884320214766
Ni 8.575018211339826 2.9421718481992647 11.37074123498178 0.0015629736117456954 -0.5781714240775269 -1.288854419763935
Ni 4.139545293272353 1.683600375801589 11.692378764532517 0.14002253527394595 0.4117778550092198 1.7329849800722479
Ni 5.002480496722288 5.1074635429854025 11.229939948428948 1.6688177013657193 -2.718479822932067 1.8209642735967089
Ni 7.038203324060049 7.5312102929625 1.950874156507079 -0.06546157203791951 0.213223127827336 -0.7104775645438216
Ni 8.247201027685163 5.792378323429399 0.9176084961069846 -0.2713061480129973 1.3554375070008076 -0.20456828036581542
Ni 7.824210811621832 7.377018197221697 7.855877798193734 3.211710226090824 1.9989280640011189 0.1495137625938328
Ni 1.921902352006533 3.476457559860079 3.6255117894315463 1.145088615397473 0.9910612812040028 -2.552720287903333
Ni 7.1564939486976895 0.7731497296509368 7.314258423172903 1.3000094079394902 1.862782495184076 -1.5194319797093188
Ni 1.4660780476277013 2.5155063838568124 12.163630695084542 0.8094974321531607 -0.4835250029455351 1.0943448091857024
Ni 8.230582920326395 8.26583911883093 10.521541921283427 0.9660668160421942 0.37307581045333166 -0.2940557830046871
Ni 1.2285335653428815 7.273176067727164 10.943027436460984 -0.24157082573209368 0.07157616957608963 0.16784649946474964
Ni 1.1786792432665705 4.569698970358092 11.105331263390866 0.9532730067116356 0.12176641727723544 0.04652771124789406
Ni 1.6565643890969153 4.571747009475465 1.6782782796294584 -0.061523927546410166 -0.04287725897950035 -1.5837707509967047
Ni 0.831184050886908 2.028662235860063 7.299832372294096 0.6219393131920966 0.13725345716924103 0.13422032676987208
Ni 6.651591519716254 2.3856756666582712 3.446919972863638 0.45523386931032567 -1.590889364319357 0.1959949368745076
Ni 8.011564307865841 6.872265396668929 4.242300746303696 1.7292324550083509 0.8855853735566749 -0.027449354460204342
Ni 3.2418775908182136 4.647889176113117 9.146860658595925 0.05690674048937296 -0.766923306236376 5.8943159608341
Ni 8.423987016154603 1.3769275594728576 9.24598388152139 0.6058676044412146 -1.6574063742049843 0.7481845921762921
Ni 8.735924882817036 5.703115613953055 10.226321290813756 -0.014797727134464839 0.02463656760175757 -1.2970878634173209
Ni 2.64904040466485 4.983851757353311 7.201653678824589 -1.3668411208520588 0.5212855095237603 -2.64398596548855
Ni 5.345325985681138 1.7085228609513485 0.6261594372173879 -0.3171257774502732 0.8063599149654436 0.785878250072324
P 9.446977879393708 6.049757924289318 12.508399844529436 -1.777080170619249 0.3074643431011092 -0.34808443061531663
P 8.575233302206035 8.422967672484313 5.840385669589357 0.4121110699789225 -0.2365026671805669 1.3003637059551152
P 2.105833097944797 -0.034496834229055716 2.1005446681691162 -0.4509689233863846 -1.0707639365419688 0.2130074122721041
P 3.252388987932034 3.771253619663409 11.44071029375926 -0.7447776233772722 0.30138574100719706 -0.2585632465250321
P 6.182973984686439 2.8815536310357595 12.091759484907637 -0.01734723302919593 0.022647305085870675 0.38816355802438957
P 3.6735462557442013 7.890589723288996 13.129171723137153 -0.40456231109738716 -0.38070298798128627 -0.35429930117677694
P 3.6591538712618448 6.656987494925038 8.618532028751396 -2.0356339040625846 0.5770008008081934 0.02498469496979568
P 0.2442160398479865 5.149799036521223 7.628066645193667 0.12711045519796818 0.8315287009215873 -0.5581607852835548
Ni 6.636366827099439 9.063545679159075 9.11061691246219 -0.8102276254509659 -1.414608875154641 -0.12699501266602645
Ni 5.703611258123012 6.3745825393706514 13.245938008157752 -0.6326808679793169 1.0033951201790074 0.7983617272513153
Ni 0.8876519495102773 2.28908116417727 1.356657583276946 3.238269464636591 2.3311714138191206 -1.9139078531049813
Ni 0.014462522808293935 0.6553949618234588 13.070686646259823 0.4231940672659615 -0.7707313671285564 0.2012081056443309
Ni 4.830136602228883 6.202107720002164 6.781208081226266 0.6554819250342324 -0.837514486191377 -1.7858142080581374
Ni 2.2075056152236665 0.08519936246036981 11.988393360851799 0.26582018519776157 -0.5572734975825951 -1.0916626343678488
Ni 6.268851350964203 1.366762178100329 10.370694020923322 1.0943170412715606 0.9156125160463845 2.4455379390878593
Ni 8.686425928258808 3.4171672950009886 8.405640700444735 1.0038311792751615 2.1745747762365775 0.44225802587594804
Ni 3.782326123384728 5.052269356361057 0.2518583118421267 1.2018526596613948 -1.5592431981689858 0.9134245072561301
Ni 4.646121690299495 1.6025952852322762 6.76220994667402 -1.0089258201892497 -1.5618065880207876 0.5654182381769165
Ni 9.214894834755214 2.581716963541728 4.231748201371993 -0.6262199428453215 -0.6118958129131655 -1.409669785981811
Ni 1.2803985194293983 8.041892120001178 0.011982431603147119 -0.0746362965586521 0.43537801092666306 1.6419884969880174
Ni 4.81791382996219 8.725535058801508 11.143600604377674 0.22765755808511115 -0.18377114111480608 -0.5731863121581097
Ni 7.331063566067507 4.953580055878725 12.17235029176508 0.19100416852813557 0.3056275470026865 0.37440429945676806
Ni 8.992266436453082 4.054668567111295 13.504394933704072 2.2265930782853975 -1.592460565461219 0.35690254312757885
Ni 6.125909442703762 8.296606464475476 6.571545921445765 0.8502427323913228 -1.1259583223259255 -0.28572309476927565
Ni 7.804946151431023 9.247672812409963 4.004936753310956 -1.5942251135608092 2.546502846238711 0.01965891188150808
Ni 6.112564457222071 4.123619217396165 0.45059292044157995 0.42750195061269597 -0.2736592216262061 0.6405188759664969
Ni 8.951296302328844 5.118788544680096 3.072025944839786 1.570848900728714 -0.43027077160708477 0.6968818281372579
Ni 6.973750878411965 5.481450448660464 7.600267553502794 -0.04868229569705164 -3.3128605097796044 -0.5049183810196466
Ni 0.5849003331902867 6.539716213957689 5.951608221327865 -1.014671207313459 -0.2522776706266365 -0.4812740021278292
Ni 3.972644132871692 2.138919684233671 3.9605485447693662 0.776022954544799 -3.1333368310872425 -0.14650814299828963
Ni 5.585778870548164 8.959507162351915 13.43194858925448 -0.053404640873385444 -0.00733689998104543 0.603422999555464
Ni 1.3879158972030516 9.327359302451653 6.4345779281998325 0.07170652450636683 -1.065561566405423 -2.213530845784801
P 7.670832320461904 -0.03594448927640386 0.7128429266545934 -0.5242715887352778 0.2529919230848417 -0.8734801056527086
P 4.316041376661252 8.801237691929954 5.873166452777144 -1.7697491841754747 0.9186099081118115 -0.6709463392184187
P 0.3219049903669785 0.7315100083084152 10.941659271516365 -2.3174268105395184 -1.3939091807134445 1.474160509466029
P 7.832300098546614 1.965098209007186 5.640223044673819 -1.027147999624231 0.5681430933072473 -0.2843120733543619
P 6.310382591695942 5.985155850212567 4.9208338742650675 -1.3488878788077479 -0.11917603084223992 3.5736873555278326
P 0.0351608103812632 7.271848115422749 2.289387902456036 -0.19237765183689448 -0.6520993817152447 -0.47379877679670657
P 1.8179854082976663 5.667410530162518 4.197612345727095 0.6030105946083938 -0.02938153848591069 0.1277300910598381
P 8.287245335907029 3.3403798557647124 2.1466975569912905 -0.09235248289149257 -0.7600726018631297 -1.4211831859380493
