# total energy = -381173.3321707804 ev
CRYSTAL
PRIMVEC
9.23195676699963 0.00000000000000 0.00000000000000

0.00000000000000 9.23195676699963 0.00000000000000

0.00000000000000 0.00000000000000 13.51190190899559

PRIMCOORD
 96 1
Ni 8.63928362228606 1.6110687783581787 7.619036998205445 0.5838725882273622 -0.3061469098412663 0.08974538428594867
Ni 4.567556778617848 2.356032299078108 0.640211276680065 -0.5645224658355245 0.20580678075860687 0.8858671664631517
Ni 0.20945463551309587 8.645182842670971 11.457957894871367 -0.6825772385891277 -0.8490142593008604 -0.18778823269399916
Ni 2.5499864791510376 9.31550599279308 4.756473079873805 -0.9997546952129427 -0.20397461264587452 -1.3646747093283593
Ni 2.0082460231150727 4.068504890750631 10.133250568014553 0.6946583381233777 -1.3894789128562328 0.011349877795180452
Ni 0.28990836929773867 2.791346757309288 1.6165100936866086 -2.959006780780678 -1.7195962174701676 2.8420634959236986
Ni 0.6871603929045822 7.447317986046535 9.115925858256041 -0.6998493954060141 0.9522083128925471 -0.4498605208135543
Ni 0.8697841924166331 1.6939255904936705 11.51122166953607 0.5873358641856143 0.816448409549697 -0.46832001307032245
Ni 1.6493352392274394 1.411455408776719 6.594402425065442 0.41619989533631546 1.934005652296121 -1.5905147545887577
Ni 6.37502620559669 2.5206750163621594 6.612413972750828 0.37633931169595186 -0.9525122172862113 1.1572280789734846
Ni 7.690857006005785 5.293447076622242 5.055910674963883 1.0088036927890884 2.3758623289685925 1.2671923614094693
Ni 7.769143999533247 8.397766400862483 8.159513599357695 0.04536017330235414 0.07114499557594199 -0.26348665196857846
Ni 6.437471161282981 5.910621851539445 2.2156410090696808 -0.0678994920554508 0.012679652350197518 0.7867771077375095
Ni 6.974937221328002 6.010419304373391 8.65157597274382 0.4447291131242599 -0.6365007559460393 0.7097733393879454
Ni 5.3188718856051 5.666538146129945 4.5668468411411665 0.18758820086805114 -0.7142637710591312 -1.0733820908911063
Ni 4.585845285006752 0.4815084003907743 12.723914895146807 0.36443716094172723 -0.2982129997061703 0.008329088690985654
Ni 4.296331120263686 4.126656986532409 7.91424543389282 -0.263111785127663 -1.453631793385058 0.6779263700806777
Ni 7.347409749731182 4.460964605590953 10.71038449996863 -1.0803207269924686 0.035491765148706625 0.05078622941393189
Ni 8.163413177903212 1.288291873322725 3.1405852200744304 -1.5407852485741143 1.687177177709514 -0.5192751639619508
Ni 0.9876901284821965 4.401723138908674 5.448038962555664 -0.35746690027148115 -1.9386938018004094 -1.4405921865922804
Ni 3.5360333193257003 3.184942002834029 4.172259160262156 -0.9949287345792092 -0.47658688106480496 0.7625267198305772
Ni 4.025031606255252 6.007797428646764 6.73965526351627 -0.7726666364780564 0.6899136243495408 0.2007216529262156
Ni 5.852599003152641 3.0602459625539082 4.3874902311349375 0.9435616929611428 0.13831120900979404 -0.4028273306841514
Ni 7.715017036909249 0.39110630997580215 5.947141626185191 -2.229913143797566 -0.40310835225967995 -0.6457299878537911
P 6.047587162385367 2.25989993308737 12.613441607487959 -0.1522332184075249 0.1576970697355736 -0.8825401589724478
Ni 2.832484356738341 8.298365922170245 9.454642659874574 0.8280880506711545 -0.5183156282621589 -4.239464234730169
P 3.1734112888109394 1.432061136318381 10.407785882875743 0.21919940001542895 -0.4620004986101979 -1.1138296573831912
Ni 7.037372945057509 7.574026592905546 4.0991734511867435 0.026535584396683333 -0.1018557943962375 -0.2836348447816793
P 5.6772287520857 0.07401352073219503 7.29081970103724 -0.5411773633516809 0.47026222439835785 -1.5084088891259377
P 2.5921395938263196 7.238915793606804 5.775068106885781 -1.1048984163318325 -0.8347132692971561 -1.8765091007415489
P 3.178710432004898 3.3348782129613297 6.234162239400927 -0.6436198834893238 -0.5676095894012805 0.5706897709885009
Ni 1.1306469792808693 5.790006336157807 13.290036949049048 -0.6867475679167334 1.0445116877136593 -0.4207188662525916
Ni 8.654184000535274 6.710570906864276 2.595150134933549 -0.17620027074608366 -0.4540218512800955 1.0648853662740048
Ni 3.031913087184123 4.929172525843164 12.1381740098831 -1.344696980654852 1.5477840484894505 0.6782259035989674
Ni 0.343996557703245 5.947531214761472 6.955616582170658 -0.09730854134518725 1.4323895961768298 0.5385741214008788
Ni 2.4888247654577085 2.9571527011481105 2.08798058746625 1.2367612986131216 -1.018846421737071 -0.3386963045321973
Ni 6.22303126910658 1.0375980868559533 9.05863602723788 0.7469610041818362 1.5515108625217344 -0.8356941451531865
Ni 1.319957485091498 3.387204944012468 13.49116158995603 1.396658718434124 0.945079929377882 -2.9748663735207543
Ni 3.1887178731586436 2.707492893841135 12.09474688517164 0.0007024253836633063 -1.1022802619826952 0.3879851234649963
Ni 0.08289004717991372 5.206232780884751 9.21346886724336 -0.18681712702998146 -0.4450998662001174 0.6786665906808119
Ni 2.9242500071702953 5.404562908473249 4.392733059392514 -0.39309544810836816 0.804663243989311 0.5350033733304851
Ni 5.95597845521874 7.2570196608600295 6.301585989380775 1.4197724216334517 1.0830322123863605 0.4155676610689552
Ni 6.205527479044308 4.857726412292572 6.606319958077777 -0.9499300583813317 -0.3333319548964904 1.0530122689855026
Ni 8.271510159885883 7.428087820065675 -0.1653738882613359 3.2389747182337314 0.35077586140455075 2.0851764908774024
Ni 7.746793432159428 8.611070762354466 1.8120004713683793 0.5851463127334632 -0.3676029602642185 0.9816932097255416
Ni 6.926866422354241 5.739775259296613 13.172429205187605 -0.8009071193809884 -0.7267827294617484 -1.5307312067722219
Ni 4.962121379604899 8.91400819226132 10.407407372647604 -0.5805342678827486 1.308662712739114 2.442212217148736
Ni 1.5968423329541908 1.65381273826763 8.90057384874939 -0.6102063410258846 -0.631815434655228 1.4161525654926774
Ni 2.452737046389448 1.1251724289080174 0.3470449498332883 -0.9460335515404028 -0.9308349894230937 -0.05349848613877238
Ni 3.2758306173715126 8.755846308639567 6.887772778157142 1.1717360427816723 -0.21126574699064907 1.64010284992953
Ni 4.953175613481301 2.803274445474085 10.435701473798897 0.16037770189153025 -0.7729800539534171 0.01802497582251089
Ni 5.618781233686836 8.061464679138618 0.9289139524218264 -0.1916271468241151 -0.5547057368554188 0.2052881892509755
Ni 0.8291192691749156 6.717771833155717 4.635407045001112 -0.18564598954001574 -0.014712623619826273 -0.3959367742119052
Ni 8.860056636816216 0.9195619801997369 0.011363615605301027 0.9873329245098221 -0.4935679890038338 0.2049009811148858
Ni 2.725753704359687 8.812299724373108 11.422962316290642 -0.5146065548416879 1.0459090822818182 4.753361679319975
Ni 1.004972351581655 4.631294208253886 2.9828332353338816 0.386227003123309 0.8245602400235542 -0.15723967048318083
P 2.278502326006926 5.648415814963151 8.654035366031051 0.26885717225187244 0.8373018559599387 -0.16401221332032398
Ni 1.5171151541684407 6.953620633113979 2.0065178008051268 0.5527473275774674 0.1864286333423112 0.276016409004473
P 4.635550140331263 1.794470831827112 2.9340423437309764 -0.21578394657597674 1.952576473319773 -0.5138326527901409
Ni 7.054701327940887 3.188994831862161 1.626617239973621 -0.9570563850134679 -0.7267775872554257 -0.63323519782089
P 9.022732947305297 0.5264200237530852 9.67126498663469 -0.5007794191506085 0.11487508947404086 -1.04089414556573
P 8.574087543478168 2.2419068493155514 5.149494097686587 -0.324007592171771 0.8708701788336872 0.47996685328063143
P 6.515665835242604 7.232693454734457 10.786672774852377 -0.35788316187329333 -1.8416979065996348 -1.5378660180447903
Ni 7.999961383044284 3.2438695829856554 12.805445998288128 0.4082523583544646 0.11418269139270656 0.5598170899400553
Ni 1.3781834365275478 3.7101295603564637 7.619024073465947 0.9523201558800631 0.0610341323941852 0.9269996748374035
Ni 1.152286685982328 2.0561783427370752 3.9224645663861364 0.09190973892711912 0.8750091407027252 0.5669159057683656
Ni 3.855431328178247 -0.0013035522978865099 2.2915507737252887 -1.142303339342852 -0.6057853291400535 -0.21475961907652047
Ni 8.24405432041057 3.94619992727754 7.497159474331448 -0.9241948583987567 0.1770263661918048 -0.6577830623635832
Ni 8.58512896379171 2.7949656843685764 9.624459888936002 0.8602160415539507 0.43232122637821024 0.09962484818318972
Ni 3.870590201217409 6.527953569721973 2.6138236139203412 1.3370528338460328 0.42441071328188196 0.1775056198210685
Ni 5.120763324979416 4.3146657864365086 12.318896026297669 1.4889713492266163 -0.44606608676812853 0.8018710259561546
Ni 4.60828817194841 1.1175191367341653 5.575051300792865 0.37198026339630774 0.3680199931969791 -0.16280867993052608
Ni 6.821298996530357 8.575915470921379 12.294844009288576 -1.048458331066233 1.9438632618164908 -0.2247313855772517
Ni 2.974961145784251 5.01220474515755 1.1424731159210437 -0.10323750523511253 0.13659294076710668 -0.8765474317241226
Ni 4.450246303764846 7.908731186105797 4.451158421095095 -0.02037290722939717 -0.4722432593841286 0.3586722334334919
Ni 1.8977856601957237 6.671335090532706 10.954288182220845 0.2830941417868608 -0.9679552913141588 0.14365858936463646
Ni 3.6878528486369158 1.5222296582267207 7.891450809397695 1.2992617311401882 0.9505160127917888 0.7535491989223151
Ni 4.862259303073465 3.9653193097769943 2.261865416686662 -0.15743173188932888 1.0438159471982151 0.7306728085447739
Ni 4.208369036026697 5.171095953365232 10.04481580759023 0.3132866062098411 1.197782346246763 0.08036291462978418
Ni 8.38987307781225 4.983040993677214 1.1938775744894705 1.6587376914218983 -0.5411092291179068 -0.374589933105013
Ni 3.2514305555916683 7.598205087722577 0.6193359760003129 -0.6347143534695778 0.45046601560803706 -1.7273686623267348
Ni 7.394206538668765 1.3876000324471245 11.041844983555018 -0.12637126303909846 -0.5412203007744744 1.4220990128840993
Ni 0.8952800874667263 0.2905841485343201 2.371243794270938 1.4331164470405255 -0.40614482509315863 -2.7117412186566527
Ni 8.67596218658849 6.310033229838043 11.305935262510905 -0.19915327999783122 -0.0189873397357802 -0.1767962524588697
Ni 5.901232951490219 0.299844724384249 3.536713714540674 1.3140365754565175 0.018317567362265228 -0.020443355456016405
Ni 5.38597897946726 7.715201676044926 8.705799870914051 -0.5694918940256579 -1.2533104612210544 -1.2481402298740247
Ni 4.6159783919493975 7.065779676081565 12.116554613486567 0.5555102350345852 -0.617667168179304 -0.4679526024285748
Ni 0.1152111278803434 9.065744633961481 4.3354561531138485 0.24962043550944754 -1.7015622427865922 1.7025130367356356
P 0.42757623205491596 3.9611095374835363 11.526071272022973 -1.1305695958456918 1.0328028839171632 0.04335574127781565
Ni 6.668113137615125 1.0238332392911602 0.7983103829956885 -1.004976091512882 0.3793210200320951 -0.03818499571015359
P 8.304662116696864 7.484901282113787 5.882919518818 -0.22958048613943685 -0.5471515786572448 0.005327068639868245
Ni 0.6690786823476381 8.651626748506134 6.881543976915046 0.3142448563580523 -1.3348907931977074 0.23514255360824665
P 1.2333617304585272 8.407081445257438 13.335625274843618 0.3767380897962673 -0.008473070468017666 1.1893365294722549
P 5.045532109147425 5.879131646949566 0.5822493592080347 -1.9588684769760716 0.013991943403717838 0.09811046842119234
P 6.215959590210114 3.5636737979366933 8.90899154694495 1.378900366009438 0.5116451582205188 -1.1416039992829823
Ni 7.95908227840518 3.9471600507830655 3.508784275682345 1.3581088831853836 -1.6639531741845663 -0.8198157833600332
