# total energy = -340860.1323468428 ev
CRYSTAL
PRIMVEC
9.41209428942082 0.00000000000000 0.00000000000000

0.00000000000000 9.41209428942082 0.00000000000000

0.00000000000000 0.00000000000000 13.77555138164069

PRIMCOORD
 96 1
Ni 4.251386386059077 0.04532393864445286 1.116880486944411 1.0545698432806097 -0.06130384111580411 -0.6347770883867132
Ni 8.225473658766921 4.628519580440675 1.5610870867796403 1.2394167339580977 1.2504300543494657 0.5616528575972134
Ni 6.264237984153855 2.1759443628816277 9.749921346033503 2.639032478138016 0.5796806616332016 1.2085164448348154
Ni 6.9008437858556215 2.983492615764072 3.7960321020933345 1.5915192845938717 0.9482233601028701 0.7822771629846269
Ni 5.948876362677157 4.465530348687795 2.452351209721909 -1.2212464908069742 0.8904979803669439 -0.8548228955628374
Ni -0.014544508854173606 2.358331920363137 13.28799242310265 1.5304566129545965 -0.2956547520606908 1.653319091509488
Ni 7.922413644144817 7.219339634633451 8.04164322727561 -0.2899942113408038 -0.541317488473971 1.667972579756605
Ni 0.6476066571659214 9.046067073929754 10.919121781090631 0.10023779917684028 -1.3834134233884432 -2.4077697192001497
Ni 4.067248179094054 2.041963204828718 9.660683400425407 -2.1967094033520875 -0.3700982158822465 -0.8374754054233254
Ni 8.23952591510503 7.5934515468418855 13.322046320394623 0.14924791052695585 -0.1923560545703397 -0.45521201493345476
Ni 5.713423419238338 5.557333252385549 12.44863505734661 1.4185470338667827 0.14550566987570424 -1.0136749048384606
Ni 6.368985178250857 1.0180497351341706 2.76560734577139 -3.43771842149797 1.1310475639233748 -0.1332872734326414
Ni -0.20419726169227154 0.22321439761400697 1.0921351506158612 0.43143573844946337 0.2190119665949712 0.5767616882141938
Ni 2.764623781948662 7.6591197266617055 10.632893414164068 -0.3636627446695479 -1.1283964994537727 -1.0518156775742402
Ni 5.427606360819462 3.306976874360521 5.710985686893013 1.5150428495026873 0.11238549028296775 -1.251202413739116
Ni 9.396667575332696 6.56469084873868 10.18294261336223 -0.07996490786041713 0.8192424273550666 -1.4931231666114606
Ni 3.2624859060348377 3.603523719936427 6.116854004248656 0.8396677850889539 0.48227647525041467 0.8494305209026726
Ni 1.583820117411547 1.4350713838767253 3.5833103068676224 0.3396969778825698 -0.5739033928297923 0.667997798113056
Ni 2.598773273620575 6.288144702907236 6.078393364547102 0.45667420130127806 -0.6640007611385209 -1.468012744697078
Ni 2.1244696208098777 8.826115849304642 2.04965006199639 -0.16342163092417664 -0.5793623590618344 0.3474449972591049
Ni 1.1428823378216129 5.275723399983507 2.5424842454691574 -0.4732634731185268 -0.22735776745650518 0.18103420179961724
Ni 1.799206476447921 3.757609110767771 4.509192111532308 -1.5607377804366411 0.33538035278508693 -2.084518802688746
Ni 6.114397447715335 4.5036399172832455 7.564691952423447 -0.7652292063634046 1.0668242351679305 1.0470689069178742
Ni 3.1982483645026205 1.135202069119739 5.783444692531954 -1.471785067255317 0.9293609759807285 0.23384414651179727
P 1.9754102881731421 3.0967765791167112 11.857222366182734 -0.6393557088963312 -3.219611483215771 1.0226915065147741
P 7.92507726674608 6.17286537562715 11.639872644338503 -0.3360192719206665 -0.21160358994604203 1.322227338797426
P 4.794031253384856 4.341723664246069 0.07691280851850803 -1.2335291648290692 -0.8564565745115185 0.5237787082592593
P -0.07056246869846601 2.59163890637055 4.991832997205898 0.704098143380039 -0.20402886292257766 -0.3670689421376194
P 5.08964630165502 7.958396079496857 2.6152745568168063 -0.11488023168036345 1.2989285161704855 -1.0124353760044047
P 2.457638924129645 9.430635822569293 9.248546628467501 3.8734275905118065 -0.8891193548518622 0.188753681931062
P 1.8508882845876136 5.872243093350372 9.155341485239502 1.8031876663395785 -0.548713523827726 2.2664343786520513
P 7.456693821059744 5.372187951362803 3.783041529958131 0.2314514779099046 0.06771720084131563 -0.17411921984733883
Ni 7.631335225181397 7.627692744804405 4.098240322208674 -1.4469916623607209 -0.5991379990268649 1.6074583244216314
Ni 0.3405154426847342 2.762402527765277 2.1237213593370847 -1.9527122275666884 1.3788016356480446 -0.032633983984937345
Ni 0.6921268029829968 6.067195796318402 7.495621300623568 -0.6463323973244803 1.1958745877010888 -1.4535510607457933
Ni 2.604505238864988 3.815615846073713 10.04885133380955 0.6217642210668132 2.2793150912694613 -2.4974320568539894
Ni 7.571182532444049 5.8472163354113 6.028277728848576 0.06710142163418767 0.35597231800382567 -0.719662059256567
Ni 5.310924631533763 2.054245987495318 7.624340156922535 0.07998213425159773 0.632635359453362 0.004577849178669535
Ni 6.650227958987 2.8900587586519375 12.57857936828404 -0.8148859501585837 -0.4005555039308392 0.44584342923436115
Ni 2.7693110047593645 4.87146455070142 12.529345645793068 -0.23470006675418936 1.5283249113235744 0.8623279456906311
Ni 9.037793843306044 8.244071956505772 6.06774452139845 -2.62990711879798 -4.074060283268641 1.11366639233245
Ni 3.194822362287569 2.0480622417390295 13.267935250794203 0.7397652577643452 0.5963156990867214 1.1622512432196888
Ni 0.8654712205518093 4.7153837959426275 0.1998676984534701 0.5643288617674798 0.29640140041872826 0.5139498950942955
Ni 7.692871495736362 1.1920793531459934 5.090148907474481 -0.9010706136764676 -1.3252352723858143 0.4526283133666785
Ni 0.5945798607940009 0.51865249851702 5.864775537972839 1.6869730321185075 5.507451838347425 -1.4029329814786098
Ni 5.0477718954606114 0.02448744495302108 10.351968762205036 -0.1882885693691854 0.2659880782341935 0.5622169576307995
Ni 1.1007067446192884 6.848154883658207 12.379302749333606 -0.16240141718977835 0.3534348962939526 0.14985443376270322
Ni 6.049839894987207 7.654592509448959 13.766844940942287 -2.2180858121453353 0.2690685169317302 0.24043414102448912
Ni 8.282605069331105 1.3544379746010473 11.650327598350808 0.21463903433825618 0.4564857394395558 -1.3695688041958671
Ni 1.245427101923225 1.6784493104613503 9.912142550916196 0.2884044982561807 1.646420821727758 0.7750091685683039
Ni 0.6854244508474521 9.20924454756258 8.382423149801673 -2.862900230163392 -0.7239244340773467 -0.49073489043041296
Ni 0.5167954923713342 4.457172409218109 11.237819048680006 0.2136059650880515 0.16146553563907032 -1.4368499459410287
Ni 0.3160722345735009 6.413382025636566 4.603692358894348 0.41644929234296024 -1.5783187267431982 0.6336337188108894
Ni 3.662876384683996 6.920505650216178 8.17067832993289 -1.982569677247753 1.5134575072934386 3.52552776510347
Ni 4.3958808531070765 6.108618422000935 1.4803482620511912 0.23268637875827025 0.18011863196388334 -1.0290408457715696
Ni 0.15603934154520321 7.117670195273596 1.41688439464556 0.41338890825008157 -0.32829182136942175 -0.48187846848104754
P 2.6389252666134597 2.9285918714772703 7.977145911949066 0.37904899731763103 -0.8147082869301387 1.825628768951914
P 2.0729760545501326 6.703933367336132 0.5707089079978092 0.619912512570055 -0.5500127022551238 0.936332265092239
P 2.046631603451426 1.9788362903881935 1.3998437984632777 1.048442390226633 -1.7814672439433514 -0.2857225805486434
P 8.0178428651844 -0.002095132123819999 7.881281852166803 -0.3608291318754947 0.5078620370290028 -2.2897229168663467
P 7.28049942142852 2.895291882914489 1.0733100214116729 0.24361690962784494 -1.643871572943343 -0.512189203649447
P 5.948763417549188 7.83097515096013 9.442134577805907 0.2734255083488452 -1.309058662625952 -1.3177057967779888
P 5.229971211062173 1.0475472377220048 5.714635696945202 2.2301432575305014 -0.824752301429702 -0.5042172411875638
P 7.8973210015477635 9.279421120407154 2.7968225555137485 1.78618727512684 -1.313201224039416 -0.48223816581331147
Ni 6.9228398495275325 5.1959841396375825 9.919609165084328 1.5483196092779463 0.6807674390738985 -0.12363843748896772
Ni 7.623494950881568 9.17641516369967 9.912183964129783 0.8077801923517378 0.008345543751217885 -0.8389496759760068
Ni 2.1406490103913987 8.615360240514987 6.769057528122905 1.3525221331262254 -1.5875615854977048 -0.09609292377053127
Ni 7.922319523204844 3.338121493397899 6.550301639435463 -0.612342670642597 -0.674804022401612 -1.8016601739514586
Ni 5.214554201094442 2.386041125091466 1.0808848746607758 -1.165862357609715 0.7830317817624645 0.012966587462997024
Ni 7.268621358803808 6.813367784243837 1.8784337188803881 -1.0947546430296116 0.4397375734469395 0.29377758964263595
Ni 2.130286294900267 9.525509730063026 13.634889265517616 -0.7641704260815871 -0.9063897118965357 0.0025644182930665512
Ni 4.493041899442179 9.326330996890167 7.98085145335584 -0.6318570865264408 -0.8922954385869988 -0.028961163119040446
Ni 1.0136072267674003 3.6117781263721422 6.89069566610763 -0.7826116635059103 1.1064140816454107 -1.5592033460699857
Ni 9.231955930378293 2.1360653206146676 8.075228402286514 -1.184000204861006 -1.6565291138063536 0.26499923195836295
Ni 4.3044047115464 3.4308870918362184 11.738643158747161 2.095326691937527 0.03754581946425792 -1.1392164728874123
Ni 2.9017674035846963 0.4523546496087735 11.365270095917522 0.03429080286206998 1.7545066561941072 0.25116618273001257
Ni 2.926634155925812 6.702653322552487 3.2124446258788906 -0.6000666814887213 0.5579183302554456 1.025624363890853
Ni 3.7023695310970637 6.871609821899715 12.906217183961537 0.4563152752999625 2.2992953910461305 0.5724016114732852
Ni 6.441034757800912 8.176596654638452 6.484923352110762 -0.40196575401480444 0.6496138962892296 -0.1086926148124128
Ni 6.782204341018464 0.6970483869342342 0.3055344541340181 0.49035205316969743 0.2862049195017006 0.5431758818389484
Ni 8.410666020259653 4.324104224282947 12.753625492447581 -2.5154297789829902 1.579742603673918 0.9398582759676264
Ni 5.252004923110074 6.540671184857329 4.12043215743573 1.0309339490292246 -1.449971056704019 0.7632368585237242
Ni 3.8289151348920316 0.4949029617333947 3.508757110314262 0.6951406770764351 -0.9659449457523491 -0.20697637558667578
Ni 2.9585976271409637 3.9347917802687213 1.881079458503056 0.7077879335268004 -0.31802849177020065 -0.36522777516382265
Ni 4.211949712209995 8.310060147521504 5.401902873321976 -0.22079785485080042 0.037841753438121926 0.1398854954754494
Ni 6.74895141292567 9.15344024225203 11.95621406480033 -1.3975071824773482 -0.9089320187024152 1.3012545932005009
Ni 0.2575327747473065 8.302229285315672 3.3973678014832975 0.1939100293210209 1.4512828335369068 -0.21888161166469403
Ni 4.373960086187145 2.772708770692424 3.61984240850911 -0.2480885722459534 0.475239108787659 0.11560091189647187
P 3.7093062443731433 4.944643581531161 4.337645403916999 -0.007290877234458412 -0.9738297478170649 -0.6123930642645583
P 8.48559570057291 4.8076882017750755 7.930268036585643 -1.321745514065001 0.4798593811684897 0.6885277997456077
P 5.078116486508211 4.33012796444128 9.531937249053849 -1.3782894718983165 -1.8844067583220707 0.6033098710163673
P 4.477549592722468 9.174730398874136 12.611544286300512 0.846674298313774 -0.8925661757498821 0.8842250028740384
P 2.0265461948609858 8.500617402592752 4.457726781554556 1.6567036917110047 0.619696797014823 1.0936138445569488
P 8.72454994297876 2.918144447140162 10.016850214218408 -0.8609614043604076 -0.15110707522288172 0.48442720304483017
P 4.8032645175963 6.434794539480639 6.707467608632154 2.967461853526567 -0.7901452528787941 -3.2131297321461694
P 9.543863313357948 9.229640555254935 12.78292628227087 -0.9841604403191115 0.6168544424700215 1.9652568970009183
