# total energy = -340897.9367129159 ev
CRYSTAL
PRIMVEC
8.99374466806836 0.00000000000000 0.00000000000000
0.00000000000000 8.99374466806836 0.00000000000000
0.00000000000000 0.00000000000000 13.16325442336756
PRIMCOORD
 96 1
Ni 6.282894993495419 1.9492502179695186 11.109536370030428 -0.3094608047058477 0.0462186646479075 1.7825494212639366
Ni 4.618521632198986 0.384816244803693 6.100470377163027 -0.32536770574409124 -0.10093508235418101 -0.03916175780112611
Ni 2.851457696332915 1.5757310156178244 4.664215250447235 -0.736159542690958 -0.014383265304865552 0.6745577107187609
Ni 3.208059665301749 4.123730779164422 4.424051693873151 0.7659676271913259 0.3132462398902089 0.9810504339352201
Ni 4.9689089237262705 4.660711287594517 2.447496467636562 0.03964461097481559 -0.7620703490194488 0.3207939703304798
Ni 7.120806192510562 6.037158912836265 2.7708386701124925 0.5088058889995107 -0.39881923796602287 -1.093985883184387
Ni 4.913435507721232 4.341163545918282 11.572119724677242 0.7852874105658605 1.2380242244859454 -0.5661306908629089
Ni 5.6112061801166435 7.7734282675737285 12.380159100748298 -0.6397807122488918 0.20007836291526188 -0.34715497682251184
Ni 1.758214091289392 6.59218087271028 0.4033982202913729 0.33609126280918245 -0.9294054560654187 -1.0570805255176052
Ni 2.7903811775115432 1.6915344696516885 0.3638590213966014 -0.07944528791152124 -0.7108511458331563 -0.08590312772172302
Ni 0.7524823182422744 8.921308870384859 4.327854602824207 -0.17103029650936996 -0.09905020662664231 1.4519184102383769
Ni 8.46157563336645 2.3507939281473633 1.5057443941317012 0.5625131487149796 0.3948419984858297 -0.31931455757147587
Ni 6.819524745890463 0.7894897780635345 4.87686694263101 -0.26625521585265116 -0.40311143758347356 -0.6414010214611342
Ni 0.7800328557338818 7.288215752419412 2.386432540057475 -0.775713136613864 0.34095039067369665 0.9382004286492294
Ni 7.454429144311292 3.7039027864414664 3.9317188312072937 0.3981108990450885 -0.15547280839074515 -0.9956141906820078
Ni 7.513329176966447 3.5649224528607504 12.701421050124038 0.1805983998137793 0.5121588646321438 -0.9794427231284679
Ni 8.171356492467199 8.877419397281002 6.854172247157941 -0.6327083787831426 -0.5416761573649703 -0.13174358309460538
Ni 6.874917218195104 0.5679855431797327 0.3529559049531987 -0.11577574691143933 0.9025780514599295 -0.4883507064689525
Ni 1.8727764085838439 6.346876491786573 9.199127436383373 0.7891011278849959 0.3479813293785491 -0.5748475019106165
Ni -0.006667962163770341 4.950219922679177 1.398609111035849 0.26509539121659503 -0.9067571225382834 0.5504896418915423
Ni 6.507441812139678 1.9223948969268718 7.008169435911097 -0.40028733787111703 0.1884153247550368 0.23868784775734378
Ni 3.3274786046199885 4.390440271970747 0.4407240586675257 0.11933466790729123 -0.1543656913694954 -0.16165991103806351
Ni 5.924916981619845 5.502399859294829 4.794951917829796 -0.2153892822407194 0.2851829059950895 0.32029234810371293
Ni 5.248587396085006 2.873402432884843 9.025280154169659 1.3470731941965122 0.001017642631236957 0.6243798043127892
P 0.048218162326169316 5.456522768659014 12.491862306669855 0.22018516096746593 0.6037870677631021 -1.0392620092789457
P 3.7817436449893926 6.249726063821848 12.558336870933221 0.8196836286575431 -0.3328758411956783 0.17803063908660305
P 2.4435374213127266 8.487801392294902 1.4187488030689361 -0.15798040530394727 0.7576524224574113 0.6610964430075323
P 6.314921717618951 7.8388037962606 5.889411477128164 0.2640736348203 -0.536844797414598 -0.3005509038107275
P 4.835055024503997 0.881515570418715 12.520400357306299 -0.3587141424150209 0.5363855983899923 -0.1541540895793216
P 3.974488583122333 6.253971111220419 8.177474037468274 0.024272499394119487 0.12747426629529013 -0.13263369900904254
P 4.7865877354554955 1.1048725166671467 3.7815655688485204 -0.7060182432208872 -0.8624570150693277 0.5758479181506728
P 0.13427030959209138 5.4850509261765215 3.5921860899031746 0.2621321948232131 0.8991947368099933 0.26002671844443603
Ni 1.4141673896264966 1.1788370713405312 2.4805493780062307 0.5219730225090882 0.30338271683256784 -0.4736553092403068
Ni 1.8271961115161504 6.501173172231198 4.803916882335929 -0.40219741040963636 -0.7000517412248072 -1.1295648087302612
Ni 6.035171295304307 5.562073353975994 9.158281446414422 -0.10676942964777096 0.18911697880775172 -0.258665062210219
Ni 8.565417407230616 2.3058431931938648 10.276460208052299 0.25329634169913795 0.4671478471390923 -0.02499420805149244
Ni 2.6145264915279967 5.116001614835609 6.865532245821359 -0.9224009997231276 0.06859163302646896 0.016274568790307455
Ni 0.5679747506863466 0.07265866297365502 9.22804682178613 -0.6699641778108074 -0.13245166490522353 -0.5533991022288534
Ni 1.5165611706280144 1.2605182587850448 11.333733332014086 -0.17470903091253784 -0.2900934559228294 0.12682660540896223
Ni 4.04957735585678 6.921279971033297 1.6391540023762436 0.21810051052429538 -0.026812749317469946 -0.6669755274961288
Ni 5.5634044281602915 7.890310970946212 8.006075751878775 -0.2691587626526913 -0.11831239729036397 0.2678143328096549
Ni 5.0782458754729065 2.8229295388154076 5.150346926288275 0.44507852604387865 0.21707618302483905 -0.38575263459005177
Ni 0.8911856444927451 7.177709613889271 6.891410846212556 -0.4540773871083793 0.38539088037525887 0.5241687446088263
Ni 5.0992642563425195 4.697936396032398 6.998704419211405 -0.19386169258158872 -0.34469777353127085 0.18177596506164825
Ni 8.187275420211835 7.130591386514045 9.053896450383153 -0.21765853789087033 -0.06942312778882881 -0.05613180999656139
Ni 4.567617038394103 0.1777487685728237 10.30602534430933 -0.40136025922032165 -0.2831208812597382 0.4733753161060428
Ni 8.132908234778881 7.2015610242727615 4.737876715931357 -0.2350142555604985 0.03897766681477803 0.20915332863333655
Ni 7.2455404348215025 6.032446190724293 6.949816222920843 -0.28277301100201624 0.36839280315536554 0.014885658862580814
Ni 2.391535590680247 5.288051946900523 2.524080000704996 -1.2052130914931953 -0.15224401704080232 -0.13280827691369387
Ni 2.259066728109201 5.172284467844612 11.393323184871507 0.9067519803319609 1.2094281580158075 0.2373976681910105
Ni 1.0043494345192359 3.4508008290462344 3.813183976972274 -0.3835990785821587 -0.5842459124063809 -0.4776140367777387
Ni 3.7148931422064075 2.581393536832381 2.471097851923271 0.16675712305531282 0.1363358304509781 0.28420357280095565
Ni 1.1683953339893884 3.3922065837036883 8.193151932860617 -0.12587272613612516 0.23810215045720284 -0.33943446824980256
Ni 3.6513973061176315 2.761718113826709 7.260350433870707 -0.31254432872717786 -0.4714791275245944 -0.8812294105808242
Ni 3.9782839432964776 6.914903406190954 5.784710800665346 1.549482776348112 0.2146680878039787 1.0365592656358018
Ni 0.6388238722689163 7.133262528627128 11.142904960831642 0.2023424763590902 0.05709674501299199 0.7391911304284302
P 0.17694292906665457 5.463088202135616 7.996110682985523 0.3818049627962134 -0.07525001888325104 0.3542239678541513
P 8.600286154612512 1.6343612359383246 8.076275525109276 -0.5124481137377884 0.7574377353434438 -0.2964721057556636
P 1.9102443481229148 3.3820346586872003 10.314212349917206 0.1302268893397628 -1.6228119240595664 0.057489352465720345
P 4.009878967684561 6.104090359319645 3.7664812605924163 -0.6432691850181244 -0.17882253886027913 0.25831436373901967
P 6.8810689394252345 3.931066784731878 10.404960131180571 -0.40367990849243385 0.07856828462320663 -0.01355588430756375
P 6.378642397319938 7.699328806733016 10.143800678098097 -0.12128304988291369 0.1338886544620662 0.3041244800945988
P 2.3944675513834963 8.435143018314763 5.8004930234937575 -0.4233246793065548 0.6918095558206732 -0.7150615843700782
P 6.85432154331645 3.9462392316839696 1.572666846870594 -0.7153770587279679 0.17212172980133583 0.6623861083532334
Ni 5.134519734737421 2.842787726646005 0.3130326731687685 0.8915243647489292 -0.4320993401753913 0.5671542470314168
Ni 1.405128676415559 1.1266823470517475 6.836968113325899 0.7692141591530817 0.2246208281413164 0.19166699892311506
Ni 6.819425814701089 0.8761049337344363 9.149436098709987 0.051432861858995295 -1.6300860891234765 -0.16637814244933927
Ni 2.617188639896592 1.5549015033824696 9.129862113205228 0.11445497121748677 0.43793651568245867 0.7392865183557138
Ni 6.316342729248133 1.8418109463099548 2.582907184029794 0.6550276111056331 1.231201802247473 -0.49387446450065914
Ni 4.316799492098949 6.694790503579522 10.467828203904052 -0.5875996593699623 0.06141491277237165 -0.2662827266564769
Ni 7.978638535567724 7.260227219571215 0.23399294848052615 0.15962899665096378 -0.7837293220501212 0.18450621950861773
Ni 7.713799741615006 3.819310515717837 8.314253601772654 -0.5346925269582855 -0.4241734004600953 -0.670347272181839
Ni 2.8995382543684096 8.413081363084483 12.395902650475408 1.416768601810121 -0.07465095184667143 -0.7762042173176698
Ni 0.18172490301118746 4.772980200044402 10.260414468510374 -0.9202834391594925 -0.1646182223354391 -0.304146848692102
Ni 8.638392650010266 2.356100237395576 5.825648526828078 0.16655246324367445 0.723365219139767 -0.39203769626781515
Ni 3.727556334446209 2.40317349604836 11.328533148950838 -0.3400114237991951 -0.0730337279582226 -0.472811987403405
Ni 1.1384011961202567 3.445710369665746 12.540105651480593 -0.9356272686054146 -0.5202601535830395 0.7495863576198252
Ni 2.8110667898350825 8.465236087373267 7.989015517958549 1.2636362686270945 -1.139758204323495 -0.08301500754065058
Ni 5.508659505458821 7.715949246547756 3.6015449804179025 0.6804105699551121 1.0759436809706953 0.8085245267169301
Ni 3.131244093625512 8.27062045038672 3.6359937199321855 -0.0337837813186644 0.5317311303371165 -0.4295611471345699
Ni 3.6364137277997983 4.388506616905722 9.262139409018667 -1.1586061902679337 0.4947807783650124 0.2987179643670468
Ni 7.131895479464878 5.929881528577494 11.343828810202421 0.2023213933131677 -0.026716075838605597 0.42814858305775944
Ni 0.6413070451221898 -0.0783993700806615 0.1543470454137592 0.12382509957847707 0.14484541058388603 0.6208334817224276
Ni 4.7042769858967874 0.33226399700851783 1.57123144525023 -1.027027929106599 -0.20978427734911612 -0.08776846306523593
Ni 5.886351805253177 5.652055767583389 0.3659743501002955 0.16235282334003007 -0.2584079518940905 0.29038938989669344
Ni 8.004522532205613 8.81348286771229 11.249014057681357 -0.5619238518704129 0.4539616874661214 -0.044290594387259206
Ni 0.06376115155118672 4.952153577744203 5.760094922000334 0.3740232619682655 -0.9482282451988765 0.28064645157731666
Ni 7.842976893703262 8.845149842056282 2.4945418456814314 0.6324903492350656 -0.6187873978266762 0.3726148116565131
P 8.470812208956135 1.6181904833480103 3.615800964806616 0.046074425760559354 0.26135597877882083 0.5500103882622787
P 1.8063306243028412 3.2554477050116306 1.6333359490666362 -0.4799054039150768 0.025989482085226213 -0.1951593283470897
P 4.581494386139851 0.9641743778891279 8.284372785084077 0.6960976416730658 0.5366501649052887 -1.182566814848589
P 8.569464592250439 1.5835825545562807 12.475249961225156 0.08304868899206343 0.5676147316076031 -0.3928033707892461
P 6.237818346119081 7.694247341097017 1.4914362460249542 0.09323745659960717 -0.6997766331865497 -0.3035593516197482
P 1.8740894952791642 3.2403651955044235 5.996744622602763 -0.21422071585391494 -0.5826654552931385 -0.8325591990686306
P 6.889936771490891 3.8652505625650706 6.013961347677088 -0.0027688209943887796 0.40803998523334245 0.48663012423342
P 2.2938095630682582 8.388033784684024 10.206458297200545 0.8171852877157215 -0.05650564839621236 0.7322704920491969
