# total energy = -340857.2871944791 ev
CRYSTAL
PRIMVEC
9.38718110575891 0.00000000000000 0.00000000000000

0.00000000000000 9.38718110575891 0.00000000000000

0.00000000000000 0.00000000000000 13.73908841908880

PRIMCOORD
 96 1
Ni 8.78695513200275 4.224569327132147 6.671399035905712 -0.5437878043913343 -1.4423837312750643 -1.389165238270556
Ni 1.1375761257747872 7.931623373253896 1.189249740274659 -0.7957394591371199 -0.7322200984272358 -1.775928573513309
Ni 8.900962443591203 1.101482415354236 8.322534684674975 -0.5297434104831263 -0.47570833511459354 1.6695844043284147
Ni 1.3067518992986287 2.5321075533289616 7.621800407568787 0.26422121614175786 -0.20768831405203583 0.685083292840433
Ni 6.085042864032088 4.243306140135897 5.323800696515291 -0.17589328102862611 2.0575954959353404 1.9764699921079187
Ni 6.650122990478358 4.535848244569201 12.021688479381917 0.5902946897036221 -0.06442413191234066 -0.8878191479832
Ni 8.795037494726314 3.7938760819292074 12.855156555181356 0.7052947347913014 1.3063870293310598 0.5676278442337257
Ni 7.327464412872449 1.0813750739443997 12.82067086884274 -1.1017112768531028 -0.5552724079921663 -0.18722978908736787
Ni 8.435452144565161 4.129871446580126 1.7232385849825922 0.06294934713902707 -0.5910678204242208 0.31271710685961623
Ni 1.9817653008385463 4.64687981982389 11.728234879686758 0.5394758072795419 -1.6506464297733314 1.6842096104407573
Ni 7.429756522743125 -0.14377312338884723 5.270121980182954 -1.0672075866492783 1.7744627876010601 0.7638906900576393
Ni 3.3488955474518654 4.411064449349335 7.2472040164886495 -0.9443772468839027 1.3830696668957794 1.2178055834462254
Ni 3.674555625971958 9.032514396213726 10.920019259128496 -0.2544062869338651 0.6500558689226547 -3.0453832485943937
Ni 4.605745193279584 8.60949047777635 6.67628975713565 -1.036727158672234 2.618353866742742 0.879395185585563
Ni -0.03871648875384153 3.09014729412753 9.600256727152914 2.263580968363657 0.6520063077808061 -0.9615928394312406
Ni 4.591664421984181 2.4391650755984347 10.740023820941264 1.539455474019097 -1.1165370290120253 0.09938059338286755
Ni 2.4298154434582866 2.4137445898197996 10.9275618589524 -1.7735361620217327 -0.2648025425665246 0.19380795652551783
Ni 8.340716715289687 7.637842160946597 9.527109936427552 -0.6353920962628928 -0.1710791474694344 -0.7162090677109602
Ni 2.2246492185033935 7.880979532494762 9.0548971902649 2.1417854976206985 2.2493252297755904 0.2732954105288842
Ni 8.322627617765525 5.061896472984613 8.798457244714923 -1.2760307856367057 0.5189730593404998 0.9148172738385986
Ni 4.353643064006679 6.4783000319509805 6.006934948220311 -0.15968067582450565 -1.2657510009772521 -0.0726280078793717
Ni 5.356832308538135 6.776474444902446 0.18036529311325553 2.102589544147527 -1.2283257662512588 0.7508328284324165
Ni 8.753733898926463 8.489541080701239 12.94086057774796 0.7522770170781109 0.6392407805850218 0.46242215952864874
Ni -0.1574915495029157 6.489189161752759 6.956911080590264 0.13807286774674282 0.3844385437643186 2.267555122520056
P 6.539983197405712 5.72864915536456 7.173081897671558 -0.05651027638190268 -3.1070305890925454 0.8181113990744169
P 6.789851177633079 3.844341566251934 3.1743615710910795 1.8454229208597057 2.7161285490910707 -2.3396108028357254
P 1.3841304311573028 2.858359024243461 2.7393539775632285 -0.3422871072072492 0.048814193289225614 0.36749240282828327
P 8.43677573706693 1.9288685366721472 6.549492411620541 -0.14117053283546008 1.2593147584336053 -1.490750038393594
P 2.197313747828584 0.38029065499199927 6.901089270866766 0.8015383252070841 0.7156794204597352 0.3010288718884106
P 1.026488227434917 8.361302802923568 3.246202604958315 0.8337467916188286 -0.12897193388673917 0.19765792639922733
P 6.230600490503105 8.274377508126609 12.512777907543189 -0.14373006603252023 0.8542030025906515 0.07729533144805398
P 3.23948795448658 6.691163745214028 11.063098669851522 -0.18959314711322187 -0.4357942725284753 -0.2887282001441866
Ni 2.0485926414065316 9.477297799892932 12.873813577147766 -0.06432540155094728 -0.0727889589372682 -0.23645253066892177
Ni 5.223149465859574 4.477582012948821 9.868841807304218 0.3191322663573407 0.6460927705098486 -1.2263277619846233
Ni 4.889003375838785 6.88921448707431 8.789883932432195 -0.2217782164861987 -0.3684059157814881 -0.4671275354241181
Ni 5.280242299872003 5.665501589695107 3.758849693972848 -1.7187976328282721 0.9260861618841986 -1.0916063272086167
Ni 7.3372834040557775 9.230893689404233 10.77801186446009 -0.7051096153636889 0.32528414489134944 0.1118123913883171
Ni 7.098276392087598 6.021003516180592 2.4319284978706834 0.9304076720776879 -0.611019066735167 -0.8985547892331494
Ni 2.6524230504577524 4.677679160237369 3.495059585806672 0.15083479539810152 -0.8710151890519838 0.10569830807077925
Ni 3.474571124853774 8.218636428158538 1.29554548278366 0.46549205670322413 0.21261634748127253 0.3279943447336609
Ni 3.9553262056023044 3.8030004217286293 1.6002054989937882 -0.3263501242620186 1.3033955508029036 -0.619200831215011
Ni 3.6226539029771008 0.7848743953409151 8.733663167521994 0.9428034746388796 -1.4787026203107565 0.7641850813696064
Ni 9.060910618326123 1.8820640528862258 0.4225996178623414 -0.48330440229429666 -1.069944525964467 1.916792373741628
Ni 0.004534947075206294 8.136798985389653 5.227819588339216 1.549172444196545 1.240806672327089 0.5050716187680593
Ni 2.1223007855475373 2.5089963140427725 5.50925102550236 -0.3368327689608973 2.2003603698411136 -1.5941852614618093
Ni 7.68050689797167 2.82434926797463 4.75461743331354 2.43026764319235 -1.5267776214411126 -0.3432697828354927
Ni 7.5814909142223925 6.557039705034877 12.462905693051042 2.5002469005949646 -0.47792359759835756 2.757662920889431
Ni 1.4057397215053153 0.8573490639164434 4.296116542238352 0.06682014294834299 -0.057824367207635896 -1.3107697317797877
Ni 5.75759922114791 2.017821462535643 5.744367989720663 0.11053198201399672 -2.04219510221987 0.8252408110303465
Ni 0.23450867489834115 4.307777298307118 4.067059003267504 -0.17760486440309411 -0.7771642672380938 0.32683246321507586
Ni 3.8143213618501335 7.973039615224111 12.799224915441753 -0.20324699045123062 -1.3726127332285134 -0.4453649469360459
Ni 6.282511600678826 6.534144370908551 10.877263466449046 -2.5201564950346986 1.389938883211787 -2.7643534455357295
Ni 3.259698554885916 5.940639860807293 -0.17661605307633277 -2.653885998211081 -0.6608012803646168 2.1416618275586403
Ni 2.4457642637455472 4.985794597723389 9.550025922351777 1.49435318236382 -0.36151767330208706 -1.5741188297292372
Ni 0.2002614229536607 1.137125541093334 11.790267248269615 0.15971949948224107 0.6720889374632941 -0.49615503300471975
Ni 3.1114843562304983 7.092118401441075 3.4599008386001358 -0.9103181004166645 1.3563862440673222 2.0428584468354813
P 5.56705822397851 8.883821451334265 9.412195823167677 -0.9222333637970117 -0.3530703138656822 0.3147850451322385
P 9.070926740307586 6.114546773486389 0.27126418156977616 0.6885607098660722 -0.1400958117140426 1.4303252574486334
P 3.7797108260060317 6.080583953121876 1.9395333128512857 1.5613659009389433 -1.92239480753007 -2.509368403280259
P 5.790463741351382 2.7585732916633683 12.563942736840254 0.3119825426864369 -1.5018698024558392 1.4043038936842072
P 3.4621237230286366 2.951245178888806 8.836981296261062 0.028902284856646997 0.9480086729889028 1.147133927962276
P 2.289064053589433 6.589735255982804 7.485412179365335 0.8448971518086932 -2.1530628703067305 -1.5725555990071756
P 3.9464834812287912 3.9829057429795682 5.349519694645389 -0.33686310797820046 -0.33791417495053416 -2.0748036322835106
P 8.858889098960535 6.173995789895583 4.9365231628065125 -0.06334118326080704 -2.219767570723132 -1.6688976626740353
Ni 4.358683980130434 5.005676646792498 11.963489835463754 0.7923792844156353 -0.8168883253005931 -1.1012140255017098
Ni 8.697476524010893 0.9665510776208159 3.361253771058798 0.7081828549723739 1.9595151094211352 1.2025430008601998
Ni 6.701611677515216 7.693038784424579 6.822501670112861 0.9007692803859648 0.028981217723698473 0.28848677355734187
Ni 0.9443879436018507 6.570106660797012 12.16585210949469 -0.12582336095542845 1.8127740244764325 3.928143236887132
Ni 6.24867081366554 4.16023897667388 0.7200521566053953 -0.24156028420913234 0.276016409004473 -0.3244199971188413
Ni 6.648987141593862 0.4450058798656739 7.788015464248248 -0.22297557922840955 1.3230786310541278 0.12721381354505187
Ni 2.506884198348462 8.417175303423727 5.20332280115756 0.18218734156745398 0.28989111010403623 1.2530530937946098
Ni 5.152745609382556 2.811639025085312 3.5582456389176658 -3.861622627457078 0.3655260231305318 0.09286284686900781
Ni 0.2208165328906908 6.204184963552928 2.5428990564497584 0.16318071855796412 0.07826489445017488 0.3688728281155776
Ni 0.8504232018752775 6.550046255291493 10.030482490748847 -1.2100835322116192 -1.130166703980318 -2.044062751556228
Ni 6.286707670524857 0.9999131184100587 3.5515816792225947 0.8257982261957133 -2.4111934001697186 -1.009180873622849
Ni 1.8330441944164944 0.7403181413718266 1.4513557881939048 0.7724884590289792 1.5949198256349888 1.2977928599041455
Ni 7.908943944287433 2.5809959912666023 11.067563213070251 -2.708586989298387 -0.44585242809542563 2.1005059221456213
Ni 3.8877948264695488 0.17949040785676781 3.4533607896924643 0.30777236125983126 0.09626081680696325 0.15048795358164407
Ni 6.26297687730167 1.7362154238084362 1.034047724184376 -0.8623767966506954 -0.18720613493828403 1.1732725340308567
Ni 5.924559619987942 7.990800161418045 2.1650331102748277 -0.7121654937692058 1.123624531986426 0.7269873892733867
Ni 1.7544359418646884 6.114809614550571 5.382809454141982 -0.12854024566595926 -0.76376444889242 0.26628529775963816
Ni 1.2130208983755593 4.487701393919784 0.8634751381480303 1.1082277378153818 -0.46019352730844615 -0.4615839798980696
Ni 5.914477787740433 3.539070444567585 7.684533059844068 0.23571796649574242 0.41142818497928496 0.1673855006679311
Ni 3.7915668354367615 2.007645758479498 6.863278645066263 1.0665465560265117 0.2235605051976021 -0.34714726351302794
Ni 4.594912386562987 0.6301680224002303 12.762568912887472 2.5117402459465454 0.16180826369046972 0.4802437610911019
Ni 3.638903113051996 2.556007315807693 13.131669109571972 -0.6218701505170581 1.8413618634164546 0.6526840505741212
Ni 1.4113626428426134 0.7666604483112675 9.549325638659354 -0.001550632316571523 -0.4442341757657123 0.7003918981730454
Ni 8.057711986613803 8.130349992136358 3.235074102044514 0.14503207267339538 -1.4530525238428202 -0.04854422745729059
P 1.554094727873687 2.286276060872943 13.365467174878939 -0.35755457488928094 0.3909123244141203 -1.06557570747281
P 8.850468797725885 8.480351030635772 7.613515281738572 -1.022635199355542 0.21810153896555987 -0.9099085236830716
P 7.937922171613373 0.17277763482120576 1.6714429371314934 -1.9101550709307682 0.2987750428572274 -2.9732553202798924
P 9.344347157321732 4.890740004298551 11.024724813199203 -1.4269524843216586 -1.1747293210820413 -0.8779106306202366
P 3.95341122070613 1.725147937570249 1.8690928463689 0.5243646626697163 -1.0555473767025305 -0.23501682666365975
P 0.7193499954767979 8.543038624442907 10.991847150942522 -0.45936640342146046 0.6921525409823887 0.2515351360336571
P 5.443898411048047 8.196163517171074 4.711655122655092 -0.3242485045379835 0.03266175189907924 -0.9984110367008546
P 7.1557353261537076 2.5432689113757845 9.161279294837845 -0.3708440929093355 -0.11132799555273085 -1.387199887014069
