# total energy = -340857.72974015377 ev
CRYSTAL
PRIMVEC
9.42755389199871 0.00000000000000 0.00000000000000

0.00000000000000 9.42755389199871 0.00000000000000

0.00000000000000 0.00000000000000 13.79817807269024

PRIMCOORD
 96 1
Ni 9.268501647528684 8.82520863514837 13.416134192166044 0.32733691365532014 0.3296272523513936 -0.35285228431760524
Ni 0.9179750655024306 6.361779371032579 1.58855697508776 1.0661850589220345 -0.7945914615756058 -0.1833353391289681
Ni 8.119113129985815 3.2778662188067362 4.389048631375816 -0.19832692744179392 1.506095924722045 -1.0167116347822553
Ni 2.788576170901793 1.629071888013993 0.5256445812908974 0.9866970906980361 -0.6388258045347901 0.6149626247639474
Ni 5.512064509612146 2.971527282070258 4.741178140206304 1.7902228786487944 2.198267491867827 0.16170773355686344
Ni 0.4572024254184446 1.7011172549906706 2.3834006444885163 -0.4647410374698125 -1.5402008368255538 1.8156366907362085
Ni 7.60831883161322 2.640921821570633 11.27941680878524 0.34704030562151844 0.3586778898604468 -0.4120853589473097
Ni 1.602750157498567 6.872724510267727 6.550436980582486 -0.537202694974649 1.3566245853303731 -0.28348726346022146
Ni 1.5377754559540417 5.827425615440051 4.3932014688729675 -1.0353942987934233 -0.9958797856385688 1.0881173402187518
Ni 5.680770586823302 6.929883769621246 2.671616994344693 0.3293418599004909 1.7451254720895235 -0.276414158663524
Ni 1.6866459597395322 4.712221408373162 10.32868099344717 0.03706348051120068 -0.9807375306804915 0.5448494128866294
Ni 7.201595300847997 1.5892027625305631 2.8110062071633624 -0.29494744158102104 -0.25762556520211116 0.5053143309064846
Ni 4.522529596159379 4.9828393433464075 3.811443143957118 -0.13316668869437712 0.5625671418813667 0.5598240319185906
Ni 4.369520396207602 7.696296764697014 4.53553019300063 -1.174478895634132 -0.34577583708679804 -0.865628985039406
Ni 0.4268777555130296 9.073803804188936 5.772798597066633 0.8215829025627851 1.515561698120635 1.8593071350409656
Ni 2.773859759249007 4.919373050427408 7.105399369021259 0.1204132456834507 -0.8018337449603159 0.10934258969158586
Ni 7.777854533568414 9.400214003198817 7.616401073579865 -0.6530692018276817 -1.2381134417656419 -0.34384339595077557
Ni 3.644739479196348 6.171550188245951 12.079890613380773 0.8961821752359147 -0.523784364686214 0.1263005577021631
Ni 1.4911939120870221 7.045239319258335 12.772490575121825 -1.1714547640958277 -1.7758164734154773 1.1039861889302085
Ni 6.843376534947339 6.33348728175006 5.022964898296177 -0.5949627846032527 -0.40168601799085657 -0.13904217363854762
Ni 7.205092923348435 8.973994290948673 0.7469875202451676 0.6024395525962721 -0.43778893436100086 1.290789432003119
Ni 8.768322774858225 7.880859987584009 2.1470650665519107 0.35165466446507826 1.5406602929604758 0.1827946361341497
Ni 8.642794894552747 4.278638776519671 1.093305884845817 -0.464707870239032 -1.5128314436736656 1.339172451292197
Ni 5.113674936502954 0.9223786759335751 4.433547628584219 -0.8806879362550575 -2.6039122373961154 -0.3805914021040865
P 3.493276398085735 8.97180709844166 6.51761118062487 0.3140710497843494 0.16927937525653428 -0.49140080614918596
P 7.723137010677464 2.0040622723197155 0.7865059407231626 1.8161910205777818 -0.8275239506375683 -0.5665235554259533
P 1.5250199755144387 0.29774289308176277 9.626546946437404 1.493855159681479 -0.5180667454761465 1.7843029136199335
P 3.4062129377311656 1.021796002931201 2.977260177602647 -0.12991398608503432 0.7321689334743261 0.0603083099717542
P 8.8739773715224 0.09384752814787176 3.8593087206666157 0.9133532876985625 0.986230692584579 -1.1547143114126952
P 6.098496073000954 7.583618640370234 8.525272893027248 -0.32027023661652587 -1.1329360391953391 -2.1568416206228727
P 2.879382370158449 6.51144178934647 3.0361512786093487 1.5891448708244245 0.9446076177271537 -1.0178758302936857
P 6.450058985841477 1.699750259673788 6.646762069897784 -1.484581961909669 0.4279272110755727 0.25500741085297374
Ni 5.001930140013218 8.203480309922258 11.512978800361662 -0.28546572734283093 0.2575250350685048 0.7177442734085638
Ni 1.4417746744932318 3.5874388065341853 0.9361457329076712 0.5793950120719829 1.6960752515300919 -0.6958397600259887
Ni 4.071845381513988 6.986694209480113 6.93390179309749 0.3885949891348533 -1.0325236621138476 0.7056297495332171
Ni 5.512846996586639 3.851787418157588 11.195151446431021 -0.6103084138213876 -2.5055917098466463 1.790694418968574
Ni 0.9478556976187065 3.6693453949002377 5.777655672840827 -0.7421934075898637 1.010550500276866 -0.440306558576532
Ni 0.05359375846493294 7.597769398788448 11.070057233605382 -0.16342317358607336 0.7607536870905544 -1.7038271275613688
Ni 4.765289109329943 2.8365812754091526 1.8618711904791316 -1.2113372021130622 -2.0962733721215123 2.209298809981324
Ni 2.935523453689738 2.8874617838589214 11.659680966747958 0.255153963733167 0.8677534875815764 1.1653216546148963
Ni 7.56192583882439 6.273330060253308 0.9197097354217854 -0.35734734397448137 0.9295255265830507 -0.6041956160554305
Ni 7.416034442074314 3.870670808638389 6.561378599649893 0.14001559329541047 -0.6166130158831767 0.3280300830676028
Ni 5.906598213172338 8.281248202122024 6.03765535384576 1.2381129275450096 1.2467914291556141 2.1197465155427877
Ni 0.7419145534864461 1.2063875084799252 7.8681346753169175 -0.03079744499683083 0.818407847268913 -1.7528539510820327
Ni 8.782803497663274 4.931713718494992 12.728391306199185 -0.41506835283503357 0.7831104575191997 -0.6504741874069958
Ni 5.998997669039705 2.71399479192345 13.77902619653966 -0.7196800569786961 0.40044031850921363 -2.697416574503864
Ni 2.8195833957102585 8.753012427309137 13.108876068923385 0.9911522982559123 0.7290103332406864 1.0409419680845298
Ni 8.179430619899028 1.4192711033111685 5.573787647813273 0.9894849378558185 -0.8863849866398348 0.04732963832389913
Ni 3.3260033090688292 6.254116705385671 0.5965133895396649 0.10069802664271044 -0.4539424041924117 1.142830929711548
Ni 5.985836803781992 5.8533608162451864 10.63148271195679 -0.7607858258800704 2.1886731633111722 -0.3482081006773745
Ni 4.954660384710802 0.7103492174865361 7.896117540831203 0.3422058603473526 -1.3356621241460933 -2.397277304309258
Ni 5.29721998356772 5.002231821738324 1.6635635367474229 0.6722100364221907 0.2930815920168759 -2.1335132303095774
Ni 2.6142229888988253 4.437389356802355 2.5733187179961288 1.7548990065365195 0.5055002216650456 -0.3866923727955018
Ni 4.507898032491778 4.113684865764511 9.103389353867843 -1.477696033423113 1.666673144218891 -1.0477217100105245
Ni 3.7967776410954426 8.613833448942652 9.04445771437933 0.336708070457575 -2.121084003407289 -0.6987191384563128
Ni 7.781946091965153 1.9731870332659838 8.581873098433931 -0.6041405944477789 3.288949764600278 -1.051309427361783
P 3.659710434804692 3.735498540683455 0.17685242654438565 -0.27504633178171983 0.4275682850742572 -0.3530188918024565
P 0.36025700305589914 5.921654016765868 8.11819960001198 -1.6085199329169264 -0.7019738979481847 -0.020573967496609728
P 3.7629892878836637 5.770417196949084 10.005141484602742 -0.9984010093985255 1.5264233234254871 0.9417626920791909
P 6.6783000659913565 3.817999064945809 2.8401760017148594 -0.1020753666062113 0.30659556734291066 0.28818441182557464
P 0.7005898136793839 3.4117092016604254 12.024298213487016 0.5258595020476879 -0.8969550488461971 -0.5742507488668819
P 2.741353553368925 3.0158744956607175 8.264294631926504 -1.6321720251182277 -0.4251637893978226 0.7417583769349742
P 5.020690972293196 5.025159632846316 5.828847290569609 -0.22786504611022693 0.04439215296213 1.5300349520361456
P 8.220629030483703 7.1209520047058215 12.63573636362087 -0.3577846886222161 -1.0594089165404657 0.6864220662565146
Ni 6.113636724579669 5.1576167652753035 13.171464656573407 -0.16371499379487933 0.4789463824359171 -0.7855578906184276
Ni 3.118474564858203 2.9358722731843914 4.957367978193622 -0.75226313312104 -0.3717439790157856 -1.2250972320116322
Ni 6.128013744291712 5.4515019032972845 7.685833122612819 -0.17974479356423237 1.0542119457205585 0.7384560520346185
Ni 6.644549422995215 8.939960821335246 9.910017465655521 -0.17246034408767716 1.0769222428338807 1.3253494293661756
Ni 2.540056422292502 7.942384204397644 10.879752630387479 -0.6281788663439053 0.78553449357966 0.1157927161923038
Ni 5.165224801280299 0.13156434307375434 13.793155271583881 -2.1971770870171254 -0.09151507459186176 -0.3274217600596426
Ni 4.40252626244489 3.064049296138449 6.958090068163188 1.5395760587573613 -0.4390536600060374 -0.601413682434919
Ni 8.36245715149877 7.21944166039875 6.848918993890757 -0.057446672153243 -1.302358624897957 -0.3175181277926854
Ni 0.3257898659626338 2.4160746608281882 9.999747038255707 0.8409152843428097 -0.26233016976663204 1.1558633374154739
Ni 8.571466021673194 5.615003970750375 3.2971578223718208 -0.9393756799042532 -1.400534656449762 -1.7633106276389825
Ni 5.426424609897917 2.2264299863839523 9.30779569222363 2.675732147551895 -1.2973254333494237 1.5298981693479652
Ni 6.911632025252383 8.758725524978317 3.8482567992184666 -0.5574632449958979 -0.9483516581506183 0.1427885280548573
Ni 3.236743228653338 8.43525672278821 2.000308220352938 1.3419371585215276 0.021598552106382157 -0.4260917005287307
Ni 1.9334027557677398 8.370819391816529 4.025204444057339 0.2432106753283618 0.061455021981687716 -0.007234570075226251
Ni 7.03677337584757 0.5840652473575131 12.480355191105453 1.613387288311557 -0.16501597199449003 -0.3519266871795423
Ni 0.21125262800489328 3.7042556270272518 7.938312443864115 0.24487032241897183 0.5004181791564478 0.940379181468103
Ni 0.7756661392379776 3.6032393868865684 3.45415299211655 -0.09642202497517587 0.49066572775537437 -0.12114858118757844
Ni 9.154899622918768 7.457279990428535 4.412864518062087 -0.6679507469252045 -0.8646437383080012 0.9833423152931903
Ni 3.5032696052298435 1.3032744800082314 9.852851607014262 -1.539575287426413 0.2748673830016944 0.9265875270006493
Ni 0.34804643523226747 8.292815810769024 8.543569889654876 -0.7528002365714325 -0.4328151352954933 0.3358148692193442
Ni 0.43908360955970643 1.8128431963725873 0.235685076716848 -2.076387946051495 -1.239553259535962 -2.7499035886589867
Ni 2.037473523375113 6.615107172135733 9.015605628394585 1.863368706704849 1.315287417144483 -0.4867805337683553
Ni 1.44974095754679 1.0422915051305333 12.042277501547893 0.04810585436829134 -0.2555388578764115 -1.0509011361797709
Ni 7.885055249073753 6.371961129254878 9.569809098743642 0.9847859897182525 0.17132443071102108 -1.3122296041547659
P 1.3715488254210946 1.6503593047417262 5.5926776375818115 0.247184058153813 -0.9855475504746254 0.7103196988097186
P 5.520558735684639 9.22400359307567 2.1524331157480003 0.07171140960237327 -0.23540274924816876 1.0125485045435014
P 8.462492926032862 0.6049774474396469 9.917964893601258 1.0096583274798998 -1.0491131910414124 1.214907950183456
P 6.841076211793413 3.8765818849396685 9.30357309082755 0.8211915806616373 1.5170727354485227 0.12638411855490495
P 1.3779501345256697 8.795870087381891 1.067903340836571 -0.7066882727047185 0.0687862655357783 -0.45903627377555134
P 8.846486624322193 5.283116362919053 5.417868161969622 -0.1373781556725634 0.24038760405726986 0.17523353595744015
P 5.433636688638713 1.3726329941206914 11.467555902870123 -1.404415479561407 0.7110555485344785 -0.7509675542380679
P 5.213616435497951 7.217169619906551 13.637181105927555 -0.5154434489206864 -0.08940599866865892 -0.3570339264991206
