# total energy = -381166.9655801692 ev
CRYSTAL
PRIMVEC
9.26352917430139 0.00000000000000 0.00000000000000
0.00000000000000 9.26352917430139 0.00000000000000
0.00000000000000 0.00000000000000 13.55811131847337
PRIMCOORD
 96 1
Ni 6.956410111273756 3.9128591037722646 13.670914276762089 -0.8425376504375812 0.8541389821219355 0.39206906372638284
Ni 7.715009771465461 4.69529382429628 11.60065911126023 0.1634871940547894 0.47619170250891546 -1.1171234976431146
Ni 4.726752769064459 2.397845976252606 9.372586758877148 0.9890270243827936 1.1276565359639548 0.9620121863568465
Ni 6.87190819897242 6.358634579503835 1.757008929537194 -0.003485387445439159 -1.5333884418894108 -0.9227936071758559
Ni 3.8987044313324004 4.04560547554141 2.1987727362443055 -1.10087001189873 -1.1601629932320923 -3.074877658509085
Ni 3.6794459614507598 0.8181632258468629 6.822062075326042 -0.4630703346356089 -0.8559474960855838 1.3709052636191037
Ni 8.823872729840218 0.8638046336421581 10.258229235981178 -1.920679110390544 -0.30606052077504714 0.9590775292085546
Ni 2.0166702815173085 7.875750528125489 13.078235538694008 -0.3390431463486548 -0.0873678851927076 3.43043628601426
Ni 7.802939189527758 6.958494405317585 5.871231217707245 -0.2962293936172382 0.7648114020996958 0.18598614648825387
Ni 8.5394916505003 8.704086035259142 3.95755841065975 -1.0747458040078521 -0.3371819247701999 0.653315770620849
Ni 1.8145771310277283 8.996090999034928 7.800238870799865 2.2465237557710536 0.48602514365956934 2.8204821702084972
Ni 2.688674471834764 1.0305212929140697 13.526710772222247 -0.2861128740085266 -0.2188443306688554 -0.27550578791664165
Ni 5.727112011282064 4.793570604345049 6.446339820162308 1.5281863288631812 -0.37021931484114307 -0.542053338198731
Ni 8.985011818250845 1.7466384087280133 4.67971720014207 0.7097437717015906 0.391211600822094 -1.8794612413913374
Ni 3.652887423567847 1.9139562710374558 1.8755339314570731 0.21926702002857076 -2.10556662449798 0.21999078556847274
Ni 6.272094690804089 2.295076384598251 2.230471606415753 -0.3813658183762658 0.9505574075526856 0.8328723594336752
Ni 0.8012526535046036 4.0886253046060235 4.8200170535260485 -0.8793342504406404 0.7155272111525871 0.8881384789958316
Ni 2.0085369029818367 2.6233017470912285 3.4940744073101317 0.9034144313182957 0.36488736110526837 0.07200862912781793
Ni 6.82864751815163 8.57439662808761 1.539252077720018 -0.3831321662480692 0.9948814262810414 0.5640720085616672
Ni 1.159191711886396 5.1126713906906005 2.479412276187323 -0.10526944806347678 0.6589058631141168 0.04823903751204595
Ni 5.562619525343144 8.21515697022247 5.7514732400663275 -0.47615853527813473 0.12624605031514388 1.16453309727533
Ni 6.138431229655659 6.624544181850892 7.860680619012157 -0.5367491523769982 -0.32389214963982926 0.28174842639224384
Ni 6.753112702003297 0.13173386804029943 11.633727131030243 -0.19183772017302445 0.2562597952028361 0.5896316021983264
Ni 2.855214197701178 4.492431800892753 11.94198403023044 -1.5845821911544065 0.500342588723506 0.0607220004704051
P 6.6123719046349345 1.213392620555012 8.038997069402653 0.1203826495558314 -0.5299329007861131 -1.3342433894216956
Ni 8.462335716762324 6.123118616080334 3.7203453687081187 -0.44037983501662864 -0.7024382391791129 -0.22096369100470334
P 5.263036994776908 0.7206228963602459 1.0576671385408878 -0.39107738923707486 -0.42377127992567015 -0.586455775573506
Ni 0.45284206113828535 1.6879910060992303 13.772464787989032 -0.5655359947017035 -0.08616075225848388 0.13335257945293807
P 8.272720539948462 2.565719650307069 12.122402375370024 -0.37100170153312234 -0.22642368567801005 -0.40777824693152354
P 3.765782052510665 8.33168290256609 10.178996419022639 -0.5624504137978442 -0.8513917583941014 0.4764878935930955
P 2.7606520928149636 4.9998508699804525 3.962533852130594 -0.0024965411696086038 -0.650878107713634 1.4907698358879358
Ni 3.0737130581979564 8.012276419760777 5.391450813993616 1.1947561578259294 -1.5239671485755109 1.9056155311892022
Ni 6.124258030157627 4.913931637729314 3.7021777354692036 1.5051394743460467 -0.3299527540116124 -0.3816085305146912
Ni 5.212041267171244 4.733913477046144 11.399862854842365 0.41207841696877423 0.2936572620146878 -0.4151963937724656
Ni 1.0574318449021625 2.0847294296951113 11.410059221304772 1.2360329050875292 0.3848110966123889 0.012910537414080991
Ni 1.421590436710738 1.8950494081776634 6.225003540707198 0.003680019954748501 -0.38936143498723264 -0.7242735898866494
Ni 7.421661595972541 2.858298952886043 9.049415577852228 -1.7624428803220487 0.7573035237584248 1.1672957476221317
Ni 2.2874617636914656 0.4988558628027445 4.461296153289594 -2.3958575411435965 1.699661940440086 -0.19184594770314056
Ni 2.5918983834975506 3.4367229724001556 9.891537068968214 -0.4905520849956455 0.5785591464342488 -0.7398462475139258
Ni 1.209714999508791 7.495649402763899 4.02365461702472 0.850737155529238 -0.8298592836389644 -0.442818012144476
Ni 6.828591936977129 7.207905662366606 12.783712747713277 0.6227103870301662 -0.4747451998703759 0.10928885363551501
Ni 4.081733238967765 8.801019603590778 3.2971160309916354 0.2907747982605702 -0.5257204053666623 -1.6504199155848223
Ni 0.6448926197482472 8.916378331269854 6.186240303256535 -2.8634836134706876 -1.3733964054720735 -3.2533405000371003
Ni 4.0642251689996085 7.906579552915979 7.9301932149031895 0.06359597958409047 -0.3406058628500844 0.3625088335707628
Ni 3.5063291299349326 6.566406273321711 12.019170533614393 0.8698288820533665 1.9699221636870718 -1.3077854523404833
Ni 8.34411455859639 1.1464821499835858 2.372927083017504 -1.1301988427698342 -2.436579701453307 -0.4089439851048505
Ni 3.868338582996095 4.651458804672301 7.679734252714804 -1.6458405237442557 0.14864447261500208 -0.7217469668100538
Ni 7.611462043368077 0.5266788724055798 5.962613153059031 0.9066560781840449 -2.256920011403713 3.7499423907712512
Ni 0.5608881589587046 6.4195422832290365 11.935760791392022 0.29002377902715853 0.2108813670680368 -2.0731097895208555
Ni 4.978785604844162 2.681856514429175 7.1943948051980575 1.9314569177323382 -0.4077985586464977 -1.1957005240170697
Ni 5.9530124315167035 2.496530351581057 11.512260032273387 1.6725805108422613 -0.688822191057575 0.188589645549372
Ni 8.474193033989435 8.822529518123083 13.456154176603484 1.0120144864169023 -0.23229917062218056 -0.739822593364842
Ni 0.6063822766415694 4.010385537965256 12.627726034178995 -0.8481467690942426 0.7838560774359726 -0.25000635809395655
Ni 9.022510583981585 5.855597159672717 0.337489817929567 -1.01230219286065 -0.44725727886275235 1.8753626458419317
Ni 4.320232058756211 8.886197753515223 12.486166340839635 0.6743347960746774 0.9070975365968378 -2.27092198210976
Ni 5.9364862956314175 7.387136423077662 3.61455216116085 1.1121077895960783 -0.08191457538762022 0.2334723649946753
P 0.11182839674528615 6.830324216915777 7.37161260103923 0.5972022154567327 0.5267617021469831 0.6267164228657658
Ni 2.667294246709629 5.6798309588389575 0.6193076787720291 -0.33650675308004624 1.9032094928508707 -0.4331763752896539
P 4.277573507325861 3.615842570762207 13.329141929337135 1.2129834794672336 0.837356363346958 1.2994689620549877
Ni 0.1341145950148054 3.7365648817807355 9.563295032122886 1.2588049086767223 0.1256752654133384 2.4630173268195454
P 7.757242200557961 4.790902707968949 5.615945956866261 0.8729226904873418 -0.5734318525100124 -0.8145630196015262
P 2.5295733598225465 7.413222520977308 2.154099367238255 -1.5735089640593802 0.4367592075449058 -0.07093545066829719
P 8.349505932523092 8.020252318301825 11.267061828251624 -0.20384837148065538 -0.3798398686500426 0.4486467030111112
Ni 7.189276705379324 1.6108813900066714 0.1951760733227957 -0.06197284215837068 -1.2148724689598303 -0.6079211445361337
Ni 5.129253107750389 5.867445213370744 -0.023976792327290993 -0.08046061654991304 -1.0567141433171219 0.9213774435546196
Ni 1.956114591897287 6.860560375844911 8.59737481197968 1.2715688932106102 -2.070043749001022 -0.559710389158862
Ni 3.6247170316243733 2.3989020185681453 11.737474025002927 0.19234679859895906 -2.1361869204869985 0.05737570970599151
Ni 4.229060405514625 8.013693739710579 0.9395960495461092 0.38018233959112585 -0.5754627668971121 0.8115306605331055
Ni 0.36667549266061167 1.574735099522149 8.339472604172558 0.6626540173026394 -0.21263640208593054 0.015011128696851565
Ni 2.130241148083235 5.956087923172486 6.2021985848089916 -0.42203372840927317 -0.2730858656212393 -0.06529522166338432
Ni 4.217230878874765 5.996208267633907 2.465488265621643 1.2360035945114907 4.714635466394371 1.0222960708485684
Ni 8.495091555602219 4.8384987204009 7.837754310882955 -2.113829378727405 1.1552329029203265 -1.4395835428221078
Ni 0.43522097611530774 8.02565295575761 9.620903066788479 -0.10007119169198894 0.9953956469132987 0.23461470612923468
Ni 1.2164032675072085 3.7957680961545393 7.507329786585512 0.34383208309686586 1.6911366765778941 -0.6515149699666843
Ni 2.8483036050047517 1.1683626056792398 9.836450566919199 -0.4942503597828391 -1.8071430514429008 -1.1077070894252212
Ni 2.1667301891438537 3.5368431947365777 0.6333335881576302 -0.11008461006393298 -2.0967351422492793 0.5360091888871801
Ni 9.251384597052088 7.759789671055973 1.866762295767736 0.5858754775900039 -0.257757205683969 -0.0762082690314623
Ni 1.7672960785846217 9.071468335188838 11.334594807977476 -0.04405071046231124 0.2927404066273733 -0.9374643218141532
Ni 5.530539924126358 9.441666747959975 9.599427427313781 0.18182198780823525 -0.20219540925826468 -0.21768244915027027
Ni 3.7667454595353673 5.549215198759058 9.636088770015359 0.5575249514717688 1.5076221315585843 1.4179227700192225
Ni 4.4739881144871445 6.000228639256225 5.068388016258973 -1.3317777014900225 0.4477437315808676 -0.3740903677607751
Ni 8.17365635992758 2.4778550769483565 6.803717508681629 1.419615327230297 1.7621369190458556 1.3870453637140758
Ni 4.66600254533368 3.126802343376531 3.8778911341871867 0.8172536790598119 -2.555292419505883 2.690906284189172
Ni 7.7917395828655875 8.471858624660348 8.10022529123415 -0.19288030250492588 0.8624282187139212 -0.5065510315270632
Ni 6.42421110188721 0.7484987080788582 4.353346396171645 -2.4354052215292317 -0.18229301390738284 -4.618125252580762
Ni 7.857890444052153 6.566832395659561 9.525576720752863 1.1714956446360922 -0.521662690357521 0.524078241777549
Ni 1.3489087875201784 0.5524583474925551 2.3457163926871005 0.47620558646598626 -0.31111608092108356 -0.8903290588892473
Ni 5.8192100174320185 7.145738118686024 10.480894831859795 -1.3173144748768408 0.09905380617106811 0.6432635285911696
P 2.6675165714076376 2.4289899610319403 7.958069026621802 1.528327996647368 -0.7318272338641912 0.18686083578372334
Ni 6.80962022941375 2.8626064939099547 5.163958919462399 -1.373731677324305 1.1295874344380803 -1.3161243112234817
P 6.469102163826728 4.944038107251275 9.501239577144217 -0.5641090324471898 -0.2438843043566187 0.14995624944789013
Ni 3.2428373086787166 3.3156208566891965 5.662124649348409 -0.5282529419805291 0.8704055804924428 0.0602975113384768
P 7.805588558845691 4.364076341909272 2.1060902014091707 -0.47963620941409 1.1713084683259505 0.24203902361776378
P 4.292024612696403 0.8917841968865076 4.900307765505944 1.945773077244694 1.347902374966027 -0.8280219733199095
P 1.5569676507396493 5.318886811622419 10.232469214305278 -0.20439935888811894 0.7010022780635348 -0.10247800136126865
Ni 0.07855194757088801 2.96467205735395 2.25093103674997 1.074157792714866 1.530877245431783 -0.19414734214280754
