# total energy = -340872.0038670779 ev
CRYSTAL
PRIMVEC
9.25896857733228 0.00000000000000 0.00000000000000
0.00000000000000 9.25896857733228 0.00000000000000
0.00000000000000 0.00000000000000 13.55143642381014
PRIMCOORD
 96 1
Ni 5.58925048796452 1.406141048584125 11.633176519179075 0.5627854285397598 0.03194441411708047 -0.5331863747264043
Ni 6.922097540837949 6.523573012871834 8.881232342911266 -0.05795755035139051 1.829451999352746 -0.1781633080097254
Ni 2.2542162806610797 1.0513003346355776 1.123332332921391 0.7872332214383216 0.6622770935791948 0.4150297862876143
Ni 8.896137430619083 7.094656939279111 10.946606402890554 0.5917843868752711 1.313933731330066 0.28097092479627095
Ni 5.038369631117721 2.485866416927615 4.054508846325245 0.6693887649233117 -0.08125380187516976 0.3065019791878399
Ni 5.409487611925718 8.171558322189078 7.089921902719428 0.5387129609715883 -0.1654242631765022 1.7016440038671212
Ni 2.590696459807415 8.323275782233983 7.897492850607902 0.02859786624235075 0.42829359327605593 -1.3096824122528798
Ni 8.607220573348169 6.079022151823624 4.584098704797013 0.5905361162904669 0.6146497215092189 -1.6632026691717872
Ni 0.34057634687023797 9.169397371929058 1.8558019344217151 -2.5138845459830574 -1.611240160061567 -0.34383413997939494
Ni 5.117580107785861 8.105569652731003 2.2435619854533613 -1.559050108321573 2.3255018742381695 1.411673189565085
Ni 8.133503961101287 5.844973942680753 1.8938674062718686 0.6417252375697723 -0.6855872290600451 -0.32956374610330985
Ni 6.535702261783029 1.1231036363961189 5.729628489122752 0.41014469028117106 -1.144106711100178 1.0992859552410619
Ni 4.5876985918021065 3.6503483841513105 11.924695146636282 0.7579110754354367 -0.13944712238645016 -0.6884473242166594
Ni 0.9372576179644507 6.9075331831758815 1.3941988308393478 1.4379650333820784 -0.9094662939393304 1.5312778233043114
Ni 3.7733723003979014 4.444480864963673 8.686023655396392 -2.201191864603474 -0.5384723057156919 -0.8251690772521466
Ni 6.915319975797496 0.42169417107708546 3.447701967132344 -0.7262037170298267 -0.3745904473256452 -1.1324511291391206
Ni 1.9599569984880603 8.003396933849304 3.5299188309161065 -0.17910715998023347 0.5263354132428419 0.42185580807051226
Ni 6.68904004133897 7.989860321705667 12.077379243006629 1.1423002540190585 2.2845169471853755 -1.4979175026763107
Ni 1.8070914263324784 6.570738199095973 9.370439209683665 0.5695826539672514 1.4041941075792201 0.1563752656003565
Ni 8.903368685122626 4.10675072505168 3.330062141146714 1.3386865127947138 -0.5463864183564461 -1.8215402007048371
Ni 3.857156707571485 4.515052723895826 5.085082053775633 -0.4505277220839079 0.23927611616064595 -1.334162142561799
Ni 2.544475688383995 2.8116617462697384 3.2283995914367765 0.7781235458275696 1.5393266617507166 -1.1186867283651767
Ni 6.843118538385671 5.3782385927842835 6.162936184558091 -0.27445086428956605 0.16619919366931377 1.563545425088765
Ni 7.883715505279767 4.930298949215846 10.760613166857597 0.3816504394962202 -0.046446464387997426 1.0860694565507876
P 8.031071991097821 7.698110220032596 2.936338388417587 0.5749215496816615 0.6740427187555553 0.8336192649020289
P 6.9011630127553465 2.9205009225682765 10.287694677707009 -0.9971283133336892 -0.4382085383969227 0.39973069403669864
P 1.7738887648091644 8.544657722284859 5.714017868004987 0.8303853313457635 -0.6714842139997597 -0.07872615035730957
P 0.29324079562322425 1.1924903473430557 9.098651444386576 1.3626129417033244 0.6247472149545369 -0.3045931922009012
P 4.256616391369684 0.4302105704270978 8.987841033665752 -1.9341095248638367 -0.7479161690062538 -0.3652750834619903
P 9.052521410855775 6.075938915268336 9.105982695751372 -0.4549610752649132 -1.4692108787702376 -0.9924116245843103
P 4.873245184490062 0.33630148105168967 13.481741643716065 -0.657740382051106 0.03767154640884479 -0.3366160249644009
P 0.9414056359127064 1.4071132402907474 3.0308733840726876 -0.48850265866578446 1.6273355229615325 0.34267071579891306
Ni -0.21701078095852888 2.853845607368517 10.334217291507912 0.6328145653437037 -0.002930800493549791 -0.04333131579778343
Ni 1.7044465000504203 6.185870649865745 5.520014698206325 1.6255146677027101 2.4666932330092357 0.03533569918681656
Ni 4.534987283365902 1.6689013194625777 1.831178633235128 0.3719476103861594 -1.0777018013123825 -0.16755236526309855
Ni 0.4780081442089731 4.332502898298039 5.534447578513782 -1.2002542048260234 -1.2395105792234848 -1.1628847630386294
Ni 8.054256448558608 2.5123933620654553 12.620344607567795 -0.8065242084574498 -0.11454598826939627 -2.09553700817612
Ni 4.335169481264775 7.352241446690878 9.216358860843238 0.08469136680180897 -0.2583056219882713 -0.03254528092587298
Ni 6.693456569377625 1.3329026066852363 0.5998135801832639 0.32007431855563584 -0.8121466968505497 0.38757297562824217
Ni 6.72351118156521 5.9733310248608165 13.063665877581343 1.1949531043280839 -2.0233028933010573 -0.7718150871110385
Ni 5.229159938800211 2.4281737833660504 8.888631184747094 1.1363998293742235 -0.2367744327847148 -0.6424585161913708
Ni 5.859306826126958 6.0203758444927065 1.8781753062301192 -0.2285386751384838 -1.4017862694686762 0.35697839067083686
Ni 1.6511981714334152 1.560775083748896 4.982863040050761 0.04690180675786116 -0.5678147634335512 2.0395214120424487
Ni 5.359535476142595 3.159382313338356 6.317544294610685 -1.3470192010301252 0.43735801747116937 1.0995713476919644
Ni 7.018085268671802 7.531272864207555 5.184643743502403 -1.4237959409705478 1.342525684035146 -0.12003400796716103
Ni 3.1895480331495545 1.3739198377360677 12.238410299600973 0.8101224673316694 -0.2053064440834206 1.0786929615810583
Ni 0.62437484628 0.5888694792572858 6.964611947116979 -1.0933467069384912 -0.72372697335456 0.5699870884945215
Ni 7.899502046801588 0.7414109875106603 10.749161674450448 0.47720111761003625 -0.45307594242705845 1.1560687685580606
Ni 7.560892304869318 1.6233934886240142 8.380845271512708 0.2892671033667922 0.6600818857000891 -1.1562518311031442
Ni 0.9402667827706631 4.485951785477595 0.9360409894858776 0.44398426453843537 0.6000805654457924 0.2316170569534914
Ni 6.683345775628752 4.420620502792568 4.191689725613985 -0.7560879061837688 -1.0502087380984364 -1.9219916585543804
Ni 1.284839300503551 8.616636944449455 13.345644063757561 0.9374252410461016 -0.27578526683027343 -1.411789403427975
Ni 8.773113514372492 7.042862268737722 13.223315496055422 0.2166108133526463 -0.29027369025443556 -0.23476768676733115
Ni 1.708372302751448 0.09804970014875622 10.334677462249047 0.7483316592771178 -0.3907372322888368 0.28402513824156245
Ni 9.219775420269368 2.40201719697359 1.0876436383197137 -0.47396744116408696 -0.6348303102221519 1.842998627688929
Ni 8.297146972747425 2.092091739870998 4.423053759749715 1.003178119072195 0.4167997337038434 0.2567886711231126
P 6.95368914181886 2.6021312860710215 2.41334832278849 -0.03632351702138261 0.32015350853300345 1.8552573904516243
P 1.7783608466596272 3.2637401488177966 11.394509010584452 0.8742306106654879 0.13426737795772362 0.0033295785938652336
P 7.502375623099282 8.456225312856757 7.179917226053033 0.8053502427540065 0.8033167572637455 0.06075748169403084
P 5.495633056101099 6.344226790421584 4.0704176062330415 -0.1881582144389082 -0.9158809392164226 0.2097498245667549
P 8.498205476645575 4.595179838458781 13.12269643211059 0.6804717622103507 0.7425723881958373 -0.35303611819363717
P 5.451615919212689 6.675799716191636 10.937202068448494 0.02282188299052199 0.24779829469904419 0.5791867527159186
P 5.011926016697592 4.891226101578259 0.10402729029918889 -2.702266446396998 0.2748236742479525 0.5384406811468082
P 5.437088597425159 5.295000464760135 7.823528505568069 1.6207462997797892 -0.13288103913315824 -0.4373842427234144
Ni 4.959057305794601 7.325288588995851 13.462119111488972 -2.097644027216794 0.8354421770433805 0.7057562478087522
Ni 4.16554517588075 0.7037501325898348 6.31795076333374 -1.5302627517762355 2.0095572615801904 0.5176718240305729
Ni 2.5129766770894286 1.5310167585576158 8.203010112743609 -0.892177939172528 -0.7597622697115626 1.060450984651735
Ni 8.934210309644143 8.420976419265218 8.979412594517768 -0.8000157179149706 -0.5135927688651929 -1.1879239653954445
Ni 3.414152094285236 2.3992024705087025 10.183877565995822 -0.6705208216452258 0.46795054554604565 0.6276206798475901
Ni 4.533616956007997 4.048706250682004 2.375607840737408 0.2869358841304542 0.3731976807431766 -0.6217217978646518
Ni 5.637656375985682 4.78824785242536 9.961416956099027 -0.16426803808487192 -0.8941067807641248 0.9119479227106037
Ni 1.1439918696355489 5.303463162092067 12.055059573216303 -1.8807177395062578 -0.17363970910775903 0.14491791569303428
Ni 3.0460062424089136 5.901870304939751 13.287793101832348 -0.29424578752830616 -0.2566968827402547 0.6996169676802337
Ni 4.50886773284798 8.106125190849072 5.0911392710563215 -1.0793470502252895 -1.6893525880942777 -2.4675676651943887
Ni 3.927052661793319 8.430392790366504 11.547016260653878 0.14328500807530165 -0.15411063793589588 -0.6806108588913762
Ni 1.422372020600402 4.255459020290372 9.351372215574642 -0.333005167684691 -0.300467857178618 -0.42961051231526654
Ni 0.45338391712552245 2.982110099862234 7.271687493673872 -0.4200174693101928 -1.3752445144244057 1.667576629869767
Ni 7.69961943192002 4.307198137019953 8.245357857587218 0.4055583564620693 -0.5021194781182706 0.6151626565898953
Ni 3.564054796477778 6.314301803794883 2.95592018118269 -0.2908089939326153 -0.168936904315451 -0.03769571477856088
Ni 8.94397852155354 8.82898213111306 4.903858112486306 0.3138975003209626 0.23486873112156967 -0.7317624420645268
Ni 3.430179368991554 3.3034148294166252 0.28074766924469446 -1.2846599220666133 -0.04559697190350857 1.0652597188942878
Ni 9.004578471266337 6.720316837386308 6.885539429081493 -0.5969379060517526 0.6742597198623679 0.8107626720188296
Ni 4.016892434453865 6.267044027884399 6.709018117961628 -1.4681166172647941 0.5241142372218071 0.1203566814139024
Ni 7.013983545566719 7.970222049231893 0.9453629191070914 1.4324381900265784 1.5067294445409858 0.6879462162105249
Ni 0.9949132156514773 1.6409484931550247 12.629342473286801 -0.8171307803287025 -0.11116447339167307 -0.7425083677271213
Ni 6.694030625432965 3.7299014426589276 0.5199086808675357 0.12463371152270149 0.010560292014349555 1.2617125692418205
Ni 3.1431050464789063 5.316212761901773 10.91764712669243 1.429500447554493 0.1811948957471976 -0.307133956344884
Ni 6.193805585985511 9.14631476312325 9.221494810744794 1.1729233782215542 -0.9640407867511012 0.6622626954014917
P 2.930630234254419 2.828290853937299 6.6901677837186515 1.5608663355947054 -0.3401188959113368 -2.4780940186470097
P 1.9290968560292745 7.40840635042775 11.484978393112145 -0.03720540540570367 -0.609607273989305 -0.08650013787577361
P 1.8819409287737698 5.130126010285608 3.6375710074357017 -1.002026521966255 -1.3400152589084664 -0.47382423071800334
P 2.9712308117166977 7.669814811885567 1.1433418900374073 0.2463780173127499 0.39913162700011906 0.4052269412645795
P 8.400245588492574 9.498498153073697 13.210726076403093 0.23363074494941058 -0.2372850538725462 -0.7106616555301696
P 1.9861506207550585 4.683547435106442 7.105058464643107 0.11163292838765934 1.3408177002051038 0.9720430882302872
P 7.425590996213381 3.14580866532018 6.36189845795739 2.1603437202388602 -0.5539020100072009 -0.3033436360645163
P 4.445851192321578 0.5026805179293231 3.7798748740699106 0.45009500542186354 0.032534225182279455 -0.40845496128357395
