# total energy = -340856.119153854 ev
CRYSTAL
PRIMVEC
9.46472934341293 0.00000000000000 0.00000000000000

0.00000000000000 9.46472934341293 0.00000000000000

0.00000000000000 0.00000000000000 13.85258810358861

PRIMCOORD
 96 1
Ni 8.075429941679552 9.053032349573172 4.7195209313605355 0.2105880041973341 4.217344520012994 -0.7118723880088191
Ni 6.118464686272719 4.452511457659687 8.61453618099271 -0.17385593888362316 2.287022230105732 -0.491023111094793
Ni 3.153221835837301 5.758350672045293 11.758630232049708 0.7221981954148594 1.064303782738922 -3.425139299281379
Ni 8.485697555607121 1.531440498109452 2.289694022347525 -0.5959192349792511 -0.35057274425480917 -0.2510204011807677
Ni 1.6891418150001518 7.782278886100651 3.86211490467696 -0.5345032937656149 0.2323477644719289 -1.1679920023582078
Ni 0.7925092184057906 9.421172454109282 5.583936536443419 0.5846107519449673 -0.1983158716982004 1.648228821470774
Ni 1.4756837787598474 4.820443338154771 9.515854764983096 0.6427030281020092 0.5250974270706827 0.07364436495902801
Ni 0.49405886098274715 6.752118837305935 5.862720133191442 -1.280200600743679 1.5566417559903964 0.39102005363657816
Ni 2.0421572823743763 2.7411464586444496 7.119287860632527 1.099324264678165 -0.937607789370553 1.7460785800314123
Ni 3.835127176014006 4.539170517643558 1.0264243202041048 2.3268619878104895 0.19959576685188848 0.3034174267252452
Ni 1.4676955473677127 1.0820172997396291 12.057250954597228 1.4830889223039103 0.7820869013506917 0.4674694921445691
Ni 8.766695898973344 0.6228634133434389 0.08384519601126172 0.365070680760668 -0.7361407736378806 0.787329894917186
Ni 4.552752403956014 1.3865260302836506 11.658891862870588 -0.8690035579385937 0.8188963568695575 -1.3966821154728915
Ni 6.37422059702896 8.848225075764635 2.4179278515412195 0.5284817701618834 -0.0003658679798509828 0.6402476245829812
Ni 0.9504291705395689 7.171898504016794 10.359727175472816 0.48364404502190256 -1.1513572220150043 -1.771863145194684
Ni 8.303009353793156 3.927143272689758 11.611945859875174 -0.7231358767377805 0.22232791834208165 -0.4563191319547045
Ni 4.167102550515343 2.3815908634361436 5.035235901203476 -1.8990728449746779 -2.0071013438405303 2.2848763874073232
Ni 7.396638497389119 3.179912372005335 7.125715358189872 1.24799110589067 2.280736911317653 -1.811262472927913
Ni 9.269339269283895 5.88726974762855 3.5030287600338785 0.2566233491898419 -0.04053549822020116 1.4992843011168502
Ni 4.972219734605332 8.584982564260551 11.975700955401834 -0.0934212904756391 -0.5931933514076558 0.6352702259730478
Ni 7.032274819778912 0.3275629177773889 12.037649500553258 -2.6430230873546483 -0.1348826429442193 3.4321779512957145
Ni 2.000815345501337 8.396464089297824 7.981431930722386 -0.9163540221980992 -1.08691406393927 -1.2915111406604918
Ni 5.741058611910897 2.153585538511347 1.6469206047902298 1.0139135032118278 -1.4596939404187377 0.7885449982712096
Ni 0.7219203220246522 2.7415250478099535 9.357866666799527 0.5185997351614811 -1.6315691014269063 0.10907519496281215
P 0.5819483357545056 0.4363656580515894 3.556416457680342 -0.9798522998620609 -0.4846295488636234 -1.1225336129150927
P 9.406549447591688 3.93628620103668 4.976528079308768 -1.4089097678873348 -0.8932313201377068 -3.169070794153742
P 2.2994748734383212 3.2552989395863228 11.049502437927437 -0.12037107959160559 -1.5135199851002579 -1.5508380048244257
P 5.371735416232587 0.31151641599750096 7.561213100579543 -3.0221764714606274 -2.460730073447265 2.4695731256601916
P 2.620253473369878 8.486009891668662 1.265005533467256 2.02641881322222 -3.321710503971067 1.0745622272421365
P 2.698659289545761 7.792491328840122 5.7459149644314005 0.38564284848506486 0.09616208644556987 0.6779716214963163
P 2.290861969923105 8.155141890476424 11.655263085719232 1.0165236871411654 0.8009469714799883 1.0066110560131438
P 1.1306470780486204 6.2434558992638705 8.047660426389832 -0.4740774843793899 2.5568957594372606 0.17272259661012834
Ni 7.33695391544741 4.557077785171899 4.7787133473870895 0.6983764104049134 0.7859993490312205 2.1867193820189113
Ni 5.600857579195621 3.2966030175428114 3.8757185598664328 1.1344085099758077 1.6353910462761578 -2.6407309488863615
Ni 7.053305447922659 8.678446764494357 6.883655856968653 0.4244428520713981 -1.9077192077957663 0.34663844219740947
Ni 3.9652672016560127 7.9999014031615 2.9398234273905635 0.4350229415800895 -0.3190016543167474 0.12192762544544809
Ni 7.889116748605886 7.6831358483842855 13.67466526630099 0.9423856703751706 1.0009736552217086 2.3718007573047086
Ni 6.3735769954476025 1.4173431883556777 6.29275956628746 -1.5617176278514073 1.1575782632240517 -2.6560920047234644
Ni 1.7655695027862763 5.982835117730903 13.671479438473272 0.2938824906516164 -0.2639203970718874 0.48662138248267156
Ni 2.8075226040864423 0.6259933992692434 3.7559906827487004 -0.28754240736620157 -0.3138046834968402 0.6030977550055613
Ni 8.964376231741268 8.456735484446064 8.503965429315604 -0.23940852797345222 -0.15143000577993923 0.3898509730291415
Ni 2.396299052515975 5.674767649031144 5.029902526334438 0.40459033612184514 0.8376039605813898 -2.1023517171051083
Ni 8.79101078812784 3.181739064728892 13.862561908559375 4.390931007285315 -0.8882312958199541 -1.4125010847830188
Ni 3.2560087942716427 3.779484033414052 12.864510006891056 -1.8852549652549788 -2.5182587637913536 -0.025455206848310995
Ni 0.22325497737063482 5.447604684999593 1.2728536868681544 -1.8199183488306978 -0.5630947322500625 -0.05372911409233973
Ni 3.274048568007909 1.2821963209998801 9.118618190132175 1.6036145251955092 0.4415530293891234 -0.986316824540482
Ni 1.1295113105521084 2.487889236380535 2.8367884930528167 -0.21462874992561098 0.07715212100197036 0.7883732485800358
Ni 5.539876329362061 3.0323761742084177 13.371403987057302 1.1301512773613505 1.3497360857406562 -1.257626572097905
Ni 0.4893321752514294 4.603189945530288 6.756682729696086 -0.35547660931432973 -0.7423782699071603 2.7599108363833436
Ni 5.842567831911664 2.184033572147008 8.589200047564265 -1.918197224508955 -0.49709477121016965 0.27051193424647607
Ni 5.812432134337543 6.642810680495787 4.446583697800809 -0.6486700443187217 0.07061329144218806 -0.6293394623109098
Ni 6.572099689108774 7.275736047385409 9.428085492271386 -1.0331630954700592 -0.7135832000523388 -1.4845184556615854
Ni 5.124223284555197 9.11267907259833 5.236693607370217 -0.332429240576563 -1.1589121515441265 -0.3892007410396523
Ni 6.080937035242132 0.10570777384620517 9.855742653043468 -1.5484779892326817 0.008453530083991892 -0.8023253398847537
Ni 2.1282957822556785 0.8679819150219308 1.0008373714535157 -1.1583984451325018 2.9253304715741555 -1.3111250582366776
Ni 8.71487650694498 1.661258722960781 11.939448203386084 1.2675785411042944 1.0982927380898568 -1.0595541838690785
P 4.688429296143519 1.1336473971852399 13.720517146608094 -0.7844811126144813 -0.9314903636189055 1.4107308802564735
P 7.782392462850302 7.1825841832131445 4.80612793533415 0.8773858684650181 -4.668202628853128 0.8860772255914288
P 7.211915378810569 3.555378176893947 0.9530736158606147 -2.787647897287296 0.3243341222732543 1.3702614593875175
P 6.300244274089474 2.418872431509152 10.91822191242435 0.2668936207675984 0.6549857021241042 -0.21801540700965677
P 1.9387929754626407 3.3402827425128376 1.0927928938627873 -0.44416449887004145 0.9947551851158224 -1.2811189987928906
P 4.865807784911289 5.144165468848121 12.87839097864426 -0.05763667667686203 0.5817362586106497 -0.22780591073751735
P 4.53648253456848 6.075087832635096 9.53548461321448 0.7749088955450139 -0.7809481597605582 -0.4399931411011713
P 8.36859046198759 4.011227926348202 8.749571364544682 1.0098259634060158 1.190306606695008 0.8105245878660944
Ni 7.600224821138905 5.9891196978782695 7.067978617504681 0.27775036097644423 0.29692102036762413 -0.32288607697281807
Ni 3.532435673464404 7.317617473819292 13.334930706852644 0.9458222068605453 1.3838777646193716 1.5934913207185784
Ni 8.974654927584702 8.089816329968704 2.42140424655346 -0.8668590007917653 0.6567152832207013 1.1856361978025323
Ni 2.386673422983035 5.523436094850049 2.3080347744703675 -1.614800880829632 1.6135541529067243 1.4083330694482583
Ni 4.1042378195834015 7.514360798402594 7.791138819046359 1.4991711725777537 -0.4200974306185088 -1.7429125235986045
Ni 2.875148093774598 5.170193473976522 7.134221310265834 0.2668686810669339 -0.23193278842169732 2.5546406448544974
Ni 8.39924671966428 1.1654204929001648 6.989600249043297 3.037472221277434 -1.3524028339395417 0.5371119350330555
Ni 3.9964061605187187 3.643807141226549 9.427710688997536 -1.206823887623741 0.9630475695998961 0.4771041870208557
Ni 7.144346677497239 7.3061367573753815 11.630979430170889 -1.1586231595487984 0.14771630437377786 -1.3197094574715786
Ni 1.5615478014961592 0.16565263583919804 9.866741614774273 -1.6751102192426508 -0.4911971747788121 2.100571999496866
Ni 2.0047148139060282 3.3975064948787703 5.023862136198821 0.25168914511301815 0.032771023783433884 -1.5927647269651988
Ni 3.661477790526449 8.022673541466567 9.98185638291034 0.03644538731122755 0.48933363920751205 0.9320945728618076
Ni 1.0230615019415152 4.847143339051941 11.85187201114878 -1.2665773535332896 -0.4600428606631948 0.04729389998995726
Ni 0.15115551021913534 8.509349913721985 12.062860699557085 -0.9433786304160592 1.0629732368529563 0.5521120079863137
Ni 8.483435485343236 5.848937594621268 10.038859607087366 -0.2254914036717278 -0.6100117085165753 -0.6048103668212939
Ni 7.9743466344899785 1.9773428172400878 9.557149378210449 0.14139319036922746 -0.4893889179254798 -0.0970293195418716
Ni 7.443943213618845 2.0875027996726203 4.427952378493442 1.4275266116575738 0.12907709200603576 -0.480581861156811
Ni 6.760779064466839 5.522536945581976 13.617786030075663 0.9803138128795116 -0.48720399445901896 0.43329053227001507
Ni 0.7297751007359468 7.982315936423838 0.6280358878171375 -0.036960636384749244 0.03287489635114983 -1.1871546913295876
Ni 3.546396148942364 2.2731723911649295 2.253248189857367 0.23209271103832935 0.6802341922782478 0.6014316801570481
Ni 3.1544238564377767 0.4178592731688391 6.302442930668138 0.021335785363298738 0.28637281253813257 1.07454937172633
Ni 4.61442457901662 4.869953336273559 5.6872355367241045 1.2206852189868653 -0.02191171247142678 -1.2932538343832116
Ni 7.115214241211705 4.77744507368265 2.6109496446276172 -0.4401229818108162 1.5594992800438499 -1.242538053195899
Ni 6.081855113968479 4.6930291545043925 10.91632423423226 -0.7982925645762767 0.6202102463161318 1.0341393433403996
P 5.903937135639865 7.843137094455423 0.5848975453537819 -0.9605168327582426 -0.46488630479842513 -1.1584136146411532
P 8.113090098918065 9.381799180896863 10.461460709554144 2.7735330551524684 -1.7609107599482383 -2.6126838129411585
P 8.891374775902955 6.337194576642666 12.258681213049469 1.124812124536624 -1.25506935289369 0.1299890622973439
P 0.9946294556121634 0.9304150543051989 7.940718451864083 -0.10105438154086467 0.36584021193684096 -1.0085077588152245
P 5.485596107757922 0.9747345949649271 3.63134493237107 0.026494960966735013 1.0316482014874298 -0.2898918814349846
P 5.2653045370802705 6.279525982007266 2.271852061450234 -0.03977573723604118 -0.07706856014922855 -0.11317456184316638
P 4.417217482705575 3.320917906697307 7.089879054256175 -0.4719231570405485 -0.5816434417865274 1.3838937054589715
P 3.632354818970052 4.165758558977805 3.377260492780529 -0.21268885259042078 -0.00395718487553512 1.6044043680866562
