# total energy = -340857.2290543642 ev
CRYSTAL
PRIMVEC
9.41375622085601 0.00000000000000 0.00000000000000
0.00000000000000 9.41375622085601 0.00000000000000
0.00000000000000 0.00000000000000 13.77798378628433
PRIMCOORD
 96 1
Ni 2.9225194221084565 3.9275132004234767 11.709164079013771 0.17618690100964496 -0.8734173707355731 0.2675631360307973
Ni 3.416186208003827 5.850065789997279 7.668274423730774 -0.8772498571077859 -0.23492992337680835 0.3680487895523855
Ni 0.5461955451733432 2.677149868241009 10.678571473619076 0.2760377491607117 -0.6763238014802482 0.11286191569875402
Ni 3.2307257982304685 4.771955367719531 2.1394172898402277 0.7115880239991809 -2.8027505572566893 0.6334244310135607
Ni 7.6871508875487295 1.3055373569366253 5.831049061212791 1.3510290935204667 -0.47914024361427804 0.005726103850499816
Ni 7.376807588782255 8.500527659572866 6.847837334599384 -0.8921722827455731 0.4428444945070373 -0.7511652720711709
Ni 8.14213654945249 3.616783937655139 7.019524477759911 0.23502222598029845 -0.3998451081273759 1.0176392888028476
Ni 0.3761012095522132 7.554972337544784 1.3248619155469876 -0.6276096241039966 -2.0924961644672675 -0.4731865971340044
Ni 7.255323065756765 6.390782529095391 4.36992208412018 -0.6060352403673305 -0.132292770729856 0.6191650928810691
Ni 1.499112424505255 4.537449288441112 9.482366421902933 1.0509669564206998 1.4350643147955158 0.7428906907672045
Ni 2.8565478190582714 2.3445053811717536 2.24319359618511 1.4465923700397731 0.21512985793174563 2.0386876032872436
Ni 0.9877571908171764 2.69675872228689 8.161967568143345 -0.8761162577239751 0.37779301342334287 1.207142190195108
Ni 1.2097523881815406 7.493086304660664 5.196656034735627 0.1061518506684301 -0.7639192293027295 0.2159829499606603
Ni 6.676235856619759 3.249402690418192 11.35045478393576 -1.0236096474536696 0.6320257508938212 0.18529683373071315
Ni -0.010561293016838278 0.18595933884893784 2.018102214425311 0.3350630786549842 1.6080154824766821 0.3092949685519447
Ni 0.5546632188239771 6.554591299739837 7.761578867742177 -0.22439405684249097 -0.9084471086461967 -1.4475760741092811
Ni 4.833794331822937 4.569474886839618 10.634729728509868 -1.411986864150762 -0.49322217562864085 -0.4949396725403799
Ni 0.8209435492118838 2.5378074498122363 1.5064297371552133 -1.697191367412406 0.841471671066912 -1.0502611886029267
Ni 2.434858612632324 1.3329125598004863 7.034983748097956 2.4801228761515803 -1.3734779094422862 1.0016341716238426
Ni 7.5187670314187836 5.922627022347568 7.744191660146045 -0.42781459675710837 0.5996542765416512 -0.35785256574567403
Ni 0.9240025273386692 4.566095348384279 12.391987115344245 2.064625663309244 -1.0021504491386288 1.59126705937375
Ni 7.3313297328553935 7.178384436799978 0.4304920097952725 0.2104584205980053 -1.8533470608027887 -1.6342294218678888
Ni 8.834838381479432 9.011045068964217 4.449214152112718 -0.7874479085522891 -1.7804400882304179 0.09019378467727691
Ni 5.364551316921751 4.371127044906485 7.608257962816655 0.37227028383290084 -0.16305010651737079 -0.03676420410322701
P 2.4990886707960525 7.967294856608442 0.8410607460894873 1.5328857912213796 0.028947022051653375 -2.4152403165455825
P 4.838134073404864 3.2744150404901586 2.1793739777892163 -0.9763998225370862 -0.3868078153274435 0.7409826751112142
P 2.9952595158254627 5.9982383116881905 10.567368655052974 -0.48447888221837204 -3.029489460182273 -1.5605724585033705
P 7.461597290362309 5.884727240115826 2.189307373271316 -1.9067416743738455 -1.4460904907026901 -0.4966677109750801
P 2.620497883772399 3.647642230291912 7.054947500750428 1.234106377488778 -0.13071899848483293 0.20468012335333138
P 8.525954214915124 6.937589968418031 6.003053447955338 1.0824606561536068 -0.17247268538285135 -0.361709477597919
P 5.762423720305894 8.642327068354962 0.9209232877042919 0.027588451141229906 0.8398793868791277 0.42891965689582906
P 5.663899348513195 2.96650049080858 9.36410987585888 -0.24980864026085367 1.250546525322672 1.1533747666656653
Ni 5.466041021899498 5.011610771608176 1.2441446048743983 0.790637104913548 0.3965173293057236 -0.43608634984759737
Ni 0.3122872394100051 9.354129411596066 6.677265721541803 0.20759446878664894 -0.6529393611180367 1.0151417191919743
Ni 7.781297862734931 4.4327024238378865 0.5365200866095619 -0.46486265064934135 -0.548231699095301 -0.5908577612959437
Ni 8.398454301714253 5.149126921345204 11.99530555211219 -4.329207305023273 -0.20062703632988027 -1.746000418495309
Ni 5.220436124128474 6.668027061263057 11.782008665423964 -0.8543480128089479 1.7696003173024362 -2.2432759382577174
Ni 0.4807388745841806 5.136070041574855 1.2212202259149503 0.6979856027243979 -1.4024858666388622 -0.43707699589564075
Ni 8.613596284606508 8.270078909192081 8.81330723842915 0.011553766275870425 0.8423203922204525 0.7594223698736404
Ni 6.396317817707479 9.022219197505965 4.532515538846563 -0.06305450525832365 -0.6754650530243786 0.1521519715476283
Ni 6.650084442054489 5.715957419984016 10.214886559663563 2.3541992421728617 0.6113170575915602 -2.0295563304099367
Ni 3.913138394793107 7.815686313925331 10.038625272393151 1.9296625448360767 1.3343858285368309 -0.373318522591757
Ni 4.346274728688949 8.989751152568736 2.916895644188625 -0.6117613442178303 0.22680215206335133 -0.7292687291083957
Ni 3.0044379280648936 2.6143977697917316 4.959729678752841 0.07520528168824467 0.8727054322702131 -0.011663038160225075
Ni 4.852141742545656 6.839922248434345 0.07719844862633389 -1.8079974290233958 1.4499481738858835 2.3318969791312356
Ni 0.24039626649709783 7.114483860101254 10.610039328897992 -0.6961452070815495 -0.9128313537568215 1.7419750993859997
Ni 2.528035970935796 6.74078598249235 2.714318201620439 -2.1841305382458125 2.767993613391478 -0.4750403625132915
Ni 0.9136991712401491 -0.2515515675265598 13.446430413302858 1.5727528026196462 0.17079452634948003 -1.5377991693625968
Ni 5.579344990836716 6.60339221158518 6.092624396280424 -0.2474152003280126 -0.272149469849899 -0.033803064592374046
Ni 6.2555350945888275 1.895685729541663 7.7313503553913705 0.8812204117197597 -0.5268262368363313 -0.14007395733717165
Ni 7.91655471099764 3.2695575423203675 9.325159518441579 0.5702334001773728 0.9931359043448446 0.08068018875988686
Ni 7.169187197048261 8.028870235539841 2.55387296604589 -0.07236884068071407 0.311916722445508 0.49699526951782796
Ni 1.722434961485783 4.958583083254624 5.680993788293279 -0.523428266898376 0.24870152323960393 -1.0423704730009404
Ni 7.334991683995024 0.933623386116821 2.7033370550796225 -0.7463994752514113 1.1506833358764312 0.6410834902207153
Ni 6.262237688962647 8.867579425344807 8.911407049819799 -1.2787816089089654 -0.8561063902609514 0.3746259285492709
Ni 9.223993646675153 6.073877842297243 3.0900296816683315 2.40354256849268 0.16071837306040063 2.7198674473082125
P 6.1569259989908405 2.6234914582258755 5.422835646705557 -1.1316492020631157 0.3001202440312122 0.8580095208209353
P 0.2372821959649915 3.334145323217531 4.002711225869422 1.465539086345605 3.640074781814131 -0.19653641120027443
P 2.2387324171489396 1.3993266093893928 9.48317977043369 -4.421448459147882 0.5021511026871546 -0.4784758705574018
P 5.413502848865381 6.767370429840199 8.476849238746363 1.5881375126058326 -1.8633190844138359 0.6646813321453133
P 8.140489142127462 1.9026895641120591 0.9919293675397565 -0.2407668417735596 1.7479948232175184 0.4018210009068241
P 1.648424010689471 8.772594625861878 2.78122364928001 1.4925068731837006 0.39579613486898285 2.8864445931422353
P 4.394360195067423 8.187821508014496 5.0038463055414235 0.23960907402003254 0.8513997288139015 0.4267861554925941
P 8.67980323156027 9.417521645463067 11.400234726419974 1.3832455303520113 -0.800500370860873 0.5402332542708567
Ni 0.3854180040069461 1.444936257902256 3.7701660319955907 0.9524510250309726 -1.7228527767342523 -1.0614812256884623
Ni 4.334328672143474 8.191587010471698 7.505708268897206 -1.153494065852349 1.8909993239379237 -1.1895671574258222
Ni 2.3559995774223634 0.2906553691689919 4.653182947838841 0.6251066551764847 -0.5717336388719831 0.24268359918029817
Ni 2.4947959979948418 5.777975245454139 0.3375038679902749 0.1997574892407334 0.8110393227189838 -1.7573132724049672
Ni 5.199368137880427 1.3964083449850608 1.2943302802483767 0.6765677991702541 -0.39758279445576045 0.03504002232326869
Ni 6.15532566044653 1.0958741801195986 13.0375966322658 0.8522343089000548 -1.490824086164639 -1.415908567802671
Ni 5.067038967778194 0.7664482562756372 6.119036571890857 -1.2431000963469558 -0.21308377403599432 -0.5008377831923696
Ni 8.193479175456442 -0.11144757622581783 14.091708566008183 -2.7689724323649796 -0.25382213229562095 -2.9620368258562535
Ni 7.912459727075432 3.887871873305279 4.886334387608281 -0.575108468881487 0.8994083954826961 -0.6669598437668449
Ni 1.7882747719499659 7.940785719309737 9.262649353525177 0.39857241206253935 0.011699547825115333 -1.0787356418935357
Ni 4.120608166428813 1.473544662820851 9.758766540144572 4.454688966368567 -0.9600208669584306 0.007296790771729369
Ni 5.008758403496844 6.7118386823526075 3.220644606776924 0.22700115544803487 -0.8530997422241438 0.4929488673625962
Ni 0.7141840235452829 2.102995467322938 5.8759517366393155 -0.8127912724130841 1.911068840994289 -0.08677961678940539
Ni 3.0986507995440964 0.7370613337240157 0.7319647261481924 -1.2157636133155318 -1.5582777489319228 -1.2073684472733013
Ni 3.6677217721449438 1.0427805954730456 12.06934850967939 -2.7880091372814566 2.110415982170481 1.6757612225630882
Ni 2.7687551292685986 7.2115585134479305 12.111922221836133 -0.8791285621877376 1.9109942790026118 2.1281226554216253
Ni 8.18752026781792 2.5076457751300447 12.733819428409072 1.802179022569406 -0.6484828680085799 0.15932457803666755
Ni 5.212547396480635 1.6891573335202574 3.6689530914484485 -0.5407451609102687 0.6678913544421787 1.1700049190231785
Ni 1.7150639904258094 9.334991245357335 10.952987172065766 -1.1050585960587807 0.9210488565706072 1.3617562501299838
Ni 5.589587157520306 4.438040023570971 4.561917523408013 -1.832778492622818 1.161505880413232 0.339703405640473
Ni 7.492126101534077 7.437366282050212 11.784185125844227 0.49071689270828395 1.2878195507415175 -0.12058499537462458
Ni 7.273058582330188 1.045030483191224 10.156234152014566 0.29183049321859417 0.6108730280756061 0.5479715034553789
Ni 6.809986503899586 3.554173045548007 2.7605293891508405 1.642257691489004 -0.1712048744140213 -0.8626171947962756
Ni 4.882369313520848 2.9738808756246966 13.034675543734625 -0.9288328713914004 1.418357029343164 0.7683885779279928
P 2.216883089141023 7.832471041128311 7.236568980768669 0.12002629465767717 0.6197428197614101 -1.8459127160119306
P 2.6186527875683705 3.046602141829417 0.09837751719686849 -0.379232831193663 0.454830720334636 -0.5120107690900536
P 0.06954318213084151 6.4160490505832195 13.23063982261235 0.3265640400450376 0.752798951019852 -0.25189534758655324
P 8.95511794371862 5.370143088070696 9.287587334923613 -0.9066028563486063 -0.33746963121394785 1.1047207531033878
P 3.2867847160620682 5.5778387898538355 4.186110023047462 0.9285297383286849 -1.735064745419412 1.9707210054392834
P 5.898170083888038 5.031407900776916 12.773954036349163 1.3985145406959398 -2.1615004595511227 0.21642517970440148
P 8.594721703539783 1.5274572442518457 7.997389693622017 -0.9185934530515791 -1.010142723315486 -0.3700439656055433
P 5.054462189571138 9.330802123873696 11.374607658071872 3.0472514121513843 -2.4654686165735153 -1.7760388738389283
