# total energy = -340869.7025577586 ev
CRYSTAL
PRIMVEC
9.26995368834692 0.00000000000000 0.00000000000000
0.00000000000000 9.26995368834692 0.00000000000000
0.00000000000000 0.00000000000000 13.56751424417502
PRIMCOORD
 96 1
Ni 6.141464917910625 4.691560710226424 4.456548840876132 -0.19704471829526066 0.1635285888156861 0.03787852021332831
Ni 8.165531525556107 1.724776878478413 2.9486823929155594 -0.0820215332791297 0.2440030893226701 -0.9466405889967826
Ni 0.4059590878217635 7.8143300549737 10.829970251356604 -2.0213668526206092 0.08918668356900124 1.5397413806906322
Ni 2.250197861232222 7.274262545177708 12.226799338420534 1.7417475567562262 2.3681929853487924 1.1792778596846722
Ni 6.775826398006049 7.220469003136063 2.9876347388847107 -1.9282381536847244 0.41887461395500125 0.07950133796043728
Ni 3.9184929110599827 5.480507940293664 13.221800956082133 0.4980748757352519 0.4406791114246023 -0.5608409032188794
Ni 5.628410053558255 2.6739552603963865 6.2527655454958735 0.7278849613869917 0.7368465414556535 -1.1564878583733502
Ni 8.149355456132934 6.242674273762885 4.848867191645633 0.4322451217246362 -1.2247269931564069 -1.3303715651711154
Ni 4.307562143014113 1.6448420666526176 7.73523324697361 0.5174671642189347 0.46729568557086615 0.06628098261542134
Ni 7.8369209324431965 8.574809256846923 9.200796260657594 0.0819045480852912 -1.6555549228185424 -0.3333864622835097
Ni 9.199743193903169 3.9120410231983627 6.141050550974684 0.4735167267799135 2.771103105554737 1.1871045548179426
Ni 2.1509073858215646 7.060988717545087 9.653299786630503 3.139538846132896 1.1323205170985273 -0.09715556070709074
Ni 8.972351226596341 4.989469216273692 11.04021187709334 -0.8968694311109263 0.7075246525630847 0.054778124182144367
Ni 0.792094379390545 0.7103129927629752 1.7285284287910536 -1.4603552281518204 -0.6754789369814496 -0.20490946575531804
Ni 4.386069381950987 0.40164763229814326 5.33971217363068 1.056402268503658 0.4159803231263416 0.5672061833152747
Ni 2.587132872879235 7.335444240417211 7.197213469977375 -0.5666999331028176 -0.8366320835864237 1.2436762805654
Ni 3.2998532726503464 7.6298672438265935 5.040820125482668 0.6885396268201497 -1.1014166284308193 -1.2248360079304454
Ni 2.0213783210364733 5.3449534055228645 11.289271434468775 -0.11095055760865409 -0.7716775330919097 -0.30447415012453366
Ni 1.9669915019500832 4.958804209023347 8.137442638473498 -0.05633312737409008 0.2113248823633586 0.04511463295045134
Ni 6.484870357326907 1.8387138809312547 0.9433726098378978 0.9582223802971108 -0.3599906951345994 -1.2260400555408755
Ni 2.6290145242568235 4.050997631022631 2.998230296105734 0.6011282899840164 -1.31206196822865 -0.7594095143578341
Ni 2.152613057325212 2.2177622928014604 0.5759746759339059 -0.17064951613118354 1.375682630403089 -1.1747925702198092
Ni 6.0960328742183805 5.414941556895328 10.594071247425338 1.3638277879470317 0.8448038207639387 0.6156138851947011
Ni 2.833268686818528 3.2669542065283763 11.509933415299255 0.13616408075980418 -1.4251329146144165 1.196978619398545
P 6.764405814894674 6.267350890842819 8.516600435798829 0.24225191095951826 -0.16252354458993945 0.16355918494330543
P 0.4907763843267481 6.170600382779983 6.52661203240175 1.7253230926516159 -1.8424921203661557 0.3635647856391029
P 6.5172503060347236 1.2431471575899709 12.292778234764045 -0.7468442760983137 -0.7637958163509878 0.0052856738789715425
P 8.66124230630346 4.197574140890367 3.7816053569292674 -0.2058234929291552 1.0310259945223985 -0.9710133614141923
P 6.441051285600067 7.6411395076767805 5.179263177865079 -0.7899300515441944 -0.7115887953301294 0.2209598343499614
P 2.168418328595417 4.242496337122282 13.43262658890979 -0.8001031354224543 1.1342136203561823 0.19493435682047716
P 7.726738261289142 2.5537146893431113 7.352860629662058 0.11570041358881365 0.17420689446513868 0.7193010763727224
P 4.080652213306143 6.868220027771526 11.184706355332166 0.6412467552714569 -0.15888183407229411 -0.8944109422681048
Ni 6.534149431856181 1.1504568893021208 9.187161085577626 -1.1060186459792047 0.42598782796101475 -0.15460686084602407
Ni 6.827765949282859 4.812440908093568 6.768914720434751 0.7099833985162224 0.09517452572131996 0.020098570522087966
Ni 7.472268758861922 0.24952954403432084 5.007756054182628 -1.666151467387466 1.4012525084523932 1.9467202716493122
Ni 4.415056527559158 2.4156387271321376 12.801098933698414 2.6192581237245665 -0.3586912595968855 1.3221154958099102
Ni 8.01759233247622 7.241901136377539 6.861092360276124 -1.6891762104174137 1.410781530988751 1.8788814576284671
Ni 3.0573142007948304 3.110672055006738 9.285701621723907 1.5779415459094372 -0.5156658493441377 -1.8505386448197163
Ni 5.0313694075589295 6.374520827004018 6.661880125599383 0.2994432725688456 0.9380582466444103 0.4488037974142658
Ni 6.534946647885059 8.3746524138755 11.217946555754866 1.439495353983676 -0.2002208020303971 -1.0473193323657832
Ni 4.790294988407631 8.765473667102398 12.423135106425635 -2.068142932433884 0.3852844367043816 1.1076623522302151
Ni 8.377396320207454 4.550675952006728 8.759852367103424 -1.6211751597870918 -2.4926536616287396 -0.3583361902503119
Ni 6.5058760726924705 6.572276751934981 0.11376550830709457 -0.12607224374144096 -0.274022775613212 -0.2217951857670632
Ni 0.2627253233030232 6.328161787929356 8.85529951965858 -1.1215334537853523 2.4100466881597846 -1.0380299366440575
Ni 1.0028421446060791 8.03367570236115 5.565910170884954 -0.42191211522974437 -0.2346609859861378 -0.6814369543370975
Ni 4.211302942503958 5.60286206081885 9.25943520756313 -0.5684539396794468 0.07095859059674876 -0.603710963109528
Ni 8.243788475739729 5.789744329914065 2.051937650813224 -1.4925580381366101 -0.007363125233290544 0.5801084931992396
Ni 2.739809012363272 7.336547364922288 1.2495017109364377 0.5219660805305526 -0.026047589016671268 0.10260938473281037
Ni 0.9107887221459493 9.089866431225312 13.00260362795587 0.57097542054972 0.09240904716104086 0.26772357286806153
Ni 4.730661375456763 8.845918326388523 3.114111207875504 0.9734780209046009 -0.19949523671828226 -0.9140855378788966
Ni 2.158221379388833 3.5047285221182705 6.273889916270386 2.10029946256177 -0.11043016632880981 -0.25205167065875944
Ni 5.970267410685901 3.3987636799542127 8.583853950793163 -0.7923941968139708 0.5887898230233214 1.0330538235857047
Ni 8.843090990472152 0.3893148857304709 7.127572014877935 -0.24210535807932496 0.39026723463095364 1.219128930243339
Ni 4.605164740585184 1.3022245733113897 10.44287551956702 -0.5045720534238213 0.6092804867775056 1.2222451072748177
Ni 7.70455526178791 8.693288536673606 13.481794423993172 -0.016327276405113816 0.26843036912709894 0.8281482144851287
Ni 6.203351129640767 9.036026539414548 7.380646389254617 0.7356795177307459 -0.5337401903473453 -1.183186193600143
P 4.939402195669364 3.594424595320914 10.763488923515823 0.06320722878610405 -0.6701654951883362 -0.4875426087453604
P 4.105217590940187 4.285879721019386 7.431036004252026 -0.25397382738213675 -0.41341204817853316 -1.1565559926071243
P 2.516940782522639 1.5979917200252753 2.660602818908056 0.8904301032434858 1.1161320802641228 1.388659245168415
P 4.152485085489617 8.727290727300652 7.344869002470244 -0.287245444951073 -0.3312709586024037 -1.1080158789148917
P 3.0298844074291185 6.13111037948903 3.200590607101162 -0.5898956544929905 1.7437015951588033 0.7414215624208458
P 7.897889418744746 6.772118416476382 11.766616582699687 -0.711978317459064 0.001056466288972374 0.20082706815582832
P 0.5242455526089045 0.8321739517447153 5.3047625937228045 -0.4428486082720954 0.5070958482869395 -1.774122887763138
P 0.6725064130864908 8.846103725465007 8.914711580713051 0.6825960076422051 -0.05502674985784072 -0.610367034973465
Ni 3.74990026085985 2.582766724628052 4.761831595190525 -0.33851607020059116 0.026347379645277207 -1.1629762943111714
Ni 2.2334655945796 0.769819607346453 6.6820821359683915 -0.4470490195066882 0.2057147352654328 -0.9827905565547785
Ni 6.675562577443855 3.791754102375966 2.3522674687993645 0.771169997327872 -0.1674006701765827 0.7636384648375171
Ni 3.7725838378675878 5.1535566689152805 5.038961499740922 0.06679880279210432 -0.930807735729584 0.12164300432549373
Ni 0.4323534273453154 3.746683586882864 1.7788364681948101 -0.3542846458887576 -2.179261897299601 0.5116628988323317
Ni 0.7973142903889338 2.5867806146339167 7.917390620604647 0.21933001205602226 -0.17737012268446872 0.9132126483556401
Ni 1.0664803776089884 2.6658904005693613 4.231816423321459 -0.038412538339927395 -0.7419224133166642 -0.3755867498006435
Ni 8.635277165641966 1.7295416347440349 9.597958162300223 1.3001906707123607 1.268198176966164 -1.0417909463483865
Ni 1.1328810568514995 5.76019171712262 1.925203477106119 3.2908438962991973 0.7654024987164754 0.02163069089589823
Ni 4.716737904812863 8.345572568729088 9.442040319963874 1.1954022760503606 -1.3910755679193914 0.8503100952941485
Ni 7.764105445154361 4.416317241279246 0.17919747737498026 2.1016251233517287 -0.9595321002474702 -1.2905323216869902
Ni 2.9420886747604293 0.32332764642851763 8.89290864931861 -1.5251441996027473 -0.3716930711731921 -0.03511561275621049
Ni 3.48179465635728 0.38499508724840886 1.0801600484673122 0.9132640704188658 -0.583308488193776 -0.6419070145632751
Ni 7.814274435250756 2.680601817288315 5.036044245272456 -2.2443506593791347 -1.2083061285962222 -0.1714712407015305
Ni 2.23135204510769 8.783726206182182 3.280258444256821 -0.2875568055439048 -0.0850603201054535 0.10517508857745758
Ni 1.5537184205610517 0.7292478004442196 10.500903576515544 -0.5842757372030518 1.3529628202080701 2.4548427614285533
Ni 0.29291756290833637 6.358697015826164 13.068338724513806 -0.46386377707118176 0.023770105836404223 1.2199467981589442
Ni 0.4590694342665658 2.9265893119664215 12.032879320382012 -0.12199216013479634 -0.6143291049450066 1.30445175998156
Ni 8.643332755515168 8.550772266580855 3.546535086869883 2.3687570853823785 -0.9266078387156235 -2.1493198583245308
Ni 7.320630854206192 3.1449801541099816 11.473897396803187 -1.0637949614233035 -0.2874084528914986 -0.6086935039257839
Ni 4.739384402005304 5.480313271263357 2.103846611242414 0.7715366366386712 1.0617257375991005 -0.04908313067989611
Ni 4.513762995878894 3.0789688129280854 1.7590821965955095 -1.0785137556907167 -1.1825133359028344 0.09970789481529924
Ni 8.497831560291036 0.7553417934638684 11.517557952319631 -0.5249691290229346 -0.620976177947879 1.180965017579108
Ni 1.2821087735129464 5.289565431423464 4.470807883848466 -0.6658306152584081 0.7919694505717264 0.8545223336032832
P 6.922430717735257 0.03557993676791936 2.1388100960810266 0.04143487010601896 -0.7832330991399931 0.2151676531482165
P 5.74237486587257 2.1699386010225807 3.825903685268816 0.1682625039562457 0.4996782156666298 0.47435516352080886
P 8.905524129477918 2.3098592840445633 0.4203924059259922 -0.7210859361872871 -1.1143953000786744 0.05501800810709234
P 1.1714069849447393 3.53924983015947 10.12398447303875 -1.576929302594839 0.10119116422904509 -2.2558689444313793
P 2.9518592060911018 0.80634600639982 12.428344820474818 -0.6792173209779592 -0.17191167067305876 -0.3693150578593188
P 4.897835722721798 7.805681188055753 0.8601599423398767 -0.8039366502359317 -0.16645450421322946 1.3061947108145957
P 0.3942316692388093 7.694339772673678 1.5663292657434489 -0.32760610815630675 1.351919209434904 -0.6892073423111356
P 5.762175487240991 4.382685848805166 0.37325283673933607 -1.9314618028283443 -0.5419903461712795 0.20871932641971147
