# total energy = -340896.92006051197 ev
CRYSTAL
PRIMVEC
9.02664689264419 0.00000000000000 0.00000000000000
0.00000000000000 9.02664689264419 0.00000000000000
0.00000000000000 0.00000000000000 13.21141015484077
PRIMCOORD
 96 1
Ni 6.297494167766002 2.0440750983241647 11.258115795226708 0.8429402851926386 0.03958547560210601 0.7519250330553309
Ni 4.594229138871719 0.5122910804208054 5.8854322633153355 0.26630920901903815 -1.0939375464449546 0.2774495419065738
Ni 2.6915654863492415 1.4721287157832141 4.609685465863052 -0.4731444310421593 0.9203029795435183 1.3840425723320098
Ni 3.2813575492393516 4.561841530832879 4.871231648740578 0.29305819497810814 -1.0492548588255994 0.236083063144645
Ni 4.861463011778585 4.619891895185659 2.3984386776398643 0.5890407626918629 0.16089012275157452 0.5432954381359482
Ni 7.226453450402864 6.1729354711863085 2.6570656430035213 0.14951273415256833 -0.8488864754737444 -0.16008973833746623
Ni 5.181818699988842 4.524769093203138 11.536308919783506 -0.3431155166458156 -0.48929275866724764 -0.5099834542473798
Ni 5.5015064163499146 7.73172902107791 12.459627450953402 0.45827394168823005 0.5997332094087026 0.38129177060522074
Ni 1.8115577082816732 6.51331226157888 0.4097583042356408 0.3896447705556063 -0.5560126285923005 -0.5739473586938503
Ni 2.682349280159817 1.6707961810359488 0.4481802255336673 0.20499919725564694 -0.983331516659913 -0.13103627261493564
Ni 0.5838651667255892 0.08720733556968495 4.671039582875312 0.17168207116075596 -0.46007525656302695 0.5201886769151557
Ni 8.421951554157575 2.3353379045084526 1.2631744840530372 0.42864609151946825 -0.20620478752797392 0.5892971016770432
Ni 7.007340630577115 0.839757058166234 4.821820687858805 -0.7398696445526934 -0.5087130721753884 -0.7548236947593646
Ni 0.8073766714446833 7.504681778881443 2.6023045886756444 -0.5796356673278792 -0.5512548021923409 0.16729654049855058
Ni 7.550130944565823 3.7589664480529033 3.884603828902564 0.738465050895683 0.042311102063385196 -0.3980365941637274
Ni 7.523005871500964 3.9550522923750058 12.671921541929503 0.5749927692392292 -0.5556686149893204 -0.6379544576734304
Ni 7.923464021733702 8.745692234846809 6.820152351819083 0.02790366838880356 0.08213414759759402 0.35011457367146803
Ni 6.908381503785089 0.6106544485365331 0.2598554919673601 -0.22234154518883642 -0.01889246602912875 -0.21934415312340932
Ni 1.7426663413495602 6.482666796335887 9.394236935196004 1.2179896744325733 -0.15622819849953093 -0.8943363802764275
Ni 0.0009414792414857667 4.808720315632838 1.4452094502610773 0.01600717406153372 -0.005926135676447859 0.07112571230223234
Ni 6.4529149691073435 1.9350693138545374 6.96797452204362 -0.23760824153991983 -0.2711025166426234 0.28373254670180814
Ni 3.34643064465518 4.029910272716727 0.3825258140761163 0.310471248248233 1.236810149573186 -0.026962901742089047
Ni 5.924774902567643 5.445956433108271 4.707027017582459 -0.15471921805417224 1.3232033295574501 -0.05929709509842045
Ni 5.099856748764577 2.890151711782481 9.3186947350412 0.6231433608025269 0.27017923349740564 -0.3418477056769854
P 0.19498910675891454 5.605628785003207 12.455783002161947 0.32770329585580343 -1.2452305124263972 -0.4104398529240867
P 3.9355998689291587 6.0008063469687425 12.606009871043549 0.577002086359774 0.517069928780516 1.6319241707734795
P 2.2663923776966763 8.386296300045698 1.3088836171598026 0.4689676739566504 1.3835484063044108 1.1235533124288584
P 6.3084164101648295 7.667666910082469 5.705096111999411 -0.4560309112903243 0.359480074046768 0.11455318735824786
P 4.801724664509622 0.9016247913706376 12.537244877163984 -0.039859555199099096 0.28215877445678506 -0.7896690845733239
P 4.182243960917242 6.244552885394823 8.267066032960242 -1.3426151584251587 0.05768784162977161 0.26088212446619585
P 4.5682685032196275 1.0392919841582475 3.633850807377335 1.0317711002185392 -0.010748496765755683 0.6508999620905047
P 0.21357677745946574 5.547668687116532 3.5654161887637184 -0.3510705098268341 0.1701268108584941 0.15622922694079547
Ni 1.4819767872353804 1.0628966650449712 2.5073803729185564 -0.4109900690006019 0.577554102208502 -0.053153958315160066
Ni 1.8397027924135294 6.474515734446514 4.706696642316511 0.3214238906049948 1.0110007004404071 0.47573584591841944
Ni 6.07307367973322 5.594074677341636 9.092422881788583 -0.9149147186484115 0.12529165682167454 0.636370143905446
Ni 8.715534208520788 2.214146147114513 10.116425531917793 0.1548089495545011 0.7627285514287381 0.017916732379420756
Ni 2.525691828232823 5.039621935932033 7.202543668860701 -1.3983811004418691 0.3246184862828926 -0.623359590578391
Ni 0.8402345677719347 8.950949152125283 9.08329333140662 -0.9143346777752253 -0.31425102700563945 0.9635342794283277
Ni 1.5133263309140006 1.1091040690446419 11.538911302001342 -0.47121661789182717 0.267714574006997 -1.0418889053788314
Ni 4.139376416163494 7.024103113333003 1.557281586584326 -0.1827383289749175 -0.35885555308889167 -0.6193826082085139
Ni 5.84897815097842 7.905347541986224 8.054362132228022 -1.0858928217636075 0.6040758026481146 -0.5540511339905555
Ni 5.178307334457317 3.063670939578079 4.688227220686558 0.06401326962716716 -1.0137463815063446 0.4433124352823914
Ni 0.7761047569269144 7.357773105293898 7.082134521727902 0.5065942260601727 -0.633912940614205 -0.32068752665960254
Ni 4.956224747896682 4.730513449398584 6.91873597011211 0.6437993464899816 -0.9596953652982116 0.20038123886766138
Ni 8.168763143376806 7.013171844287564 9.230772489059955 0.5413046329581644 1.0359529995103707 -0.5586834905562443
Ni 4.650383907436272 0.28967772703946626 10.267590269382236 -0.19838143482881318 -0.09363032116265164 0.5364444766523858
Ni 8.18773715455229 7.180390472748963 4.7410204660533255 0.0571291409128242 -0.18449696353723707 0.1347062652673551
Ni 7.127169364332855 6.039927833379091 7.018032693487374 1.1073713033523573 -0.10465932528330361 -1.0071998386370784
Ni 2.3858419922947696 5.346753586857758 2.452619318590679 -0.7157591246577351 -0.502015862660871 0.3972354384186707
Ni 2.3642592802488203 5.0897469045607036 11.549903049579072 -0.7766739578652366 0.33984121676991796 -0.45707117962938054
Ni 1.1925915235460975 3.4551204964934366 3.8700447505843245 -0.4856693029820475 -0.10097776266665835 -0.6779199423227744
Ni 3.6474963890585816 2.618431595510146 2.497101730423064 -0.09458574309738549 0.17855308724897637 0.3144459166252649
Ni 1.1478735162371765 3.15113914523481 8.32683416816302 -0.4950600001683281 1.0636288681590844 -0.8082725586071241
Ni 3.7630284390276736 2.7040312853184827 7.048405554002727 -0.6926017127046653 -0.35620705972245104 -0.2949363858374276
Ni 4.031327456234591 6.740846942692319 6.071752178669428 0.15792589791692802 1.5459048291888666 -0.7039333356674007
Ni 0.7290019095834722 7.428866973998998 11.31277123778924 0.10239392628789462 -0.11907112983325946 0.781359536266364
P 0.21620353162315087 5.448059641768542 8.13211134747912 0.41424380005120914 -0.03615459554368612 -0.9333572416243151
P 8.55808241169206 1.5014743439142806 7.9532158489622455 -0.5267287920265186 0.4403507815509062 0.08828139814591249
P 1.7925566171663563 3.2147408972531104 10.516612882752213 0.2992087879605363 -0.8603260847692539 -0.3028278727703623
P 4.007145069964788 6.197000511050172 3.6920474034052067 -0.05388415161296526 0.37802724092133605 0.028333556837370554
P 6.927003475742761 3.971074590108824 10.256188712048386 0.1470362475876177 -0.6578059451817188 0.418360393322744
P 6.277834131448111 7.663749345453468 10.193143904125959 0.5093746170187873 0.5950350326020849 0.5288926324470569
P 2.4220207919100614 8.385501955143965 5.854516901338685 -0.20585357483614225 0.2613888888992853 -0.08406067519634557
P 6.816806173920534 3.937730157529261 1.588408172091664 0.3636205785777028 0.46744172423042724 0.41651819790768263
Ni 5.312082237226437 2.7036070329277844 0.34866776530441 0.2772464247568322 0.7174115726594935 0.263943537000339
Ni 1.4451932022971783 0.9717004543380613 7.076308724005419 0.6629496941661873 0.7482411564458404 -1.4604490734172073
Ni 6.967018600167557 0.7968353535328225 9.270988005039507 -0.9460443501736803 -0.6311479762745582 -1.064909534643721
Ni 2.768896767862267 1.6247332033820476 9.20544642666459 0.33665767683561376 -0.5519014346374043 0.45493202179919073
Ni 6.236221290573237 2.0878994676186364 2.5851422254749075 0.3871901383675267 -0.6362359323204269 0.19047889215228483
Ni 4.181557935774836 6.965339643897986 10.661277531992361 -0.5572207899677888 -1.5134747336846193 -1.6843826456835118
Ni 7.993492746138751 7.026811107316184 0.2110935469768892 0.3378833217125987 0.703620432412672 0.0794486303456309
Ni 7.626207522199975 3.8513090428793593 8.091486021743444 0.985877165899902 -0.5715120097794802 0.6804619920183378
Ni 3.02168800619217 8.554896005438518 12.52437648975591 1.0140659696292922 -0.8291686853298429 -0.40087689182599995
Ni 0.17694574284898265 4.792210578982048 10.368261751036295 -0.3125291592185263 -0.7139583240035704 -0.4586966310479455
Ni 8.690015878552616 2.4748086212888607 5.806058251674331 0.0058906544528221135 -0.05780765503708754 0.5657403974030256
Ni 3.6804075426008356 2.5831915671423564 11.535198642250402 -0.14977498667501948 -0.0905676230769279 -0.497153392362247
Ni 1.0210039981251684 3.2631146964393256 12.740608003983555 -0.5338165521112356 0.632961118223897 -0.5805617786865744
Ni 3.1764769422707695 8.34928704894223 8.058273378204396 0.6027694251318652 -0.2944044245933575 0.003161428447117136
Ni 5.4922902101604905 7.920376908592877 3.5636325233934634 0.7992294745682494 0.3331632905291101 0.42579088145886024
Ni 3.0737356505488997 8.329997105135375 3.6491627080228985 -0.022342372250942166 -0.4398041650188168 -0.6639051161009211
Ni 3.284760595011549 4.4042272543651615 9.310582487732251 0.5155198106845768 0.044015229238685484 0.5587374837226313
Ni 7.279873145044404 5.961251581521085 11.205072511748828 -0.3643086057836629 0.5162836854337947 1.351617361923769
Ni 0.3721659317611286 8.950398526682037 0.2620390377824646 0.421305591993997 0.5460812284112015 0.021148866163473255
Ni 4.743123674713595 0.37048246216825137 1.441615942245397 -0.5777027119712245 -0.3144472021768456 0.5301928393157191
Ni 5.969917162267263 5.585219537016635 0.4153656571101466 -0.4809688121825846 0.36551856693136403 0.1231087902377428
Ni 7.8748465030890005 8.812525526351704 11.265726160984107 -0.071234984186587 -0.1060384650190174 0.3384232533764688
Ni 0.3621689206398871 4.96204693496052 5.776279344505955 -0.7517756519616601 -0.3935942421216576 0.819401321530434
Ni 7.949144831340865 8.982632681728495 2.455803016850239 -0.28107351181240625 0.017098864463815713 0.20928342645329764
P 8.645144418251315 1.718122889215334 3.6003204258775936 -0.6398611877778401 0.4321898430066686 -0.13167827707430874
P 1.734876345324611 3.307787570515194 1.6584946670350207 -0.3697506027348406 -0.5176111459959666 -0.21369261126458683
P 4.751401109655517 1.070090902393621 8.194958471840772 0.26319380331850806 -0.2621856737689678 -0.79959868498221
P 8.400711854682829 1.741222077891864 12.217211440237726 0.019632943739579092 -0.5906505303811441 1.3262768262764513
P 6.38867232517969 7.736594383601023 1.4073191984484152 -1.0262254878099617 0.2744300383539596 0.3537094901115779
P 1.827995231759579 3.147122287493093 6.006448903765029 0.5418039411920863 -0.18539942074684845 0.4229048181603168
P 6.825868927117577 3.904349618363255 6.070722238291158 0.10015912342010493 0.29789932512049344 -1.215575665674442
P 2.5187683902824913 8.38330848001759 10.357983108540804 -0.7218428689579698 0.9532308406197906 -0.4744402670354474
