# total energy = -340897.70534377074 ev
CRYSTAL
PRIMVEC
9.00712979981354 0.00000000000000 0.00000000000000

0.00000000000000 9.00712979981354 0.00000000000000

0.00000000000000 0.00000000000000 13.18284491666429

PRIMCOORD
 96 1
Ni 6.330805080900143 1.8818145301196278 11.442050232210818 0.7790733113353486 0.4880069499762885 -0.5031193801376947
Ni 4.6178111789391 0.4283565610442226 6.085359000686354 -0.4808970784043846 0.23376932740980386 -0.4141702665007964
Ni 2.63986355570009 1.7753322452084195 4.664301477836849 0.01128842842962572 -1.11933336081024 1.1524391422252733
Ni 3.492901768953839 4.274252238542531 4.809286539208044 -0.6621256556029951 0.2697416317393548 -0.026005165814510053
Ni 4.967413903228023 4.6040392779384876 2.7244981473038523 0.6551649080144458 -0.6772918218204723 -0.5288728349527149
Ni 7.166828826534431 6.060636231643528 2.6078702317274445 0.07227782362880456 -0.5167048321316133 -0.5678903538664929
Ni 4.87564926791459 4.49149519487593 11.489613280231637 0.8568998326965243 -0.05589912516046502 -0.47906388185038784
Ni 5.560046995599691 7.7563004164527225 12.500184386958578 -0.48717622654487713 0.4200452372243346 -0.288073083058691
Ni 1.7510580312145345 6.352593327152911 0.5697279620612987 0.985914704006057 0.6500160168236547 -0.674492147588148
Ni 2.7415810691074896 1.5775717099766062 0.45994006062476334 -0.24329500751205196 -1.3051135619352747 -0.48429710522486924
Ni 0.481628327740116 0.05144151798214296 4.745151273626055 0.6455674941339978 -0.15676787305308484 0.2902173830952034
Ni 8.561627864761904 2.0479600408176615 1.3554604001501855 0.5181911868691527 1.131601893764948 -0.032699290005234014
Ni 6.759751608926406 0.908188867162676 4.7936906944843285 0.07486255363684527 -0.3844729965466798 -0.1758259181258004
Ni 0.8701157307796884 7.423270810437917 2.717643721756785 0.16085335597636813 -0.731444910824108 -0.3776914548484721
Ni 7.426153091876895 3.9221725536419876 3.7695287300596623 1.0473262743443188 -0.6721791831842553 -0.07622086743695261
Ni 7.624688240245432 4.0189271386966485 12.648332752209049 0.013538143695750876 -0.6290291301593424 -0.29782219202565485
Ni 7.934200231144084 8.910897325259446 6.750829146446873 0.4956719227207141 0.2473954028336707 0.546536056560433
Ni 6.745457294414979 0.6351251264857887 0.4804925287105691 0.6475842674537106 -0.13230819734882374 -0.9775784162262195
Ni 1.8567566958595212 6.53607756213229 9.08104200145406 0.42281482954967176 -0.6714633880641533 0.27958227197886043
Ni 0.1256791800077454 4.752107479736437 1.403472003219946 -0.5489264111694804 -0.7958610723166487 0.5993593710090517
Ni 6.601937693012915 1.942621661352547 7.0064046444927675 -1.379194243100773 0.9833181469234742 0.044533306525684595
Ni 3.3627937833725157 3.9556070183341214 0.2800235496390673 0.2690219799645109 1.2985626481906345 -0.0020206299744545846
Ni 5.891896667650415 5.632950701746818 4.752151614670971 -0.1575435748768448 0.633656858739341 0.27212838680397655
Ni 5.423832176219536 3.075601459366943 9.144701690598618 -0.31091450643323876 -1.3137108166859826 0.2858287671092045
P 0.26641107483054843 5.441531185680754 12.420084885056456 -0.12189368688371911 -0.26003571730550057 0.1438138839955781
P 3.843252084990997 6.042630979779418 12.630219414790977 0.20987246618754823 -0.22016253525964663 0.7419324406189932
P 2.362281838867606 8.415991587928092 1.3833158488319994 -0.004419469223934325 0.18977749520988607 0.0926029083394018
P 6.367644240542069 7.860521911860234 5.673184648496088 -0.33662965181115573 -0.7639482827684521 0.811159650346932
P 4.618351606708908 1.0147612233688525 12.638366363420836 0.7538716152587404 -0.5849344538329733 -0.675911653643494
P 4.006839570911938 6.133774123157571 8.13077002385642 0.4091638144251405 0.6797590524140422 0.19617234299263633
P 4.573279930706904 1.081549088587649 3.838778243769935 0.6297266704469994 0.032214379949015486 -0.2658291840588261
P 0.23428084248955172 5.427525099313225 3.573091342150929 -0.20158297248524637 0.8577012455518972 0.16298865715181607
Ni 1.4696032486984252 1.010023473253534 2.67229462616628 -0.456876032899439 0.4800781820475151 -0.7679386348747678
Ni 1.8718526448961634 6.40378985121274 4.763053844213902 0.2334991044675527 0.29189399946667793 -0.413215873007327
Ni 5.898850171621947 5.490187699222486 9.30918448519154 -0.20552447363149767 1.6402792276063947 -0.33745111927118654
Ni 8.600538664188095 2.357210824960906 10.232906147171454 0.32066310117957036 0.48222556740782113 0.26674963899056636
Ni 2.4688451879442854 5.314575695423312 6.78699006923769 -0.10677225786124837 -0.664572831591907 1.507767398887197
Ni 0.6502183733835819 9.01685719665984 8.863419844968847 0.23996851424198026 -0.005889626011557599 0.7934015550325626
Ni 1.5575848896231999 0.9631683856111634 11.347673529343313 -0.30974491160516976 0.639503290217789 -0.24156414086387432
Ni 4.179317093646224 6.71978697534909 1.6497800657265789 -0.3377889622265795 1.2363614920715418 -0.3536974059267199
Ni 5.858813481008657 7.852865851787951 7.831123541895618 -1.253531318982609 -0.032503114834027895 0.4778739753073447
Ni 5.411798651211806 2.979018009772721 4.793361033544745 -0.47516840345072353 -0.6341142579917337 0.3110014097200902
Ni 0.6802337317187293 7.358365435283954 6.856516101823513 0.16572302536384362 -0.06331958599425223 -0.18651425107758202
Ni 5.232115424880077 4.537665740676543 7.054627915105701 -0.7652767717718885 0.07538577313016694 0.1790966184572722
Ni 8.049104182134805 7.376451751313534 8.887847180164178 -0.2260123091722043 -0.6272861793263067 0.3611302080556813
Ni 4.642805963292728 0.27574065956333726 10.366830453520574 -0.5003860403669318 -0.5009712234464405 -0.10057512791160099
Ni 8.052094549127743 7.131223643633567 4.492067147598977 0.5497951869276789 -0.06648487109611131 1.2124042099249959
Ni 7.22958149773866 6.012538160130599 6.871267978513378 0.20767083055053914 0.7902223859736326 0.2041252792911259
Ni 2.4733307384336936 5.157221143114159 2.5296694327232485 -1.160797798602614 -0.728861466367648 0.39309184856394236
Ni 2.2320027178258433 5.080273235822967 11.37389418402146 0.011114621855922794 0.3526597086908249 0.3133200305509378
Ni 0.9042167230545858 3.337285592637569 3.699172240134232 0.2968323173085598 -0.008772603986307472 -0.32613363737583834
Ni 3.551222932445641 2.7004905443430727 2.6904863256109732 0.4840042565747987 -0.01962908708483716 -0.6765582860885574
Ni 0.9989086754544788 3.583243277806776 8.271365010310872 0.613638249525569 -0.5691378531203488 -0.7304522078935356
Ni 3.5708404604896784 2.8075132570240897 6.984929846346488 0.7347410650768765 -0.24497368076605552 0.2936968570033716
Ni 4.099243712419643 6.998908911325527 5.956774120702939 0.7450804993296717 -0.14974361921645177 -0.022242870558600403
Ni 0.7733007979573989 7.2375438002138335 11.413140048664928 0.14774972871487457 0.26296034715146327 -0.5409343941029393
P 0.16906742350679652 5.675563431396194 8.096178143023947 -0.653111882140159 -0.7914048363175079 -0.9219590270897026
P 8.45056995806632 1.6925387108738035 8.10366576977464 0.7949951247719277 0.5180621174904562 -0.7542428825552301
P 1.7855553371872912 3.254284894324526 10.326148852435312 0.03300010907510446 -0.9458309486112937 0.19990841299630088
P 3.924874692491028 6.2088935831609104 3.807970258039069 0.3113986451585089 0.2094045254121942 0.2705152766805858
P 6.922609517358106 3.994571860537292 10.544021407120537 -0.4563291592570335 -0.2687391586167694 -0.21104643189099134
P 6.313538413654771 7.745662996516998 10.15109348923904 -0.9579737546214147 -0.0028490394130209 0.5116343595872413
P 2.356616354414117 8.307626812952053 5.8651265780729664 -0.1397993635195463 1.4325073527016168 -0.07431876531823331
P 6.860784580492049 3.9802235032488844 1.61083774134715 0.3527928918345795 -0.34821658531780675 0.3140052295434205
Ni 5.507490394985845 2.865501156724509 0.3550592433380864 -0.6508994478698725 0.036679614809220704 0.07381997130494383
Ni 1.5208898440532232 1.1313855360934615 6.985734183010553 0.17625349258152226 0.1429163118819732 -0.8273444876369105
Ni 6.836321216778732 0.7394763245580536 9.207122899437364 -0.7869683978127091 0.16368156945378262 -0.1928993286683194
Ni 2.7210538209842747 1.6195089049137223 9.10200249250607 -0.7588778102240802 0.010995322669239128 0.5643463452689764
Ni 6.263098488472672 1.9155732514736468 2.556298110367598 0.2503789109420269 0.4421708654787805 0.3036879067778125
Ni 4.005641622688863 6.773001096416204 10.574170070972237 0.44749562012580346 0.29599336634703216 -1.2929417024594314
Ni 8.084150923006865 6.956755545280488 0.44617986889249694 0.2264979905593712 -0.06539883712078413 0.01322601177197077
Ni 7.598270329431309 3.9691087054498295 8.314604636173225 0.13423806738168492 -0.45900284943445463 -0.4646628759337094
Ni 3.038095772142254 8.122773494289158 12.403856739842066 -0.06898835424425538 0.8577287563557229 0.39121905702126175
Ni -0.03537189824689621 5.047487284454603 10.162154244261115 0.07830500365949095 -0.7285840443365452 0.5461264798268401
Ni 8.746319055093856 2.281316751820841 5.736105753021906 -0.26926443499262015 0.9614344594765054 -0.0195295853924954
Ni 3.721385622899249 2.4514163923679715 11.217493486726017 -0.3845920386230473 0.23312243785442432 0.40010016156097544
Ni 1.0253896361750805 3.138903565470476 12.520973742550149 -0.037178665932826295 0.612826295147235 -0.05250321210503861
Ni 3.2337396319423184 8.345087464529257 8.111733455664925 0.31715714490884084 -0.037680031049277043 -0.48057029119258526
Ni 5.648118707819434 8.026595365522292 3.6390316364840767 -0.9371347063888764 -0.3633033044476001 -0.5082582440261569
Ni 3.060091182373448 8.331603791672542 3.5651290396757553 0.52426413253611 0.05885435113404702 0.55724727233035
Ni 3.3999842210648166 4.370610509899333 9.228755322349835 -0.09922864118603555 -0.14943508683709747 -0.0963474629834986
Ni 7.238921891026845 6.268475744782264 11.445688211814577 -0.10486938441158067 -0.6568842046983977 -0.36955339912237
Ni 0.5178153712064729 8.756488104295746 0.1286272134920491 0.37094693703578696 0.8721351615890399 0.6661160077093109
Ni 4.591357239606988 0.28571605548104695 1.5845117032538933 -0.668899483991719 -0.4594659051138023 0.31703167507457014
Ni 5.843978738727421 5.498924614834385 0.44152768650739804 -0.03713778539256185 0.3161590426616297 -0.42024064106459236
Ni 8.063191332667804 8.801541766038758 11.096712383738632 -0.07129154845613529 0.2756415421635575 0.6116770120341402
Ni 0.226717555851086 4.980447219609897 5.924159304795015 -0.660797680820191 -1.2794233562580222 -0.5711412567036227
Ni 7.95480854343277 8.691294500997886 2.5278635032591397 -0.3612621056478552 0.541269665955171 -0.15648299482281436
P 8.371802610616776 1.5884613295382417 3.5303525126885975 0.4490614219510266 0.46562755383982385 0.25264893792312615
P 1.7704143525031648 3.2056103665238016 1.5183345214149802 -0.7374011284075429 -0.4015824025334568 0.5411256841781391
P 4.580773862448244 1.2000108557296059 8.176290254907364 1.805775995892045 -0.15593432140819596 0.001412306966494342
P 8.551638958149951 1.5624577466809706 12.37025384182834 -1.1311357527618067 -0.9572985829312609 0.08507831782758252
P 6.302369573078735 7.689062194759086 1.4533958198818773 -0.8027482863547852 0.10673189154161618 -0.2104216538227989
P 1.78702349929527 3.274722071152773 5.990429260067746 -0.8941980549263503 0.4008928326655999 -0.24034260975194732
P 6.980192096231169 4.023863045660896 5.945397215435528 0.7836946121574438 -0.5376793775007515 0.28480109717563856
P 2.293017013037189 8.340061486270042 10.166715454638295 0.9371431910293087 0.5936610350726936 0.5709877618448941
