# total energy = -381167.8412118892 ev
CRYSTAL
PRIMVEC
9.30137231177202 0.00000000000000 0.00000000000000
0.00000000000000 9.30137231177202 0.00000000000000
0.00000000000000 0.00000000000000 13.61349857539651
PRIMCOORD
 96 1
Ni 4.885155055429178 2.7163448137164146 1.4806993819712457 -0.5204097917870263 0.9251626216286647 0.8821791760886032
Ni 0.670969361036908 5.701183035435028 3.21211817993501 -0.020158734336062058 1.0309336919189083 -0.1841038418638765
Ni 7.3031304538509705 0.8386256636039013 5.867349258186253 -0.3988716884705131 -0.1500449525069545 1.6807152241342538
Ni 3.6375341070622795 6.89196329869483 4.735442029844691 0.284821923111245 1.0981040191178186 0.44775221622129985
Ni 9.101764687399406 7.910798396696936 8.781428221537377 -0.6001404721494503 0.8064501606864046 -1.262121117534149
Ni 3.110053293378199 1.4959210774675247 2.518891565520133 1.3887836865614211 0.05765801683310069 -0.47109783292577573
Ni 3.565355459307237 8.621516241408639 2.9653741703922982 0.914512083893354 -0.706233444555487 1.0636864608698973
Ni 2.075768616262545 8.955621528439712 12.712570371499199 0.36893839124619043 -2.4346997108217745 -1.6024773262672725
Ni 3.25046680710373 5.20495483211911 3.2971345815085464 0.3218118700720329 0.11751766930321052 0.012462651243384987
Ni 5.671604672050873 4.298089651858653 13.18184133809815 -0.29902546830513665 -0.6216644622641552 -0.8604890927096794
Ni 8.288889872546772 0.4339843511365404 10.083967261391402 -0.9447246029209924 -0.11413204066042924 0.5313544637239882
Ni 5.690728293157107 0.44314434241349476 2.235880575892152 0.9773878974819684 1.6236760718320746 -1.2922644738867486
Ni 7.648806647815972 7.434651855816989 0.7573093478650244 -0.04607776819466903 -0.32543301176438794 -0.3685211012031137
Ni 5.263051202464212 5.117001057225852 1.7260007486960698 -0.37615470648897154 1.2560679693615333 0.1696419008022756
Ni 0.8372462701165208 6.018183099112812 9.946457636045913 -0.10980178871619155 -1.107036802831074 -1.0697660914050737
Ni 7.490571705082881 6.819849760544721 4.507537949558144 3.0709677819317176 1.0777521949343438 -0.22381195908677584
Ni 5.869900624562439 4.332690756194833 10.598721007585377 -2.0664897131011766 0.7006063281766967 1.0345306652415474
Ni 2.0802146721423016 7.965806711493756 6.746087089115364 -0.16277448425848096 0.22892382639204445 -1.0089895835476494
Ni 1.5514316663595473 5.972392444100173 5.305058059292991 0.5637246525245776 0.34983740875068137 0.1759418748783744
Ni 4.353107268027606 5.693193156772453 6.861543161132604 0.31796215730863947 0.7058498359638231 3.3265884008886575
Ni 5.667474862823652 5.888159218060268 3.9364792772919563 -1.845965166516421 -0.20576590021834237 -1.1157569563128913
Ni 3.319296960890755 7.567428943021015 10.870555468457885 -0.32516433148403356 -0.10490923651058061 -0.07333583257967369
Ni 2.631469792999306 3.2964062840705024 12.370013857747736 1.0142783427504147 1.2793603642305709 0.05517484539993078
Ni 8.7614646865275 0.04047120028955746 12.691497182793809 -0.7305697073080063 -0.7835925393619408 -0.14677013841042463
P 8.523675107937596 1.6321489737330341 8.114257540879743 0.6691645647276475 -0.08981737517446468 -0.8759352520614205
Ni 6.000631409897121 7.248726728242821 8.548052144024762 -1.4409182024731313 -1.9457836187676554 1.3066032591069239
P 2.624651887225537 2.6334602866358496 10.238603503246088 -0.3930964765496327 -0.8688791165455875 -0.29353076373915254
Ni 3.6306510916835766 4.289151033238474 5.647219264728787 -2.492473941517766 -2.096773708796699 -3.0036233910487886
P 7.605545966023612 1.967258808954513 3.241823041980178 -0.25702932637900894 -2.4755059462048594 -0.095016659987217
P 6.903441191907422 1.152012144207867 11.578947039999028 -0.34887787305088946 -0.25551674638922445 0.27141053480134547
P 7.783778858843474 4.802447254419147 -0.10389167604380779 0.2753422657555839 1.3156620268750825 2.348513247531678
Ni 1.0597239299004528 0.8082306397464364 9.214936342420689 0.7978850447252129 0.7423384178081603 -0.42431455402364987
Ni 1.5727876167777917 3.801098736027798 4.172536940390626 -0.30468343792186237 -0.27729347594468373 0.08553134620460108
Ni 3.8150135887393373 9.285680718592765 5.453608413360805 -0.12142831721152635 -0.7608614163130122 -0.1527584947833756
Ni 8.15402927798487 3.88336937254756 7.30418615958811 -0.4881969544999076 -3.3551081055949057 0.7094552939268943
Ni 9.013215624689611 3.5258525318567644 2.8132837140905194 0.36676349508205863 -0.17370990022406213 -1.3126767189945134
Ni 6.741904262066981 6.5666757124462025 12.302300798753928 -0.1583341890989402 -0.7141830384198667 -0.14085634402915098
Ni 6.868440128569508 2.4578224766412013 9.3410248129236 -0.27045974085230196 -0.4637689033645303 0.23249251757990927
Ni 7.7793700084522515 3.7653256588028117 11.731581626570609 0.4304342937681426 -1.4787841242809694 -0.7043745369698773
Ni 1.1565605151810905 1.2326550406042869 3.5432944648812814 -1.6870293392777398 0.11045022093346785 0.5275790558419559
Ni 5.44754391872984 1.6631504470535958 13.224587654011533 0.8811085687322439 0.9435953744125556 0.35021124715033236
Ni 4.798066308144324 2.1298281911017596 11.078909924794491 -0.2654095800229042 0.6776368638647169 -1.4416072581203558
Ni 0.838055489492125 8.010750941642257 11.162972935724355 -0.92096632415913 0.2982410247306283 -1.4099695766104168
Ni 0.7322867965518008 5.61397337031244 0.9098351083826455 -0.4791294449810006 -0.17630748574790928 -0.5763325710965752
Ni 2.848201065079235 0.923646715863504 7.51395721490063 0.3031178932069554 0.33778022047583117 -0.7536042205299666
Ni 2.8977494744337595 6.822686679045402 1.5508773045803979 -0.0938475793797803 -0.5414378161019192 -0.8156847919107951
Ni 2.092659908056766 5.711554065363749 12.219217222309709 1.2620910356271617 0.46697224079317645 0.21731735250136763
Ni 8.627217982526401 5.933763845630239 7.428682235181785 0.5739321891851986 2.6822645493537745 0.8887604288505467
Ni 4.195904777601321 0.17700232128661525 12.20789094146289 -0.41938832036662615 -0.7943937437425028 -3.0120149575465933
Ni 5.343098811044096 1.410655399120814 4.440682477075036 0.18751826686206413 1.321209181945557 -0.6683333270756039
Ni 5.964114222901464 8.523637902449062 4.122140245897537 -0.31386998951713685 -1.071478189000174 1.2853494919344701
Ni 6.290769110853699 8.840656568871113 13.187437043573594 0.6261242978077217 -0.2526867331395971 -0.6470476782239502
Ni 8.509816063458857 9.299130502697635 4.060566092511762 -1.1339991903525308 0.5857271249375977 0.05329922564377273
Ni 0.8771045099824885 1.5805263583927653 11.71109349417241 0.3724888276016101 -0.044384182542330015 -0.9520653595567796
Ni 8.574990777997462 2.707238770397834 5.128150612002137 0.2764869208829884 0.04607108332644969 -0.1354806815395344
Ni 9.109903388016116 7.999793925269133 2.360676155668522 0.5573316045140402 -1.727224937660019 0.009851181762466906
P 3.562388321596688 5.036004708688363 0.20018227078021597 -0.19865242910201272 -0.30631763109117566 -0.07778718348280797
Ni 5.441256191167675 3.030331232822983 6.2004313942826546 0.7947030474528055 -0.5742772312294433 0.6605999629870881
P 4.12601426739109 3.2178934018926273 3.641814598518062 0.45685006475750994 0.11688209260174064 -0.31441583471827783
Ni 5.8133575833636115 8.697750287413836 10.504488806502085 0.16864071323127086 -0.37569859278815937 1.0615059082788105
P 5.8357459860886625 7.561429557994984 2.1059264551306085 -0.07288151865107448 -0.8133039503834444 -0.030880234518624233
P 4.839624838836274 2.113811228288076 8.148005709391292 0.6747405161535283 0.041682210230134666 -0.048215126252646
P 1.0630073142635366 1.9162593855471808 1.4920396148762645 -0.7122207724871734 0.44184536381856165 0.10313414688802883
Ni 3.220525690206374 4.829588658304354 10.126863329396132 -0.20362494261593964 0.15656089924860134 -0.2895820635040497
Ni 6.446901943484645 3.665224291903357 3.42078609251251 -0.9215245106554452 0.4266568290035813 0.5961925432452958
Ni 1.8373930512282366 5.496041273033293 7.504685607158074 0.6230387169038625 1.086214209658768 0.9170970710117108
Ni 5.903990153431284 4.518615883769002 8.257621449845983 -0.17553409791699448 -0.21391398324677352 -0.2546950218188775
Ni 0.7899357708972876 3.7764780039907366 10.982934646573403 -0.38288122657952767 1.1636838619011571 0.2377010583640422
Ni 1.9826432784631267 7.843391352846319 8.997514908528462 1.4908058313321937 0.09353416190441956 0.10124824271922563
Ni 5.751661582002891 0.20961572239789178 8.318596594866367 0.33698137872361966 0.6523654908924378 -1.1759040581164328
Ni 1.3485501373862239 3.407632092041482 6.515174945080881 -0.8391733619510386 -0.6658946357271243 -2.064479367539367
Ni 4.218190865232904 8.89755306221101 0.6396572218870916 -1.035635725380268 -0.8055883269067416 1.8827743649249704
Ni 8.467969190230772 0.747390364621986 1.2751818441353218 0.5161132212942015 -0.4868473824505487 1.1982469445880073
Ni 8.781499842102804 5.0723265668692195 5.300129262199512 0.05288039293879926 -1.1042139886702982 -0.9811810459758135
Ni 6.973638647398055 7.66186577429124 6.690422097445928 0.9110413517359341 1.1467714024165347 -1.7553882874681124
Ni 1.0546639834598932 3.702206547505683 8.67354067602507 -1.7178905476329704 -0.64277270499768 1.87983430846004
Ni 3.155918359367904 3.366408410746334 7.967653963999446 1.470495401909616 0.5966558560349595 0.17192375485791683
Ni 6.4610493304995185 5.2952618541621135 6.018173797740679 0.7325805670904479 -0.3760212662349008 0.38239168853761885
Ni 7.738490477926039 5.536744077488971 2.251291089242739 -0.3839220091392162 -0.08196779722305884 -0.26800330889200935
Ni 7.20754955380834 2.563718598379753 0.9560973429624464 -0.2285265909536258 1.8140642040427661 0.21711629223415513
Ni 2.8258498678427184 2.0302663037860413 4.957096518194819 0.6147085997716123 -0.09894993360335216 1.3481137196458848
Ni 1.4335181718246666 8.18026844877314 4.10932946605823 0.4403857485538996 -0.3445851592128065 0.48284263216652973
Ni 7.741243684077521 6.866905402167499 10.219884491827656 -0.21408881826174095 -0.7954165285800624 0.03164025261310035
Ni 0.7515601697493811 0.8809022602245482 6.07536421443999 -0.2944165087782155 -0.13181325999027624 0.5230248608123702
Ni 4.437070754275644 6.783034929640795 12.748823399526268 0.07800007082456245 0.06603724203573143 0.6165415392152931
Ni 1.7206608309542952 8.997226565992328 1.4224467485743022 -0.09700849360626519 0.29263242029459924 1.4444758379174027
Ni 0.14935771316899127 3.237965762956465 13.508047899913556 0.6468029092029957 0.012893568133216505 0.3113891320768121
Ni 2.527499055292364 3.6655033330673583 1.7063432288293807 -0.7374908599078719 0.4853471437559383 -1.0966230636969179
P 7.735058271608821 4.653234642655436 9.678121421232769 1.7590598227824286 0.32205715331361956 -1.2967855016855536
Ni 2.442289185178454 1.4610316305952096 -0.04039399890085039 1.73476135524638 2.540972146228469 2.003362959844021
P 4.501054893181177 7.6381193712347155 6.611586457655022 1.1120879921017364 2.6886519409373566 0.7091197649643465
Ni 9.180184555855949 6.082027717436345 12.12507989522218 -1.7539415277192567 -0.4353487003506244 0.9683502127597322
P -0.09659102905631643 8.091338029805877 5.819512301304271 -0.3437564926639241 -0.7131502262799783 0.33984430209371147
P 4.943093302448013 6.265097323765565 10.346204566496688 0.605466512348054 0.7689413651076693 0.16065203859883945
P 0.8240876189594255 7.627078642512393 0.05244950732292651 -1.6088014687130874 -1.6181767392804003 0.12188597357423525
Ni 3.585790573884277 0.26447614537779085 9.6345044968877 -0.06568500090263525 1.001370890660127 0.6112620359839085
