# total energy = -381168.414646089 ev
CRYSTAL
PRIMVEC
9.24335531499600 0.00000000000000 0.00000000000000
0.00000000000000 9.24335531499600 0.00000000000000
0.00000000000000 0.00000000000000 13.52858483616633
PRIMCOORD
 96 1
Ni 0.8577131187177294 5.591971118937566 10.62253688840953 -0.5632757379126171 -0.37398443831053013 -1.9411461199956441
Ni 6.882214106394868 8.190204335953226 9.539072379817684 -0.6918620063251633 -0.1800101314104771 -0.8910955047416266
Ni 4.591664455951007 7.140852429951978 13.112891830509973 -0.3145929837260905 0.2086409077732923 -0.6636544335426957
Ni 0.5611853576103905 3.6721447179452977 2.6735998384714788 -0.9241681189258792 0.00873815120394624 1.1332031768137967
Ni 2.1812469744829293 7.098332995751532 13.234567661823236 0.15888980449209408 -0.8930114908174169 -0.29455483412829275
Ni 3.121952482746775 6.018505747454875 11.302415246590469 1.3489626979097413 0.44928510792605847 0.3711055741008383
Ni 4.815187272871705 0.19788821977545848 8.969654890011876 -1.6417169884941853 1.6297310197769028 -1.3440480342169432
Ni 7.787683944403907 6.038027713766037 3.1494412969573635 -0.5987374211543366 -0.18632398944364686 0.5385052158361565
Ni 4.658077963501053 1.95493266427342 12.620153518607042 -0.41982155124930276 -0.22472650048124523 -0.9834557009426029
Ni 8.99359980181541 6.357385638032438 5.618286027030012 1.0414569600477355 -0.9212411750870715 0.3468153340949059
Ni 6.041410781791551 5.030862481175841 12.828642942531303 0.5153231212927383 1.0574451079458758 -0.7535882796903666
Ni 0.9694800731912347 1.3946651718404433 10.368077485765903 0.20130195090971784 -1.0486876734682196 -0.09209897211978978
Ni 2.412608156664927 3.089646956109696 6.710692557501318 -0.950062470194138 2.7974108902113306 -0.8517524841676299
Ni 7.505974206115425 1.6005054501469116 1.5537581052500986 -0.3814120982331689 -1.0677824853161415 0.16192833420810177
Ni 6.3704742290819665 6.461484304981446 0.9689633696321466 1.3030127135421883 1.2641340341991196 1.4627311845831648
Ni 0.9978571738424026 5.034689230253882 7.294612871711581 0.9144763455594122 -1.1109289387966286 -0.5698533911301347
Ni 1.0025435549597128 1.4088259921002444 6.3257095838886315 0.31165986923969546 -1.8224727398214353 -0.7026107602012351
Ni 6.213642220369144 3.351880944863322 9.415178143241791 0.9096344440860785 -0.30533624101451284 -1.3032484837020781
Ni 3.0768079356522136 0.6451482994589078 11.232513296764933 -0.21645551872170465 0.9648152030232802 0.14991125514256765
Ni 7.897800035627805 0.6379754557763977 6.041365489350772 0.6037780689020376 -0.4518641815071443 -0.04476213470703904
Ni 4.913971010545656 4.504555075971656 10.803142806853558 -0.5133338587768513 -0.13521354392107682 1.7758956633928449
Ni 6.813646897069017 7.234238048153524 7.021321981394787 -0.3355181639145318 0.6087582957254483 0.312108783851656
Ni 3.4789955664121366 5.2763105367755525 7.042670434705515 0.2142582539600697 0.6112481520268376 0.45520995805092573
Ni 3.968967342085461 8.737031989836758 4.321152118225659 0.5982928774177503 0.5548355775650637 1.3461015743118623
P 6.726223243010794 8.578388283492785 2.081900316473585 0.31002516184974993 -0.47309660852335933 -2.467350664087576
Ni 0.031772185038520945 3.2609540591611927 0.42192126990656137 0.4558311365746924 1.7314474603817984 -1.642443839357881
P 4.487251514923127 3.0864117817683576 7.668204334300652 0.4781755657081636 0.8966094925813203 0.23894572940442074
Ni 8.331036096709315 8.596329636054321 0.2170524682380208 -0.08549175121591729 -0.4393171980800692 0.4555786542442541
P 8.43588347543446 1.5105028999708785 12.977240970377657 -0.030970994460217633 -0.35484926014297596 -0.7136593047059129
P 8.085079656570251 2.2932302234695414 3.805603978545239 0.09720466877747129 0.40385500061771734 -0.3877238993838097
P 8.8395592863914 6.885356847183596 11.64915291347538 -0.18308979877706533 1.0577672671719849 0.04230467430548199
Ni 6.856092384427376 7.569882764389749 12.018131941789227 -0.010774979128316927 -0.429707442904447 0.5521983970525328
Ni 6.932581149211876 4.850635540297511 7.450191481451017 0.39791909474925663 -0.4112425513310401 -0.36297548879453617
Ni 3.5209141825206207 1.2522897707557727 6.762263085173303 1.9951706538412155 -2.9679848159095723 -0.6223056953925798
Ni 0.14257136021620306 8.186710347664581 7.341489623582048 0.5689252228889105 2.2355729131865045 -0.3866550917996631
Ni 5.518976342441712 7.347654017205587 3.335337187617244 0.9601429943585916 -1.7772742889079263 0.5108383460485073
Ni 0.8466146220558866 1.3930845580908182 1.1361155844938386 0.7542601089464107 -0.8410731500769127 3.7627500840588812
Ni 4.779350784524937 6.630924250270226 5.5180936020142894 -0.8919077162302769 0.3387274148804489 0.21706461306061328
Ni 2.90390173214057 2.125777599561868 8.800776940722962 0.7224915582855621 -0.6253714788020972 1.6822208621455028
Ni 9.169731936313132 3.266028661199463 11.407248760282721 0.2876465370442336 -1.4440999426352226 -0.7770927905702101
Ni 9.001854118063454 5.916588512347456 1.071991656041934 0.8402887065024044 0.06425521043464417 0.036304490857989084
Ni 3.981880309385032 4.411280378033241 13.281431472996337 -0.6366370244135874 -0.3559602338189676 -0.02301317306572166
Ni 4.656654486790864 3.8186056820553156 5.613091261373349 0.13591082709841756 -0.2965962900383537 -0.5807296717230063
Ni 2.4543973657997573 2.510975943352135 13.267144943104986 -0.43439662085000025 0.07953913317690818 0.08734474526425604
Ni 2.0923721136487345 9.046610444237055 3.073748385060833 0.07451494048943941 -0.07052124594901403 -0.8812198974991274
Ni 5.727589627326469 2.5457771759096746 3.574441528501353 0.390917723730759 -0.045051383812683705 -1.1732799902300244
Ni 1.8010307991783239 7.911822205558692 10.837357086352027 0.4164125255677538 -0.0750211907018966 1.282667831337249
Ni 1.1831402300484808 3.469585830756473 9.220853236919435 -1.6881367134093055 0.4887795664762549 -0.19571005864423716
Ni 6.74235289794118 2.9247362548987885 12.778194558187998 1.073807351353983 -1.084068624070675 0.143877647353978
Ni 2.0740240534557155 6.809311763451623 8.411546645367862 -1.2467011834346529 0.2738332853102252 0.33549990908208677
Ni 2.4880062055286323 8.105193197618116 6.395205750418209 -0.29540484083341384 -0.20965006576409698 -0.9778424685208836
Ni 0.6474425002346799 6.997580423406994 3.1677181833148733 0.7861510441177363 -0.5992225883208712 0.22863432017608365
Ni 2.3705324035170063 3.8288750497502493 4.233661912009556 0.4295639753480473 1.143448508690889 1.698848443399855
Ni 7.042761943922599 5.863254352491679 10.21298600084872 1.433039828166319 -0.9906961845551002 0.7913444153932178
Ni 1.5967711346214812 4.706069464015992 12.566919186988082 -0.16355918494330543 -0.17454139498642196 1.2150496179676429
Ni 9.109345096393236 8.311809917766505 9.824255771013238 0.23878195013304682 0.14364110586313972 -0.3279735187980545
P 2.1440794429785823 5.588541834135747 5.378383984586882 -1.0251661933075118 0.5651153622245171 0.43967818096391376
Ni 6.432866877093493 0.3306338933492539 3.8804039823235605 -0.35301374959613396 1.182872004793834 -0.6276589892846932
P 5.677620048785683 1.5082567646424636 10.384514944426481 0.4001850079652979 2.5415606717420873 0.37959664229098494
Ni 8.354495732361649 2.6729749876558375 7.005439124049868 0.4538465020444958 1.2488647667448751 2.1984844929746394
P 8.347313645323878 4.139192972571425 9.073418947500437 -0.1268147783344203 0.8141927807463009 0.15092504111906266
P 5.666657429446177 9.154794674211411 6.874848076587403 -0.49857161286601237 -1.5606624471140154 0.5107514427616558
P 1.2437026937183349 8.260010154884046 1.0862060877622486 -1.0903061203399544 0.5018407705355874 2.1752221800125895
Ni 7.74878790546576 1.0426227433712645 10.815034383396792 0.11050807075459679 -0.21514168500628758 0.5998869613777476
Ni 4.224444438143321 5.718438705618113 1.8713819760695416 -0.8956885234289477 0.191462853332109 -0.8988777197902067
Ni 3.654600829659983 1.7713688721458816 4.3774580167978385 -0.3357840159814088 -0.23742954987021045 0.5429329125902068
Ni 2.9795401082410606 6.732915432219733 3.739842127541092 0.32674633125917274 -0.4897578712291243 -0.2575458610041113
Ni 5.863762737031032 1.6030011560673725 5.711998860007798 -1.7588482209922547 0.7689313378053403 0.8836454762214845
Ni 8.336951844076333 4.926468026858482 12.542053637000556 -0.6329459487152453 2.1369988748653324 0.10575924321570172
Ni 0.21722162163929648 3.9380668054480497 5.267733627428901 0.15209669282966065 -0.5061244855126057 -0.8007929624006273
Ni 5.221931877775284 5.6224557045882335 8.84355426453519 -0.20233527727023862 -0.946475524173828 -2.322985535574219
Ni 4.218805991434131 8.299100304282675 1.752966276156823 0.8727635392016582 -1.4575141591585996 1.3117953448308246
Ni 8.766786350421809 6.321003791725273 8.229437757358399 -1.5320262714345614 -0.7458986243555927 2.100443187228486
Ni 4.306627109768576 7.564706485443607 7.964209845835747 -0.24616384441941472 -0.7156079437918514 -1.2253998508537156
Ni 5.694775716150038 4.797208946889124 3.366845012695301 0.21499050414040394 1.173150920851328 1.1964625989940747
Ni 7.642101099043682 3.882652890658554 1.8028868649147258 -2.3978167217524966 1.5367239340205467 0.6881318498587697
Ni 5.165686061012302 8.917878235517572 11.079721558636681 -0.07023379661558227 -0.9582401209089241 3.9897270711371995
Ni 7.048954991947447 3.537034594095747 5.426992016897727 0.1152594693966531 1.3815108070490916 -1.9153432999999271
Ni 7.5881291476748975 7.916157339176085 4.8354542536169 -0.8304807192730471 -0.7526014902970651 -1.1373917609738478
Ni 2.4545452594839325 8.972977876228194 8.887144079274856 -0.6736040885562399 1.171703389771524 -0.5842050318661165
Ni 2.938000469698276 2.8416569778132197 2.4598213666668927 1.2947661572626799 -2.3013872405781526 -2.3011476137635207
Ni 4.859749488584825 1.3951735563797965 1.4808927357278978 -0.5309029780088663 2.1493478833489883 1.5671724803183913
Ni 3.12467927254876 0.2500272137959935 0.42231780984725686 -0.8141441868965527 0.920994349183588 -1.636321014289595
Ni 1.1478121262410659 0.3829771655210563 12.8109613282526 -0.4676898356854913 -1.1053085072860576 -3.887990575927646
Ni 6.839195531010329 1.1254801799305703 8.245036843696807 1.3144158131728072 0.5637457355705 0.5197441331785694
Ni 2.909623369047108 3.378474077949124 11.05526179194511 -0.3936739463196575 -0.8661671169310632 0.32816275199072514
Ni 8.841204603627853 8.977368469977153 2.6894558900861414 -0.4390564882195148 0.6337766721466569 0.5458935378804276
Ni 2.9698623152828283 4.97138149007152 9.302755834880282 0.28587684673832053 -1.2412213912670043 -0.2962437917949414
P 0.30985852806470504 8.656697989263696 5.150318982890944 1.6134975886371759 0.12848342428609485 -0.6732191944129954
Ni 2.13134209942897 4.506764237879028 1.3231086614231957 -0.2825768358308101 1.8565357429434155 -0.8676208186584541
P 5.274055158091876 3.667513796959553 1.5603190388143326 -0.1529760101108204 -0.4222088205345568 -1.0188973295796646
Ni 5.922578206556563 0.1221398477473622 0.04781495242945481 0.8660568166054439 -1.6954329899604026 -0.7509708966721776
P 6.661621433091897 5.778539001524918 5.239255774205389 1.3548428108396022 -0.3738481698429819 -0.41785182911744173
P 0.2944313681341516 1.3909493430255349 8.2972026434476 -0.14344518780224974 -1.0796288431317664 1.3473097356873507
P 4.872579265687047 7.062570454246851 10.225391507944463 -0.1959951939848237 -0.44978852992503826 0.7797914204482957
Ni 1.15138930472706 1.7444060048496417 3.9731961771173534 -1.035793591114371 0.027044662822617943 -0.12019573035600589
