# total energy = -340862.0472513819 ev
CRYSTAL
PRIMVEC
9.31173017867509 0.00000000000000 0.00000000000000
0.00000000000000 9.31173017867509 0.00000000000000
0.00000000000000 0.00000000000000 13.62865836060409
PRIMCOORD
 96 1
Ni 1.088876488286921 8.414992001709601 5.175183113482321 1.698013091982753 0.8214016397899143 -0.16153726941727017
Ni 8.56700599800915 2.3008074918019297 10.454421087794591 0.7444477508416792 -0.19805001963132343 -1.5112599854214877
Ni 7.642332560916485 4.340476820527319 9.28947055690011 -1.3145281703809555 0.10233684779771407 -0.4804728463827725
Ni 7.729443797387069 8.821784249326267 2.189784663227358 0.685191279173207 -1.3522403402197485 -0.4288528082136356
Ni 1.417152226451961 8.693878322638941 0.00015550589514257013 -1.8493533662623636 0.04607802530498516 -2.0270700736529736
Ni 4.511095653862487 3.045708664725585 6.232930487549983 -0.8207748048391931 -0.49322037585642803 -0.8714255371165252
Ni 1.9339346317586892 1.7081717318945207 5.180280354620107 -0.8003131945507312 -1.4755082817431748 0.18557862663719008
Ni 0.7101684190983985 1.0040000670758715 8.762641725828752 -0.971366888098869 1.0894221750731043 -1.368088877216231
Ni 5.31833886079689 4.663565924944191 10.84568602522262 -1.7397233272373458 0.900881894704429 0.1047058622505229
Ni 6.932257259120568 6.560840274716274 10.381944166581855 0.15468476527181102 0.0012739816164171606 -0.6151595712661018
Ni 6.080559851981935 7.310928081388099 5.661467739880608 -0.025706403627168632 -0.09079490859638556 0.7409441085637949
Ni 2.7495490841860972 4.030852478049139 4.803843416439086 1.0559600387599168 -0.7845016814397715 -0.9151659154272691
Ni 5.328972856740173 3.106765679962102 13.235907544385478 2.4572701399231227 0.5111293949263649 -1.6898164151045736
Ni 9.0757710035723 7.448955858855063 12.00094676962097 -0.6802521900003768 -0.9420298296976486 1.0654543514035972
Ni 4.8702025308788475 2.055787933784777 1.563466512666673 0.5889880550770566 0.8049774327956201 2.3231940520405994
Ni 6.291908193422109 6.2575944674580155 2.1447829332845427 -2.882129767816965 0.4854268479539382 -0.24339348076312917
Ni 0.585980666299122 4.444786822766065 2.668205533431161 -0.641462727937005 -0.22061222120255555 -0.28430076050045233
Ni 7.62543177051626 2.488643714365758 4.750514206135433 1.2256459054262505 2.0750432590981425 0.6586721498367558
Ni 3.8811384791208607 7.925427783917947 7.614345224482922 0.19125870774110287 -0.11662523939592818 0.597118654603991
Ni 1.7148761776731223 6.059450159509587 8.902662213568801 2.04574553857529 0.9184785247402698 0.34639290184550664
Ni 2.1019182454336574 1.6748729845274648 10.4329156467867 1.295444671386943 0.5632461702262622 0.2435557173726063
Ni 5.548394468305414 0.5549586369777165 13.545087717330825 1.225049666603148 -0.46706917138235693 -0.989308045958322
Ni 3.452370548118778 0.12773831554286091 3.051115986480632 1.4721897588929034 1.375146812504277 2.5165212122749563
Ni 6.460394640530472 1.2424921021891353 3.4109128627083733 -0.9238999528661572 1.0938825248373032 -1.3488349140826255
P 2.3709993144117916 6.862279606306411 6.60138168587027 -1.3517469455230977 -0.3354986235305061 -0.8623423438683342
P 9.182762784122488 2.4490595490812628 2.9133712856132084 -0.7238431872174501 -0.9393263147235565 -0.4615163598849278
P 0.5648402451169557 0.8949783293316075 11.652216884793047 0.1782232147133834 -0.5002078629178547 0.3414057330435604
P 6.93018074327525 3.4232527676331004 11.195097528704702 -0.8228018625715506 -1.3860488041287613 1.1263748410380536
P 2.5285258550181906 0.5093255717240831 7.659251974777207 0.7566118970080389 -0.13145844775401874 0.1404979322484677
P 5.36015784134092 7.670500544916861 9.172073848970742 1.4962830523966812 0.4190551053969235 0.014569927394374906
P 4.472992053687433 6.543511144724639 12.018187438175252 0.9694807268197495 0.2670383738755788 1.1411250027640347
P 9.046029337160004 4.492174217998433 5.02511806232369 -0.48297838641344565 0.7841021320085076 0.027773313458526364
Ni 9.091265722705069 5.7600500968437744 7.969357733709211 -2.16992904993445 -1.4218953815137254 -3.6252359170290855
Ni 8.773186329161653 0.49684599084563563 4.016829012295563 -0.009748594746331598 0.1854269315506742 0.9523852047900436
Ni 8.246365878647518 8.762263669580681 10.316294605986997 -0.9710804672067018 1.9387560224969127 -1.0962962764851183
Ni 7.9765584947100345 3.3879985569139524 7.181021995043489 0.45670993963521994 -0.3372143206700321 -0.5562496843037711
Ni 5.432547232289323 1.1776824596626512 8.09744058327125 3.104855435818098 0.8536131915254525 3.5696615221978902
Ni 1.0936347824436787 0.6640306580653202 2.2709978497588215 -0.9078254159017978 -0.5084438776744018 0.1482966023572801
Ni 2.681694505868498 2.9096084154199677 7.853828027694579 1.67666496532428 -1.3386379189449655 0.866864914329036
Ni 3.2297084544272128 3.6078578198008517 12.52235244899586 1.4424384957723997 0.6956356144349826 -0.9752397407907138
Ni 2.1414744755274078 3.777880702400145 0.8333300192243388 -0.5268938568494732 0.2262138836600491 -0.9661071823618264
Ni 7.569598635948904 4.4322439221219305 3.049085098113531 -0.49143937269660526 -1.3114011947161994 0.10827815298281353
Ni 4.533080648978152 5.459495379627204 8.453570500127306 -0.44021939817936445 -1.2491915539566745 -0.54073179117383
Ni 6.443894254530913 5.584356370523415 12.941515330247071 -0.49116940686467025 -0.28841272578629684 0.062001381403460974
Ni 5.94597741470675 1.2764799175945476 10.778606182861658 1.3824464314894835 1.2261763240084236 0.6516921189744971
Ni 5.675304039856198 8.501442105332572 3.680255591306479 -1.8072227556409004 -3.3294487531555883 0.16656326187695186
Ni 4.36866342798819 5.686487427884115 6.006953417890109 -0.7650960232196501 -1.0957123789571903 0.38883075929474326
Ni 8.169404428147317 6.0997140811021895 1.1658230400187242 2.9344900265862366 -0.08042719220881632 -1.8171502991672577
Ni 4.617426301565062 0.5202230896333855 6.433012566563032 -2.0581696232712554 -1.1563032531663697 -5.022237106404293
Ni 0.22769694623669012 8.127473706840311 7.6795450285068 0.4678345887934717 0.13271648853083595 -0.4324973469447584
Ni 6.3008195192695 7.989315565149874 12.140599444016221 0.2760390347122923 0.6487754595483344 0.27203274176637665
Ni 2.309802623221554 2.550082510542445 2.716791348346454 0.7140665674466605 -0.664480528988417 1.0382075998725024
Ni 1.781333996453513 4.787644730499565 6.714144876828203 -0.8431554865272383 0.4359971325679008 0.27787814480356016
Ni 8.196324640294453 3.5575186060798503 13.21204437327878 -0.51186755864397 -0.5817995077484174 0.7079769096091549
Ni 3.724673475762741 7.521028650975033 0.4790270638429517 2.687092566870037 -1.552985390184732 -0.8074199807988417
Ni 2.011622397218238 6.9576503475070215 11.798615907753017 0.5098991220636896 -1.1212822570064946 0.8288141302039016
P 5.647117432395326 8.776817903958396 1.698089921554948 -1.2721319648029317 -0.129721410458254 -1.3910804530153977
P 2.7901109811466385 4.418443937894309 10.352111245213127 0.3315422099859193 -0.21157942157632592 -1.0283795580384871
P 7.807196744958354 1.4170777326099766 8.400391208680647 -1.3252810380220854 -0.24630834041707902 1.2036130939959273
P 0.19402293614063765 5.359235980046362 12.860983762369766 3.592655411989903 1.921259408374046 5.3281068513247725
P 9.002273516724378 6.946941857721755 9.53103918768733 -0.21503395578382967 0.6138825043258911 2.1787931851932996
P 3.8576729188957546 2.037788359215281 4.346683088737649 1.4187537505609502 -0.05868260144287313 -0.7219732238882469
P 6.667738937963981 -0.02001090830307684 5.2775748992899665 1.8661154162120506 2.3933836256818073 2.0525232236187554
P 6.531135855224969 4.034847210325556 1.1246670546683573 0.10264229485327483 0.4859001880459309 0.7432493596582038
Ni 8.546315333397965 4.831260874981468 11.348501766330285 -1.8844671792463608 0.9538587040117765 -4.92717365233954
Ni 3.924773247063261 6.494773548606302 2.688429680356918 -0.5964743361517727 0.8362818993358566 1.3405988993260782
Ni 1.3304879530332845 8.38435640919349 9.86539082983923 1.3229837573474765 -0.2282203725671166 1.3088390904159781
Ni 3.6184080101719016 6.753248556831899 10.03374505037807 -0.14163975916239477 0.8728936370216193 1.534974555429608
Ni 4.556937301873677 2.823558716197663 9.356060602250023 -0.32710191482637857 1.6522965637822447 0.4266984808747941
Ni 0.9023811548788135 1.9357224839663163 0.3636249285327181 -1.0850039914007505 -0.20871007044833087 -1.2195341361015577
Ni 4.102124461367776 9.757948361545036 10.039482938556924 -1.4818681625229317 -1.7260345168963434 -1.3292999293734913
Ni 3.2131335745856697 0.73490409932934 0.8242026612351923 -0.7593506360954406 0.7792941690969031 -1.362400311471886
Ni 0.8638929802445151 3.929391865266298 8.902348408259442 -0.5417388922821056 -1.7373034049419436 1.2095567131738716
Ni 4.243299603658584 4.92125874782895 0.9539923509517004 0.6768951006026859 -0.17059809406795778 -0.5313850598516074
Ni 7.555947639405251 1.7393008461137789 1.0318654198431854 0.19904040856905073 0.23386034446171336 0.7610300806803926
Ni 6.679276171741325 6.235339432165156 7.779006412805383 0.04285951836768748 -0.47050930741215746 0.47041829036024796
Ni 1.3747000482510643 5.903916329176272 4.383631103188919 -0.04922968356008941 1.3827606202957927 0.4684714510465222
Ni 1.2388512156621447 3.5180554932885797 11.679201347878895 -2.051070550332629 0.24969808282491837 0.050103601524610485
Ni 3.6619869077328135 8.68304878036045 12.20090686496777 0.11483960825041511 1.1276837896574643 -1.4027293501082359
Ni 7.087334814671727 8.55458414985824 7.456020668594265 -0.047537383459331034 1.1876324022969547 0.3358513788842345
Ni 8.7489758305167 7.059464806039289 5.537650593945205 -0.35499272769937573 -0.46274226187222883 4.027896126007754
Ni 7.773441722809143 0.9336313215912966 12.211523168623582 -0.12690245295222016 -0.5988135258079106 2.1678521128007633
Ni 3.53454656755789 7.690027243247039 4.899325898402673 0.054100124278513274 0.19415634100387208 0.11954806946967798
Ni 1.7834570709500703 6.112452528081533 0.8953331062540585 -0.8305280275712149 0.40628906398050674 -0.5683572662005825
Ni 8.0280337395213 6.632568532817066 3.690667968069857 -0.18707063780168426 0.20390416441925527 -2.616634055838158
Ni 5.12524151064291 3.934662304586699 3.378230551883739 -0.7266909410788904 -1.4024971794927716 -0.0866430912115411
Ni 6.906631377477911 5.028082917234673 5.6306123905306436 1.2146716658029337 -1.0386732266550112 0.36531699244351923
Ni 8.623295407358661 1.029886677165473 6.464304636061631 0.8696869571588635 -0.6601461632791211 -0.6608102792256814
P 0.9077149139649013 2.60764762693594 6.836911659591626 -1.56458646475877 0.5835686838336982 0.09946415423560935
P 5.624061588301134 5.815948413522867 4.181013440029323 -0.717812664752654 1.6106346652670842 -1.0809359919789643
P 5.828863783376924 3.987422568172196 7.448061932751249 1.460020213409905 1.0352796275924299 1.474200875785661
P 8.288287288224275 8.59947600138413 0.1609942289507756 0.12818234810590828 0.1200923720089222 -1.3864113296745026
P 2.7109892092288885 4.693316903086735 2.732736755223229 0.8120230267884918 1.366647259673698 -0.42776034648040523
P 3.9401003550515643 1.5985726668748768 12.595088236309492 -1.1024095884717078 -0.781077486249571 -1.6962827395552078
P 0.5518122033268977 7.927923327624427 2.9753268828186625 -1.3536194799554622 -0.9132699839561368 1.8807514209576706
P 2.3948932142283086 8.274487303996652 1.7721340069684317 -1.3327956012315756 -2.2977735550849654 1.374273408760388
