# total energy = -340874.9608378208 ev
CRYSTAL
PRIMVEC
9.16309727862946 0.00000000000000 0.00000000000000
0.00000000000000 9.16309727862946 0.00000000000000
0.00000000000000 0.00000000000000 13.41111908734039
PRIMCOORD
 96 1
Ni 3.4816836676778853 7.705624013550375 8.396701129367493 -0.8894692819921134 1.6592966492491616 -1.2661248393769031
Ni 4.465085571476432 3.7623310047526877 8.565976519408798 0.046711288013609874 -0.38149874440970427 0.07814739503570411
Ni 5.665075600730023 5.971627013223084 4.8154503326120155 -1.2212441768141291 2.4830973853988723 0.44726962015792654
Ni 6.568941821956762 4.058528117556102 4.982016194849577 0.8982567983767563 -2.162596520828779 -0.5081016638436346
Ni 0.9794526089611675 0.9172901584350001 7.460699010404857 -0.774237580509602 1.141589343994963 0.014451656648955754
Ni 5.5181636653989425 6.192191922806718 7.327794701565427 -1.2077793095584748 -0.1736384235561784 0.8946482550898914
Ni 7.6568763371353965 0.9220824582028635 7.724509156612644 0.37537977599615996 0.48633059071513024 -1.9343054429247268
Ni 4.0966832537575995 4.49378439150119 6.313766978428201 0.8448359595534547 -0.4977833126367621 -0.40504593560202495
Ni 2.056098188548965 7.042939670315859 3.8445652194117517 0.0451817387429609 0.888164961358393 2.0471876703384546
Ni 1.5984473053636123 4.283757043548612 11.587179739525967 -0.8873589205173298 -0.0301703529357932 -0.6230212334023657
Ni 3.7505106095317626 2.59509904752608 10.69678876885108 -1.0006162718822895 -0.9842869385946468 0.46477934690691564
Ni 6.368105060365881 0.7104799738638701 3.389337975401542 -4.026302042047756 -1.8982611477066598 -0.2797761331572214
Ni 8.505708997356807 3.372826074480529 10.912908660045822 -0.42647556623071065 0.8586566674866308 0.42492879056888105
Ni 7.285065347306344 7.3352333037672475 6.485536563492091 -0.9656544110951238 0.9152242794690302 1.1954940644332186
Ni 2.2637156419720044 4.453961571632864 0.6470731747555308 -0.9447572559311407 0.5298994764450164 -1.1772292046857598
Ni 2.162729149158194 8.115498508610221 13.00861067044313 -1.1368862820923389 -1.8943548706737179 0.3395018311526282
Ni 4.389490020644934 7.908678244632314 2.913726505648333 0.21750607147340603 1.3970189299870197 1.3141715583724851
Ni 3.1519679457906387 6.849011883916124 1.2829572916782932 0.7449349748907428 -0.4569230840872905 -1.3477679062706918
Ni 7.6894236579297575 2.3828633931795156 3.4175557328300994 2.256739519961791 2.5004399904423775 1.197838653405995
Ni 0.17232120350753305 6.819231818437049 5.847462466369484 2.7992980799317144 0.7891168116142797 -0.7624616709205965
Ni 1.449620282744802 0.7534154978070396 2.818466948503575 0.38947096398190345 0.398877602007784 -1.420459163287831
Ni 3.7256877795678194 1.3243973981795596 8.631556805142257 0.8865528796762667 -0.8447523987007128 0.2945329797514218
Ni 8.763961725191344 1.2071189187744273 9.703306541965294 1.5253761131078958 0.03928362809097106 0.17251330881279967
Ni 1.8899712386610794 6.597539847913745 10.080145323156922 -0.016062452779501368 -0.0013210328042686924 0.041516374076231724
P 8.752214634746982 5.6681544013457055 0.6040487687707776 -0.31692111763863484 -0.6155190114880495 -1.2039452805243653
P 2.387334984549912 6.09976376265674 12.240703734619117 1.135107335815045 0.39663868537493624 0.9583236817616656
P 3.039188547047115 0.17786121199634802 1.540012402725718 -0.2813984992519928 -1.8659315823360185 -0.6899907574443793
P 0.5790811618731212 8.81701605722945 11.62351050310073 -0.20148784166827882 0.3226423363931282 -0.28582696733699164
P 7.238351878441014 9.068488093231828 0.352223953531185 -2.0301296864149037 -0.4447846489525437 -1.3519958283091105
P 2.3508475320152424 4.590977362127819 4.37537793484668 0.0044071279287601515 0.049690682356907975 0.2581127892511748
P 1.6884380816928417 1.9225827011349341 9.310306806470454 0.6555577725774904 0.8766255932602257 -0.47501567992294325
P 5.861605706697776 5.8331909426822035 11.394046393642242 0.04903350838888329 0.057598624350075 0.0773099867360733
Ni 8.97889133007663 7.818201824158348 0.2659341521087247 0.13761983936972427 -0.18225264758775064 -0.4884350386526427
Ni 5.871923353999142 3.4539927883308814 10.474432473790165 0.47077618792029896 -0.4927328946970482 1.3495126568759404
Ni 3.96376336765315 2.856146519967115 4.468866265327714 1.735225182256676 1.9072643796465347 1.1544708279433216
Ni 7.707594079420529 6.441290716667842 3.9697175481295512 2.6580033628135644 -0.4484392149859955 0.514060709640547
Ni 2.3645555252326873 9.086970060022997 10.251660174122252 -0.13498111619529654 -0.40434222466678105 -0.20844164727829267
Ni 8.22893765034282 9.548496933269163 2.1193052321411674 1.7407006035489505 -0.9748527897649405 0.2883065392257358
Ni 4.8846271339456395 8.70848833552663 0.5673478160743657 0.5168107615818582 -1.1525527849850021 1.2386716282619572
Ni 6.823694246710375 4.50419366977326 0.4339826034522908 0.76720329937064 0.0382623859153083 0.08175233877814307
Ni 6.843294111344142 8.243781867597006 11.224556587129488 0.021250167628027918 -0.5244927036071484 -0.2512515433549673
Ni 0.0094205800981652 3.3420838838090527 13.316691403837256 -0.535259198095033 0.06224743597599602 0.825947607289384
Ni 1.1089546598583262 6.297979878485464 2.002319971842291 -1.0222737022510653 0.39909331756301586 -0.5696268769416255
Ni 7.049445469235903 5.160143136660969 9.410850721695759 0.4747619120409243 0.7270647794785413 0.39810704239034667
Ni 0.16127783891818503 4.3627704295874015 4.675290683512176 -0.6653107381991961 -0.22212043031696585 0.09426281254032798
Ni 1.0080689611122908 0.8420638804154428 0.2483529177595859 -0.23177800801138793 1.207695491595417 1.1418888775132527
Ni 1.4776135442951324 9.214043890196477 4.865808881491985 -1.693618305349167 -1.4496524970223357 2.6102530920124787
Ni 6.638196509615486 6.881907402399164 13.356106465885944 -1.300292743507864 0.7555171212819632 0.7597339875767883
Ni 3.678442851072401 4.951105403192005 10.651137302936219 0.9898726602125404 1.665745747308615 -0.7504211948162948
Ni 4.433482049680331 4.088143247287908 1.3590558965389603 0.7507112152528878 0.9973913371870889 2.294546820617551
Ni 6.352436164375352 1.659931686706564 5.569664852483601 -0.04100858120187776 0.01034946155512411 0.4481080568988218
Ni 4.188121799423965 1.956412855519163 1.5087240914688416 0.4883031410604687 -2.463260810288919 -0.6233631901228168
Ni 5.613753094038238 1.00389058884815 12.417032876785282 1.3934288986429164 0.25162589597525054 -0.22189288768719206
Ni 2.4538865585728415 2.7021056951151983 7.012888377163499 -0.128339699619379 0.5370918804283975 -0.015696327689334256
Ni 8.084041596367248 1.1609918881216081 11.923960209254556 -0.1328013349351584 -0.3112847452884639 1.4411249191672986
Ni 6.620264328648547 7.64823553659793 2.3601288330379364 0.2685293565988085 -0.020172618293133 -0.9670775166948957
P 0.18606584911325993 2.2972434141529074 2.0240191020149054 0.7193298727281289 1.0529811586372513 -1.4706869490951318
P 7.054970816769406 8.101323197442182 8.739328571336761 -0.007256167341781052 0.2185121441404172 -0.4825068460936658
P 0.16876775446359912 7.967935993387138 3.2463487619263374 0.4543486384918949 -0.6443799015838 -0.24136616592045532
P 4.548259003585221 2.2074817152504407 6.729739514588454 0.7572950391179925 0.17488052349339558 0.08105454138017008
P 4.749416473573569 0.1492980058082335 10.648576217305019 -2.762862719922816 -1.0488779351021549 -0.18583033763667997
P 6.601993113090001 2.798364029840639 12.567532164619454 0.96873356424108 1.936797613218961 -1.1641939687683562
P 5.573801990810926 2.8007922505643172 3.0533097959424387 0.061988011667022266 0.5823474098320873 -0.09399104693618007
P 7.997587775507226 5.2283532312536565 6.236411196649463 -0.07980704212631418 -0.5378560122879318 0.3485503145081416
Ni 6.518123285603855 3.9869460032414765 7.2752232647429365 0.27999082027118877 -0.9264797977781916 0.5850162149135022
Ni 1.7075339759877313 2.394069860896718 4.600966054244355 -1.8997436457894572 -0.2128369481325109 1.5396328801372259
Ni 0.2225093187819912 5.754250861419979 8.20713497717331 -0.505281163675704 0.7914860831774047 -3.1146474822078556
Ni 3.659530218718921 0.71938375528726 4.18865417536376 0.29011865273381005 -1.2747971703399208 -1.5304890088544285
Ni 6.5514952851345605 4.899022359443371 2.773271804822824 -0.6959487748000273 -0.9785955446368244 -0.6059377955575178
Ni 6.320209551978459 0.932207680465749 9.653685622399498 0.257719153357182 1.0543402437683067 -0.46713190629949225
Ni 8.98208925095423 4.456710500754009 2.303279146193236 -0.5806165431839098 -1.8279260496265228 0.5917126530970712
Ni 5.3293213978733265 6.9556978231077755 9.602106548989742 0.21569858595102206 0.2208757592765873 0.4784308762520792
Ni 3.364606776408304 0.62011076162563 12.377979757070877 0.16484267964141933 1.9434009774680914 0.13924889033271504
Ni 6.718327793496873 1.9867335437253968 1.1797844839034648 -0.28831759496932924 0.5482682087601912 -0.32758631066196486
Ni 3.332306859234846 0.2643406895281674 6.399289828625862 -0.4243880875740627 -0.18095295493972063 0.3650747945257261
Ni 9.138338382200134 3.3942035799459696 7.443439400762893 -0.6651605857745769 -0.35147263036125914 -0.45387966927527634
Ni 1.84290040901 5.03214383368337 6.407618167553226 -0.3955629358122542 0.13856266289896782 0.8262697665154931
Ni 4.146365566073767 7.50205664903249 11.843493556020388 0.8511323340851277 -0.7456937074336383 -0.7714343067328521
Ni 1.3870913083358152 1.8557379080057492 11.461987093181056 -1.069474271196268 0.0385511208003207 -0.12007643116932225
Ni 0.11777511926635244 8.130452683029251 8.848494960905393 0.16270994956913265 -0.419432029120368 -0.1822143381506475
Ni 7.929954956029979 8.73228489861868 4.6746602624337275 0.9833628841184806 1.3873387265847785 0.6562643117262117
Ni 4.733078671496894 4.322819326360088 12.63354219960552 0.4413254867593496 -0.15098546204335286 -1.5382223729429443
Ni 2.535694689218128 3.199698518430793 2.6011934233876586 -1.4308273938960325 0.546731974621323 -0.3185026031931418
Ni 8.105620689968239 5.975429698507336 11.916919285465596 0.38725055929181695 -1.0565429078465804 -1.0540736203704815
Ni 3.688192386355397 6.7576099906380405 5.71268063894031 -1.007169499619775 1.4819604651264218 0.28187698155030816
Ni 5.4933499985320715 -0.14964895242603307 7.194635658627439 0.4413074890372206 -0.4425770997782636 0.13466512761677454
Ni 3.8034274951138105 5.741990637539669 3.3372760067761695 0.8009104618150981 -2.275654868809055 -0.11487380392246022
Ni 1.9050995119244496 4.228952559970044 9.01506173945266 -0.48676330737717455 -1.144242465347094 0.22303677148364814
P 2.9071758075526435 2.737521065292621 12.778006671709072 0.1325136284914105 0.7549442794976288 0.5949604706104076
P 8.697061953479736 1.6093422277804188 5.673975716914583 0.34865161597269634 0.16889165289981237 0.19633072294737156
P -0.017887281791292953 5.429748941765837 10.126829470111627 0.7892363679112795 -0.5893773200956753 2.1123335109081687
P 1.5897698524378636 8.187043970536566 6.960383830949622 0.3966394567058847 -2.199486966097225 -0.13608977587844304
P 3.4039072997436124 5.658899673304516 8.424824506896226 0.4249982103542358 -0.4482818634725247 -0.6604505818934174
P 5.224568872163546 6.013539019223481 1.440904344811357 0.351110361925834 1.6987358290813905 0.07288948907087447
P 5.788420050395815 8.271051244478768 5.004653626162209 -1.1491743554310725 0.01319670119593211 -0.32932643328152317
P 7.459035908286565 2.944781157929912 9.041521098553392 -0.30796159445250193 -0.7479169403372022 -0.8980387688286792
