# total energy = -340875.46215273754 ev
CRYSTAL
PRIMVEC
9.19441412644842 0.00000000000000 0.00000000000000
0.00000000000000 9.19441412644842 0.00000000000000
0.00000000000000 0.00000000000000 13.45695445967879
PRIMCOORD
 96 1
Ni 6.284584455848198 2.960656573292235 3.8321776360515676 -0.5208625630537288 -0.6958518442108468 0.1875177526414319
Ni 7.516314168465647 9.179749216032725 1.2240523766712272 -0.6678733567200499 0.037619353014670696 0.7458405174241477
Ni 5.4164110793379905 5.922085477386245 11.692667234707042 0.1601478452689113 0.8545130776319024 0.3442596575525878
Ni 2.446964645968405 7.603320911051389 8.300707122370387 -0.09380361351572232 1.7743378319874217 0.46310350186638954
Ni 2.4348739911548942 2.8367802293360156 5.551141429383448 0.47252170985649583 0.5929354697605789 0.06449303747706313
Ni 4.831664718250807 0.7694805333404569 2.79221030598355 1.1425280537591485 0.488601646137494 0.48511497314047425
Ni 5.335003735065121 5.977435851513495 4.062870088217641 -0.9354442060603307 -0.5178610572232436 -0.48914980533148017
Ni 3.2775328679635876 5.617079171585039 5.543579023616063 -0.06553510558833231 -0.5466530417542714 -2.8875761356435174
Ni 7.968642574705545 3.5111629355007006 2.121919114185414 -0.5311839995843949 0.9268212402780103 -1.1391866480907415
Ni 1.207787457762406 8.291541210747887 12.680865415020328 -0.030412293743270202 -0.8463014883553878 0.8893592387768103
Ni 6.650549728503835 5.6279469692957385 8.0830275247728 -0.2574137063016212 0.03996034244302151 0.7092413781438753
Ni 3.1633014646152566 1.1851783929818562 8.821410710044622 0.3950898528305776 -0.800790391297466 -0.97324430762724
Ni 9.069627715879557 5.677891027810559 6.951445211668447 -0.9469951441227238 -1.2107754160723212 -0.5536263877483111
Ni 5.701281617807191 8.831207358488575 11.451922529379287 1.3151987140854189 1.015384945551032 0.3995059796204023
Ni 7.422687447578972 5.034254443087987 4.296227081649841 1.459312388709603 -0.7615129338540821 1.3992858716443257
Ni 3.5497151146893318 0.28720683914457146 5.598913767238991 2.251802230561174 0.33632240498338206 0.667284059875483
Ni 7.786914975930612 0.780830118360835 10.49576504404252 -0.8001342457707059 -0.25082859688493575 -1.070164098174441
Ni 4.4276253759504955 2.8383892518397147 10.199483317977084 0.06695075498893631 0.5437518089470764 0.17579583621881337
Ni 3.893935597509263 7.878923479899283 3.890836160446423 -0.847935681524701 0.4115845080514911 -0.9838917600387571
Ni 5.984515550529771 3.394090458131552 7.9159595001687135 -0.2617807250210653 -0.3407112780796971 1.1148940940919638
Ni 8.734794730066923 9.002324603153399 6.079663946984231 -1.0103036743733826 -0.914730113441431 0.7452198531210134
Ni 4.947238506087939 4.041257697947954 2.0274924792540427 0.2927110960513346 -0.5495910413366728 0.5974580402212808
Ni 4.917099215990078 3.7085026497686684 12.772291912563373 -0.3826863369599023 -0.5303442772919189 -0.5682559647360278
Ni 8.444269626799008 6.775253569747671 0.2019093381784733 0.6622097306763691 -2.0531410597084125 1.6200132782685068
P 6.755687856102688 5.59122447855417 2.3623282233909695 -0.6764688116985447 -0.6754185160571593 -1.8914222704079553
P 2.181475932858049 9.15222113959801 3.0535578548900997 0.20050593737098374 -0.8446143304609519 0.6273008346143261
P 9.158390591597907 0.832824531266084 0.24354440448419193 -0.23172787149974286 0.6246618543295823 -1.0041427969783094
P 3.9628385383248133 2.2221060496800287 0.774532864002072 0.6463002585349643 -0.37752664713583367 -0.08551411981342047
P 6.304288085707782 7.563030987558762 13.169338902783323 -1.8935136057193453 -1.1902217602906857 1.9934690977690765
P 1.8763500996708535 0.21605126682384262 7.008987534166451 -0.7065638313117121 0.4762336114904444 1.5916817783136652
P 9.123516178132018 4.67518498116249 12.635932312302742 0.16429272067522027 -0.016408009044378193 0.9715237253917075
P 3.211774416840981 7.080452958249321 1.0634636558291783 -1.0595282157271495 0.9941219224071977 -0.7874131986596116
Ni 1.5621217963198741 6.917242909888388 3.689856377554372 -0.4775045077830679 1.016834790623681 0.05636269506044486
Ni 8.29439147918301 5.994822488967753 11.181612265406418 0.2343092590736739 -0.626462654983747 -0.5024984587242443
Ni 1.7463226925433502 7.535309828423603 5.965562184877626 -0.5680597895648217 -0.8076228408382671 0.21404305262547005
Ni 6.562071879628996 1.7693914780392423 6.212550816961165 -0.9055461329493177 0.0019141863035773484 -0.2259989394357656
Ni 3.259907175737352 5.8522722895543176 2.7242258871572544 0.995990343074504 -1.6954972675394346 0.10318685450283518
Ni 6.96741682876088 4.797194859014418 13.272526895107694 1.1027600298325912 -0.4820324775604085 0.6511773841216075
Ni 3.8149004121275616 7.8272784547376935 12.324027437447103 -1.242190697158809 -0.7384185139284638 1.760900475535593
Ni 5.612748602446511 1.127630553835269 8.967646950153675 0.9163807616709766 -0.8384753074427496 -0.4062859786567131
Ni 2.841064826403009 1.9772128246170215 2.7720248888142867 0.17930822024744605 1.7481210643827378 0.17135194151484684
Ni 6.023095312961323 7.724641207830303 2.4687048385969566 -0.001158024863843167 -0.24477056361631394 -0.16405977872880778
Ni 6.546303459092745 4.257776960460016 10.648542190489467 0.7154058550833744 -1.2354940018649239 -0.9401660370160323
Ni 4.947284478159473 9.063522624779807 0.6441174525908198 -0.14961300717585846 -0.05248521438290961 -0.3622848904854148
Ni 2.1029004681916903 1.0825411460744658 0.16070824822803811 0.8557510638040617 -0.38484837760822754 1.3784403956538842
Ni 0.7937326399576407 3.3981360004265673 0.7019898545624392 -1.0249913582925445 -1.488239099046282 -1.0564809442603933
Ni 3.6558830166905536 6.607161287389799 10.32370445246981 -1.3994974734344996 -1.4749958608831306 -1.821348653519321
Ni 5.0333533904859165 5.909139742042198 0.5675243036490185 -0.25150736811951524 1.2924740187943933 0.9034447703355989
Ni 5.9591113837999385 7.917668741788357 8.006955699122198 -0.7349410969028246 1.0189166128533742 -0.460904951553174
Ni 0.9155457573434023 6.178021194031782 9.305995879997251 -0.49131698818612807 -0.9006800631062681 -0.58048104604731
Ni 8.234122093401595 2.583069560952737 8.817050718780314 -2.386745294429683 -1.276947383913704 0.3205438019928866
Ni 7.9024703749391305 8.322222971289852 12.309049736541244 2.437698902659415 2.684919213367802 -3.0018339032485333
Ni 3.4134722834903966 3.528926543941539 7.823308306639995 0.17404722895882285 1.2981250464325838 0.25938857063980486
Ni 2.5587135574538857 2.9617874862519775 12.364250241715292 -0.877120016398141 1.3647135329860947 -1.2199375421875636
Ni 0.6055422873664215 1.0313282583852994 11.610848900114657 -0.4058280651836882 1.0022972591291384 0.3653758707059127
Ni 0.2319364564217911 3.5406678110113896 10.60428211889914 -0.43913619241751467 0.09070466287542443 1.6100829065286721
P 0.3591687616000112 8.058223753297206 10.259783964767143 -0.9352171776511894 -0.21822778013077904 0.6958515871005306
P 7.592710556941282 0.6975204497678784 7.768632802522868 0.03717223817492308 -1.2427753660176855 1.4138221175872876
P 4.341859879296179 1.8314353857818806 7.029549922322295 1.1506398842330054 -0.4287808173251197 -0.7226864479051875
P 7.261674864237377 1.1597098653518758 3.2399635716643593 -0.6360189312136143 -0.16518103681744456 -0.5497586772627887
P 4.829724696832061 7.305329943366311 5.746187137281857 -0.45573317754424736 0.46937673646961103 1.1534994651689876
P 4.448570251741505 8.483364276431743 9.864526207571306 -0.2773382131396901 0.8603150290256603 -2.399627292598674
P 6.106304762438334 1.9002187992114417 11.378635691822229 0.014553472334142677 0.6313662629329513 0.19649681621159062
P 1.8476635270334747 4.992189997634139 6.952010668148319 1.3219401465743104 -0.09618831169781498 -0.14128057605076313
Ni 8.85759532754924 2.9281543187175125 4.124475422397843 -0.12732308542940654 -2.4818869100305387 0.8147849058043451
Ni 8.410333043592416 7.496867982206655 7.97050076583696 -0.47988637775168325 2.255122553183658 1.752004201487228
Ni 6.753701862612409 7.180368658521883 10.131781167670008 -0.3092301767522804 0.8751299825513057 -0.9232615479512101
Ni 8.020278405452828 2.6304116002187192 12.431238905472155 -0.2520269880684111 -0.31965497163003015 0.3362828099946983
Ni 1.3956477308800093 6.318098095996674 11.651246398254672 0.7925790591312672 -1.3186486203072323 0.38843789473169876
Ni 4.030343928165721 1.2017467275628038 12.054672473120718 0.44339882434861055 -0.06607092348714427 0.18311165315393627
Ni 8.726041647646799 8.873529247543013 3.6926827405122986 -0.07701328143126092 0.5449553423368745 -0.5025136282328958
Ni 6.300113821612472 2.271029528206789 0.7349316021410291 -0.491432944938702 -0.6022896572819691 0.33029213962890214
Ni 2.3372936721162723 4.199732622940859 9.949197568923108 2.186384624387312 1.3388099257464554 1.4135387820189138
Ni 2.3886720592629627 8.836705618244071 10.67803971046871 0.5596921343264167 -0.020171846962184617 -0.4660224752853975
Ni 5.365667106778473 4.148556512908919 5.739539575738002 0.15202367349988014 0.1733250060808176 0.39364926372930914
Ni 0.8024765279634571 0.7383666353260692 9.141416783346028 -1.030419214176335 0.017261101073292852 -1.4550849808918167
Ni 2.8601064584325 4.429078093410978 0.680679960523448 2.1170885090946503 0.13421955543892367 0.174623413177267
Ni 6.0750621426236515 9.057463505751592 4.842202436487891 0.31337890881333125 -0.5644646160143956 -0.5399956843387538
Ni 9.113494266537549 2.0257133600856667 6.629433836606718 1.1023972471765338 0.31695454197973155 -0.1893506920851126
Ni 4.01422611988581 6.101753527356443 7.58300769152326 1.4273798016670642 -0.3689887848681516 1.3282151809497447
Ni 0.9674730510242111 3.5287242668267886 8.248359643955755 0.6078506963095145 0.2740387164528119 -1.219152841502739
Ni 0.7419552152300335 8.310619620434606 1.6314945717065044 0.765649581730275 -0.7081118925251224 -0.3806196842388606
Ni 0.588582270736002 1.4435874070759362 2.25059494240981 -0.9558680211323215 0.6084533628905198 0.5478354920981469
Ni 6.868475736404845 6.674188567686751 5.954500385025052 0.8390139535550389 0.5199778464559303 0.3285638440838857
Ni 1.4150019729959329 0.7106473150737713 4.998841236943716 -1.2359148914524263 0.987728617286344 -1.9559608164109734
Ni 0.737902317403573 4.759608093328007 4.860961799998161 1.0033156730913237 1.2319397088547621 -0.08675416286810865
Ni 8.563089042886459 6.657914454363624 2.925017184556015 -0.7255061767421699 -0.6012619873484032 -1.4493223673764264
Ni 1.135841165811288 5.663446602934494 1.352760385345697 -0.7926135119136284 1.5126956894267496 0.5046836393010211
P 2.063998901259399 2.0462812648900948 10.455340882101014 0.7119909158645544 1.0103836356816984 -0.16868056533027076
P 7.795879529879794 3.5665225040422577 6.005259988088891 -0.6789915781203983 1.3093913633750225 -0.35609470251430286
P 8.360719983992642 4.758486374782571 9.08648567451117 -0.17683996121261156 0.5855144947061593 0.35873034036493706
P 8.87251786196926 7.126939916984766 5.004009417225597 0.11762694118756517 -1.3437428442716988 0.7000244875312975
P 4.0722612629906605 3.483331443393859 4.074321731236826 0.26131227002507895 0.49853741719396727 -0.11035843255060994
P 4.772406718043145 4.916639495274735 9.382041041846364 0.23685233721050178 -0.3741063086003751 -0.4366062269068094
P 3.2989834365414734 5.290052243518921 12.087373327044467 0.12738556323622577 -0.9518293322865737 0.29207037714354217
P 1.2705761130638993 3.7319667950797553 2.787069708944589 -0.2181516754772049 0.45126614291182926 0.3358210398669313
