# total energy = -340890.64598275546 ev
CRYSTAL
PRIMVEC
9.09654386213841 0.00000000000000 0.00000000000000
0.00000000000000 9.09654386213841 0.00000000000000
0.00000000000000 0.00000000000000 13.31371143498511
PRIMCOORD
 96 1
Ni 6.781509968385001 2.0798520225129358 11.584034033195989 -1.3453001614564897 -0.5840245404241942 0.6293857421678128
Ni 4.656748307944011 0.24563670768941645 5.93183089850081 0.4636166940573822 1.3399101007891698 -0.7423186203138183
Ni 2.6138828334998365 1.4150311013114159 4.715263646793474 0.09139937494960389 -0.31121018329678657 0.21754052425576728
Ni 3.4170894791898108 3.8761829603708944 4.536021704401421 -1.4027429769549904 0.5265045918308545 0.336280238891537
Ni 4.9373130157858185 4.615268067119232 2.6015260880751914 0.23611597326510947 -0.27526281866790014 0.26415359612861605
Ni 7.198841215876051 5.8253631277417375 2.6024448390232844 -0.043546260022066935 0.31799583876005233 0.21253175818726622
Ni 5.255373678162655 4.799873331877578 11.838578986464286 -0.5799506274651367 -2.178078675624778 -1.5699258746938125
Ni 5.568212924260233 8.362744025860788 12.42849623507294 0.5431242026654066 -0.2673502486890427 -0.10052781961343332
Ni 1.8323077695382217 6.649473631636831 0.520157671670701 -0.07447226017696207 -0.09497320834379128 -0.49945350125033333
Ni 2.673956410343441 1.7710061592491468 0.29296511667784614 -0.5739810401452631 -1.6835688915329652 2.027271648140818
Ni 0.5304495015981472 9.080252130145007 4.710578016958202 -0.5599628714893001 -0.3715390620938311 -0.4316799932497856
Ni 8.854284879634411 2.5849649199950178 1.319984041595218 -0.5467445730268132 -1.356219893692787 -0.4681996854423743
Ni 7.1195011587546215 0.47309306245944643 4.7096192412163305 -1.0615390755095913 0.36518715173387434 0.5740013518602373
Ni 1.1679689651708498 7.465015191045753 2.8759078749326563 -1.2835327504407055 1.012253856121218 -1.2321456542179814
Ni 7.757005158202455 3.848320245974777 4.14831335257833 -1.1275472640796 0.4709391958607244 0.13180554668079236
Ni 7.813112641844392 4.180007531324315 12.421706574601094 -1.3626152556961693 -1.0561492719525876 1.0350024626716432
Ni 8.03787914854164 8.737203261288858 6.98570464073461 -0.19079102407606496 0.8680985296258211 0.006464010457788867
Ni 7.182758526012409 0.5294561589889223 0.49032919410742676 0.5937970464299258 0.1709991861611184 -0.4747883944034855
Ni 1.6311831808022896 6.670832317043976 9.24309755190402 0.7416933280249937 -0.9293910578877156 -0.6218230993292065
Ni 0.09976543711001641 4.842190454754084 1.35933023318809 0.1247643235632948 1.3174553713300794 0.07256553007255245
Ni 6.50261902464665 1.690383489418004 6.817618699953853 -0.10140456579143182 0.4949728397711604 0.3393704477810865
Ni 3.19960020772498 4.541140329733022 0.6788887265601865 0.510203797788302 -0.12552048500302898 -0.7582954553580489
Ni 5.899390803143502 5.310098487110433 4.929335346662281 -0.5254188149658434 1.6172231171178792 -0.263027710054289
Ni 4.917036819119495 2.7732178989136123 9.682862696307804 0.4757409881247419 0.22090764095578727 0.22342732205384747
P 0.11020281174211087 5.759158480214821 12.540304586838202 1.0162421513450046 -0.13013252985374363 -0.047584691757498694
P 3.987233570017582 6.129251374503442 12.795529051946328 -1.4428686413312828 1.909294779813002 -0.8672618926571387
P 2.7071224099151823 8.612635187197956 1.4164719938874344 -1.1130423855952056 0.13343022676840893 0.10741811897536338
P 6.357638305728817 7.608649621445588 6.057578794353769 -0.8914924830697293 0.513595082858038 -0.9940085367577849
P 4.634534547397058 1.4312593358797063 12.441982771267417 1.4815159213898357 -2.4594401509912482 -0.39760567727389584
P 3.8911649684056338 6.357474567936088 8.112470809673917 0.219275504669003 0.9150476446818498 0.13826955713858122
P 4.972616703207083 0.983336410780383 3.7571828808871954 0.1623728779446881 -1.5625879462715024 0.6475521286641944
P -0.004739299445111744 5.6779081488448835 3.6461732056886897 1.2322258726366133 -0.9591806304453223 -0.2195850654896218
Ni 1.5275644476367083 1.0798052603301145 2.4798252446658617 -0.3675029443512445 -0.3014479617037002 0.23193870195896826
Ni 1.7547324419606536 6.546919194123991 5.01831046323143 -0.05144700292638236 -0.8633103642085583 -0.5833560536022598
Ni 5.969525157695923 5.723154358902437 9.484381563270048 -0.014729078680058504 0.7273987657791925 -0.36384297900115403
Ni 8.998155820179301 2.2428620917190822 10.446110952990981 -0.10380597614407283 0.10662827608421638 -1.2959308669947422
Ni 2.50860852931888 5.148307354805716 6.95033000026983 0.2201314249113951 -0.2209518639301614 0.09278185711942731
Ni 0.6346840707952719 8.969210617042362 9.22292687514857 -1.0187410065074585 0.746434699364721 -0.026448938220148
Ni 1.8520654631942348 1.1327562431899905 11.30705609266936 -0.33276502664942686 0.006717521229491657 -0.10388182368733076
Ni 4.120188657713846 6.836853342327536 1.5730153299351743 0.3300867084863154 0.6642853822584753 0.4796233538982837
Ni 5.758312501619053 8.433360497247357 8.042028082278522 0.04532777740252193 -1.1928766814150296 0.012752157459345782
Ni 5.448365956526361 2.911458078697419 4.853100849676286 0.20924768811935576 -1.5182880959128626 -0.7040217816161489
Ni 0.7322526925195022 7.345859560658961 7.10504856958304 0.7239853692222693 -0.5119405779737506 -0.3540005389894355
Ni 5.072742363461104 4.540166999520687 7.61946359300096 -0.7664350537460478 -1.3035048226872583 -0.524447966412142
Ni 8.028536997812024 7.127224124645024 9.015446531091523 0.5762587804358462 0.5581505008709098 0.3832154699904949
Ni 4.83688716957846 0.29736784399345867 10.179570387096446 -1.7437694722822612 0.08604145307180021 0.7875546093334823
Ni 8.137786491738689 7.044372801523954 5.002627111651168 0.14815879122783515 0.1381363739948266 -0.16993629211424283
Ni 6.929237843603072 5.782600274207246 7.1562129911933585 1.4525850972880985 1.1740333234562814 0.08263165605930284
Ni 2.1812421023885893 5.3436556380759175 2.757935704925536 0.5420895907533052 -0.3135545151592471 0.32470024736342146
Ni 2.153161070935499 5.42478771437333 11.335041610410023 0.540785784340217 -0.08836598743991879 1.1786227425991767
Ni 0.9258371559002461 3.377210230116164 3.6747172512334427 1.2023064593693618 0.6217580504192259 0.3301841532961281
Ni 3.76797956900889 2.385359454113853 2.7420786093540985 0.04767699436098886 0.19784587404031734 -0.9807100198766657
Ni 0.9572839086483292 3.4268591674893307 7.941229277765502 0.4675183431046335 -0.25333927912193144 0.5797683362510015
Ni 3.6355065981467747 2.725679359757846 6.683470145679473 1.2490704549977778 -0.4044607525225163 0.8648357997141493
Ni 4.018698515853746 7.152839992663134 5.98549868903108 0.8222760719750678 -1.948062130389187 -0.03288209544000144
Ni 0.7739912751950315 7.4520435192439685 11.386405246334826 0.08347009280019818 0.423089166256981 0.16268063899309404
P -0.1219755590393539 5.465340107705974 8.014628381974067 1.111529291384789 0.2737340407281995 1.393976029395638
P 8.420034060227993 1.6373961203819658 7.854571050963473 1.8434740246634511 -0.7830590354559741 0.36534501746797726
P 1.9323333678077972 3.4393851086331293 10.294108611728268 -0.51453070729843 -0.22437297379656843 -0.17524124926692403
P 3.889845969519758 5.884645305253817 4.14582362847444 0.0588360963016019 1.4412725004887565 -0.8604124738354731
P 6.72897742655099 3.9657020502736673 10.44493931811856 0.9904102778835652 -0.5958225615003868 0.060164585305038314
P 6.414446223261875 7.903013786596867 10.207756028806001 -0.7774668860801771 0.2465875622203947 0.588956687618489
P 2.318636303576627 8.491614765282856 5.674490577248858 0.2222800958232817 0.9692626972716726 1.3762927531832618
P 6.813202327822179 3.880449239525899 1.376598202740212 1.3757782754406889 0.07400817605634995 0.33067703377214663
Ni 5.004854855286691 2.89770410410815 0.684164722103689 0.5236511815424594 0.39276171891803324 -0.7478336365947766
Ni 1.4243459624089099 0.8908172806530461 7.107299054578665 -0.9140533990893807 0.41903787900574285 -1.1933029703191707
Ni 6.891277965321976 1.1686693990619699 9.335867746646878 0.7255650550045634 -0.0471180365337253 -0.4881887269697915
Ni 2.606869398044594 1.8627357093537666 8.894105001171795 0.7981035884939223 -0.37577906831710767 1.103817524562828
Ni 6.5317552552084415 1.9379732251129207 2.490729272007235 0.15817426648230826 0.45196831118517644 0.09455154742534039
Ni 4.1182329007451335 6.901193198326144 10.623689137478022 -0.12871996577693315 0.8366212849531462 0.03857734605256582
Ni 8.285141408651098 7.235354743654704 0.5425378989735963 0.1084946398689938 0.24332714630156804 0.26309995805312103
Ni 7.7368654096967395 3.641073683099574 8.427646048281101 -1.9911520196001256 0.3051092126053713 0.06059113131949565
Ni 3.1660430567594964 8.487994340754728 12.481391729014168 0.045984437149914355 -0.42349591477709647 -0.05162080950008529
Ni -0.014398919561741611 4.724108216564073 10.338789016746503 -0.19152815935240564 0.719168150339284 -0.767813165040497
Ni 8.932133103533195 2.131074662005113 5.535761003395672 -0.3371934947344257 0.45143326461731287 1.3455644708614698
Ni 3.3699057052516257 2.944114671802891 11.911804346681677 0.4140178000833321 2.9416217525350117 -2.3601528886531353
Ni 1.0060231916174438 3.510783882807183 12.53656408792874 0.4508964182772363 -0.56694084546903 0.3628093955303171
Ni 3.2199218871115054 8.545702816147797 7.947526815204755 -0.14041925649173234 -0.5063152613671732 0.4685616967674834
Ni 5.774558929275425 7.741659288406095 3.5327001863640115 -0.21648688618027234 0.17286323595305067 0.5087920050424398
Ni 3.3253053498209484 8.187480911832058 3.6705774140406016 0.5375965879789579 0.4169457723634045 -0.10629608955577823
Ni 3.5945812465084677 4.7767863031027336 9.450591540777127 -1.0082462776237215 -0.9472993056267041 0.8649399293921813
Ni 7.105619832548785 6.350452035936805 11.641682471398388 0.835608784528232 0.9083470927332227 -0.5013754008633946
Ni 0.8813787065566009 9.018504789197948 0.0738857693147325 -0.5470037402254708 0.0047699105848175915 0.438579034362464
Ni 4.786956239340037 0.48345584543040865 1.253887642942384 -0.3448587245891674 -0.9744216157647928 0.6301732710661148
Ni 6.058452972236062 5.662198417286902 0.4450638813073873 -0.14125589346041478 0.790359168661813 0.6103297539776263
Ni 7.980006935355841 8.846671072272494 11.433562640295296 0.023653377752881843 0.14511974729119523 -0.21750272903929638
Ni 0.252065235362853 4.827135674367021 6.051308546546637 -0.8385380423598848 -0.07642809835175224 -1.80783313553139
Ni 7.999728242835692 8.897065926256985 2.690354750285289 0.7934444924553561 -0.8489589805828928 -0.7422461152046701
P 8.552961858292134 1.8538938685463797 3.408603313254408 -0.6444686046428643 -1.9410414760969796 0.13221975140007552
P 1.9683556822082626 3.2396795807675187 1.768566466137479 -1.2474450035792128 -0.09685834118164609 -0.40875089525743796
P 4.662360875617013 1.2903083859718243 8.04181431349357 -0.02810318599411934 -0.005051960601610654 0.7252711779132284
P 8.808884028328169 1.5236529336992841 12.477384701364318 -0.10895281045233494 0.7785812021902786 0.7956409858860426
P 6.278280055519307 7.649029180441463 1.36529483711546 0.5059846175006318 1.0187852294818323 0.15362032856303864
P 1.7814489918076657 3.1222431972043845 5.867699353360729 -1.0075214836425552 0.36350333627354814 -0.06368468264315483
P 6.7088558711333555 3.822977274277884 6.297012568661953 0.7957109198920297 -0.4583569883203396 -0.5077555933581256
P 2.4886689047820565 8.502403266514914 10.140108669394259 0.8818331056030941 0.12653092854541437 0.6408199521466834
