# total energy = -340865.86495425156 ev
CRYSTAL
PRIMVEC
9.23010873237203 0.00000000000000 0.00000000000000
0.00000000000000 9.23010873237203 0.00000000000000
0.00000000000000 0.00000000000000 13.50919712351497
PRIMCOORD
 96 1
Ni 5.952469537404861 0.31712162040989494 3.7921394747693524 0.08948493153571041 1.724955939120184 -1.2033423568330437
Ni 7.934543121965371 3.197448173584471 9.125503149945647 2.0565601126922903 -1.0563241069675549 0.23606403698125153
Ni 6.74277915150016 1.7602648376546075 7.6446789361394645 -0.7471589791252552 0.22418991125148485 -0.2199956706644792
Ni 6.97974373721508 8.832245053078282 6.669193954339912 -3.9449407680604445 -0.8130609811347029 2.445777565902491
Ni 4.838579995704374 0.8516529178253412 9.405494811295227 -0.6478881718473745 1.2901219736224492 -0.03932219463839034
Ni 1.2619035679741772 2.061674043688991 11.748098295397746 2.294901375743493 -1.1077155740656535 -0.020654957246190233
Ni 9.066449836232971 2.3687043860417005 2.7073109309313454 0.3883337650536667 1.0461643928257338 -0.0818065890548462
Ni 3.953809447156284 6.31305297157847 2.026366108124963 -0.8732728747379089 -2.657657549438371 0.6378264167359983
Ni 3.999766159354881 1.854790382869678 3.068708460709678 0.5977902267497189 0.8619353382379026 0.22576342638619182
Ni 8.8851058867319 4.9122085743764385 11.775764623805875 -0.3016726761199966 -0.1634270302408153 -1.3228410611220252
Ni 2.362806346456462 4.874392818225073 9.494304150070333 0.49369988659600783 0.10096233604769064 0.5576277955982203
Ni 0.27472034615845564 2.605604360994341 5.191665812420879 -0.23748714258102324 -1.6071647044406125 1.3463957085135134
Ni 1.8449141663497945 0.8340123337012281 3.6296507917232494 0.6961956007035107 1.0490329726227805 0.1275244028069352
Ni 4.275654114288819 5.825610920723293 8.139858587283069 -0.13624507050938472 0.6882727463120082 0.2993653681430586
Ni 0.5028572557242017 3.5268892203393083 0.502659731393804 0.6407417906105803 -0.7186040503056979 -0.3044417542247015
Ni 4.822713438510282 8.280681435715039 12.625898265706756 0.3920700921676473 0.4138277955597131 0.18677701782066544
Ni 1.0954570142330031 0.11125050253659233 1.4081583354920832 0.17539011613996244 1.5922348226036578 -2.2750074650330427
Ni 2.428857005724018 8.545899384763944 8.158406491111766 -0.21959534990226698 1.1550866071504495 -0.5645414919989181
Ni 1.5253493361148407 6.417934698976072 7.803655562750226 0.5982167727641763 -0.8709737942910871 -0.7590439034882992
Ni 2.3193971443134607 1.4348758087055917 5.84945506103714 0.3066865843948202 -0.9471018449039172 0.12578119486358338
Ni 0.5671301960181789 1.3133891154021298 7.387072134887099 -1.8220672768529007 -0.948850709274224 -1.0529899003879994
Ni 8.537158471638401 8.699340715069122 5.458283045978582 4.249115898887321 0.7923054937549066 -2.7980840050189553
Ni 2.948004480640689 3.515628487484862 4.776676424364279 0.17563385671965237 -1.2637064597433978 -0.5246868218958254
Ni 2.960188224384844 4.230666563524415 1.008536155738243 -2.3188923393414513 -0.5970330368687202 0.073724326267344
P 7.5567270744809 3.60154234109895 0.19442578284091444 -0.897156880444358 -2.341151150739652 -1.1143500486630358
P 0.34065932110835706 8.223020945434936 7.438069409554394 -0.7035319864639239 0.7608012524990381 0.19699766710740912
P 0.986652490554139 3.256373188783476 9.810108633940613 -0.35997321163310264 -0.5883460506176835 1.0657808815050807
P 3.4640321787501445 7.4613523592472974 9.714409941884723 -0.8359862224723086 -1.0829723056827025 -0.3389588141649646
P 8.000316877966014 6.459045604003698 2.6432364379786555 0.34109771488483837 0.19172330608234725 0.35378122388977784
P 1.8510244984396664 3.472883853182451 2.8432805881052268 0.192978518645687 -0.0483519089408264 -0.24039711713896664
P 2.692690438438359 7.6369551810143825 1.3447364112384173 -1.3361192662881698 2.3113309820544257 -0.5701441828976762
P 8.323979876551276 6.49332622844748 10.098273556718565 0.004964543094126935 0.14436821383715137 -0.7458438598582574
Ni 5.9332616807900225 1.4467457287472458 12.28710158057383 -0.6233732174251458 0.9455139315915071 0.025449550421356167
Ni 3.6517633636080014 1.1318605637231152 12.31017500679477 -0.8848798628492179 1.2423971567426604 -0.1401397775781006
Ni 2.0165295810733372 4.291160697235925 12.034803937959069 2.188636910756599 -1.4612137194973738 -2.168093539387608
Ni 1.1953821731528695 7.833224216602044 2.941236041786455 -0.28234903609072015 -2.411074872313983 2.179643706119052
Ni 5.356509096246629 7.97520175165704 10.417482104750093 -0.13124684596384495 0.25339867160495716 -0.7925937144192866
Ni 5.143681245297592 4.809791286054359 0.8571743689675787 3.2198372260733326 1.4541215885372827 -0.039754911300434764
Ni 0.25962634907904886 4.447869486090672 3.9553038017867226 0.22237934040530732 2.0884142810884097 0.37749039458125955
Ni 2.183040745576791 7.7750468402237045 12.770338393815495 -1.6631527897704583 1.8935223474700937 -0.5794623749748085
Ni 2.32399373854421 1.7467150377936835 8.746556414121281 1.1168836137181668 0.6745577107187609 0.435417863025663
Ni 7.4653859168353245 4.357423649008114 2.2425675638758857 0.4238496985720894 -0.02485742536331203 0.736039729283642
Ni 7.4139557500607545 -0.08950436597505483 9.147739405289618 1.3411907672738062 2.5827101493972036 0.09490738810286235
Ni 5.190994783504061 2.9150437617691907 5.713282341467521 -0.2530790834820093 -1.3389256253887134 -0.22117992078056747
Ni 3.646077616527396 6.238999807897139 13.050114070616884 0.614723769280264 -1.8628596282789145 0.9527477303357849
Ni 3.6660423420717954 2.7877144095338724 10.553398227292371 0.1223181760156474 0.3273860217257007 0.18549532289476442
Ni 6.690158300677865 4.97954221878069 9.600742996838875 -0.2634426861045205 2.0260102649298912 0.3414365862814958
Ni 2.685915538507897 0.10611948500070154 10.541807979550299 -0.19608158305104295 -0.7583479058625392 0.4343981635118971
Ni 0.5713631239583832 0.2690106007947175 9.459572173301483 -0.9939164912646109 -0.8853020379883012 1.1864406959816987
Ni 6.5962511727589 2.2252408034542737 2.1037734933794954 -0.591398207180446 -0.9355557919375308 0.46785541472907816
Ni 0.8471107812370845 5.4920809357270475 1.9471616206681681 0.5297719497282166 1.0385492994826373 -0.47023162827073856
Ni 7.907332760936758 5.8425666307672435 5.716146444258288 -1.8624721630325085 -0.25980740334477836 0.06628561060111166
Ni 1.144431972040948 6.894208318065773 10.56344889287041 0.6197834431913585 0.47082658154226015 0.0766677251663841
Ni 4.7351381652947175 8.465948181497374 7.758413260980263 0.5369180738546946 -1.1311856321631357 1.1837016997839807
Ni 3.4021350684862774 7.143338187307054 6.17479701643078 -1.5177471358077281 0.6866838045583334 1.673489395809776
Ni 4.619392599725243 -0.06111624305117336 5.652410696302121 -0.44980755608843176 1.4091062001688572 -1.2573283241311959
P 4.85034838454816 4.01722952538817 9.163194299626902 -0.9715175547441204 -0.3913432413039518 -0.002882206643801488
P 0.5492754733676535 -0.1159873944225775 12.036046310616616 -0.0038296581587353397 1.6343718609830238 -1.4959374961318042
P 2.1569472277247255 1.8949413565720075 0.5650358843094299 -0.009375270567312886 0.6853882256753615 -1.2677322930733392
P 4.287514804221575 4.0954454681820875 12.334707713232339 0.18794121333209568 -1.2805291877276914 0.9869804262664098
P 3.9676638406108116 1.475109853387995 7.171114354011058 1.2079667429789325 0.00789817180115414 1.1743896783544356
P 2.390118238682943 8.405334056370203 4.968398708309237 -0.5869625400065955 1.0858455134654397 -1.4947879559083934
P 6.983241948487077 1.400825936984237 5.456904990720248 -0.3745295121807227 0.6920656376955372 -0.6920496968559372
P 1.874505895473856 4.951685750129281 5.9455866452003026 -0.35457440921503447 1.0858270015226783 0.8296911334922163
Ni 6.239110569203904 4.259307591432076 7.342491631925056 -0.17088554340138956 0.6368033747881225 -0.04506706754196755
Ni 8.647273670780653 5.496049882552794 8.072785231949716 -1.2057108570652204 0.6384169991321457 0.6744844342786642
Ni 8.83617707946844 7.55298888037758 13.029769064585924 0.1852515823150745 0.23209168259706484 -0.2503398301739753
Ni 4.727504865236827 2.7408623767722573 0.8101368110171326 -0.45070435687108834 -2.751729586124132 -1.1138286289419268
Ni 0.9626542074217121 3.6819735100281683 7.6458548520129535 -1.9877285957408735 0.20607623236990963 -0.017297096517550854
Ni 3.0980306706539444 3.6609288617428093 7.350678738516773 3.020433520627592 0.01786916697093697 -0.4923677980481456
Ni 6.6629202493225606 3.6209901805451126 11.459041744100334 -1.571220939356152 1.2449026967733334 1.0991782260186038
Ni 4.533727959051377 5.506313763646355 5.501080291901706 1.8548730105290119 -3.075488038399574 -1.1407827889332676
Ni 2.610274796096267 5.68337494261918 4.041843456784033 -0.6164042423064803 1.0898664616993745 -1.309764430443725
Ni 5.7673135529292905 5.689503734926846 3.270671550475954 0.7879667571702366 -0.06075902435592762 0.19117360422646432
Ni 6.706910948326079 7.320445516824363 8.529315648108547 0.23202354836329075 -3.759979977512912 0.09793537629590876
Ni 8.351273308559962 2.187388126867319 11.677619952892258 -0.8572880692738785 -0.9378584719287784 0.06516203851962972
Ni 6.820856642660622 6.543279577798517 11.664611037412701 0.9186142789871857 -1.0706929740947173 -1.8312911094440139
Ni 6.690629036231617 7.549370677689922 4.323766979925775 1.2037871576799462 -1.2635599068632044 0.29945664230528424
Ni 8.354051571337985 1.3810273533999848 0.6533680264545546 -0.3018752790491059 0.6406088645771418 -1.5093591688543488
Ni 7.159306275699015 8.912639301571911 11.499069034343442 1.856610562045409 0.18346775094177437 0.6582934263410986
Ni 5.179567908689467 8.09210108083865 1.6157942501865086 1.8880890922696645 -0.3453855436269148 0.6413362296614697
Ni 4.50789288424843 5.730134674291824 10.967752583856852 0.1384374501750132 -0.2228562800417259 -1.919973599683087
Ni 3.77316698593139 0.5312878371490098 0.9738235621980774 -0.7772380578988227 -0.5984808250588403 1.0562348896878584
Ni 7.389735944314798 3.57292900351798 4.446943706168294 -1.6549329729638271 -0.9664892482915936 0.8290460437090496
Ni 8.123428070435365 5.582665224443061 0.43775637466215583 -0.47275182358943096 1.7119119614520322 -0.1942303887749171
Ni 0.6222930188307311 6.721042245047519 5.111110037021551 1.861139303153698 0.3259554599267612 0.3956822349989379
Ni 4.3584758814223825 7.50428159572765 3.8835701644712297 -0.8212946818984048 1.1399934602627528 1.0058358684100162
Ni 7.763915328893817 8.617672711547694 1.7699075324193947 0.7407551324814403 -1.1229069370941112 1.243386260128807
P 6.693075015089345 1.6323816788854641 10.196539142058736 0.36624233247126603 0.47510695408516884 0.036182620568144135
P 9.015794998605758 0.43145036426366584 3.431147146771602 -1.1024849217943335 -1.6013581250611646 -0.2104226822640634
P 5.897753451862927 6.536643129501511 6.757814075882625 0.4992424136807918 0.6451046955649664 -0.8843823543875091
P 8.246779245736038 3.8585454932294465 6.614954142417068 -0.057724094184345744 -0.6708751196608511 -0.08817521158535137
P 1.2069474996009197 5.684030280350872 13.152595046690355 -1.3402489721858273 2.717087313459914 2.1317648801599027
P 6.243291808534285 0.4169997057743861 0.5884932830604873 -0.37870472660433485 0.8603098868193377 0.3849550783894209
P 4.963186465815052 3.804687807814943 3.602106300752562 0.43842451106247077 -1.2763431746708018 0.5570246147965826
P 6.003161295467663 6.6440815970636065 -0.060459982308590454 -0.8550321833601662 -0.1192739898726849 3.151060987839883
