# total energy = -381171.92192706984 ev
CRYSTAL
PRIMVEC
9.18323137509753 0.00000000000000 0.00000000000000
0.00000000000000 9.18323137509753 0.00000000000000
0.00000000000000 0.00000000000000 13.44058737270479
PRIMCOORD
 96 1
Ni 8.998850288775873 0.6741336561673336 12.209751468078915 -0.5676648681192482 -0.544088880571521 0.002625353437989027
Ni 7.0975632833429225 6.23574458445592 9.800002725677013 0.48641903666387837 -0.07224979860434654 -0.37492777606040595
Ni 6.7153847502882655 5.064680574743639 5.28462355371679 0.4171931124875202 -0.788885412329764 -1.2251023742179545
Ni 6.764625236008982 8.039092429088527 2.9045247099061755 -2.2679323033538163 0.35018836433219686 -0.9579662984222469
Ni 0.5802305254815466 2.6242736149641543 7.15505582062437 -0.5321425068429223 0.8432277345260704 0.0007381637176051804
Ni 8.625799887538895 0.7530681199891205 6.128894016094334 0.38551763576111026 1.2330622524949795 -0.5624591555485926
Ni 7.9432378617716966 8.136728543259109 5.018285054050204 0.04753866901091167 -0.12629464416489217 0.022156481492381197
Ni 3.73837404151239 4.8541733658335335 8.642902737334916 -0.5299578404867776 1.4570567599062068 -1.1915057692094317
Ni 6.198625963925682 5.047471199465643 7.384675170318131 -0.7867470258305225 -0.6142136624130649 1.8255408372237978
Ni 6.075469650236661 3.9853937776932105 9.633419829943103 0.8986270372319815 1.3712508198839803 0.48217877333028575
Ni 6.26278001712317 1.0947880913243142 6.4413745792731 -0.2598868504324621 0.4470963278048558 0.19442013618822
Ni 8.112567461958996 5.258905914727444 0.009136396725762986 1.1200769238444839 0.3624980349374854 0.9997127862314139
Ni 7.094734848131811 2.3943622385180774 1.998668744099157 0.9533851068094676 1.3759999045331914 1.3948610031037527
Ni 4.334227998242847 7.9178737771837415 2.2059765152574737 -0.534047437175119 -0.775758902250135 0.15379927734306414
Ni 6.509423240824589 4.91784070777716 11.872513831894835 -0.6591485752525422 3.320401041131024 0.5323690210314315
Ni 1.6664717835234528 5.791827188010667 0.4208867709064647 -2.2110723569419792 1.2950695474357115 1.593263006757856
Ni 7.655811908289281 7.575421902321516 12.431710166301539 0.1205705971969214 -0.17478976355180217 0.6978701601924562
Ni 3.029006163858065 7.699652654061513 0.265611187755157 -0.03803535750616675 0.2024404353895352 0.16159871878282492
Ni 1.1445336547613008 4.737472863681562 2.940545015984307 -0.42476886795224916 1.152158891980693 1.0143451914326078
Ni 2.0501747329581246 2.4541542568932333 2.560512604062237 -0.9516838078476451 -0.3924454732291951 0.5843243310528001
Ni 4.752340515002309 6.448226188075082 12.616504327837905 1.050683877962642 0.5815683655742176 -1.1991967100957863
Ni 4.050861032953 2.357739512472904 3.877542237130289 0.4448990630432209 1.1193223050666465 1.2861066818154687
Ni 2.911038375799817 5.190426559632446 12.21868950701065 0.6743006004026323 -0.5898450037607131 -2.3395848346937966
Ni 8.400177080065511 4.019766612093181 10.735507671752197 -1.9664221209536132 -0.8056739446420125 0.9491250459815331
P 4.859637388400454 5.7625602301606245 10.441481730002815 -0.03559100973073225 -0.07550892897159255 0.7655112563801977
Ni 4.095234406135115 5.827357109542456 6.288823660820288 1.8243488737982259 -0.802575765332663 0.4175466391721971
P 0.7103908896105515 4.867342119381371 12.100990787626706 -0.15113252914417843 -0.35801840189957695 1.4581227392768759
Ni 4.327377307763985 0.3748301114444895 12.20381083581246 1.1807547013405149 1.040710054579382 -0.03357757884512927
P 7.409839060465821 4.568859555528246 2.2622394178805836 0.18573469259908013 -0.6769789185657437 -0.7876816218296498
P 0.2516058418445518 6.668403339443956 8.64841267605786 -0.6543159297505893 0.08537682290460781 -0.09945875491897065
P 5.00274886349774 4.0712110733030755 0.016809904720584124 0.7461847881374439 1.1264710002962857 -0.6868385849686429
Ni 6.015604166011865 6.104341729144891 1.0852090628544746 2.31719361148279 -0.05910606213353692 -0.5906448739541892
Ni 5.639633497251726 7.996619984765828 10.77042599008574 -0.19781527791269804 -0.3617182193486674 -0.29666416716181165
Ni 3.6309945190334005 0.8874224658094068 1.018476358334649 0.06855666602347549 -0.18913857607430654 1.1998734244478366
Ni 8.776248764368903 8.978748195668329 2.901150790761492 -0.8545521583999541 1.0958293641510288 -1.1701684411842361
Ni 0.041843392985163375 0.16231820316235165 8.198422408816802 0.058980335188950045 -0.4628453631089965 -0.6721660705581326
Ni 7.900085858339834 6.212455910120274 3.435656171427561 1.3590416794122981 -1.1270255872481751 1.1946224604615427
Ni 5.578987438374514 2.015324370535499 0.4133611129340426 -0.1298270827981829 -0.8578382853503936 -1.2790852561923134
Ni 1.3359856589212231 9.174736716043478 10.097267593072367 -0.0016899861079132184 -1.2596117208487339 1.2339199725095846
Ni 4.736352509474564 3.4648239503805898 5.850082851805242 0.4815771351905448 0.36761144490465075 0.15541238746645494
Ni 3.2126432382626104 7.78126402977953 11.368895331063355 -0.967823393721985 -0.645111894653818 -0.3906932664247788
Ni 8.039569957111182 8.571655556354758 10.032162157122052 -1.028371587618687 0.47948631409978715 0.2998438504413739
Ni 3.5013732105761237 3.567474108789052 10.51461147337998 0.5125162479715625 -1.1159608447935814 0.31737697422913086
Ni 1.2694255991480499 4.526139163963014 10.114499008105257 2.028050435288372 0.7351925507919983 -1.294748673761183
Ni 5.410355763758788 0.8592923919825325 2.6556315945595537 0.603387004111206 0.8814135015671722 -3.935909253985796
Ni 4.605730228815952 8.47103489204258 6.791434761188591 1.006121260860919 0.2218959730109856 -0.2399335472389868
Ni 6.094368740056361 2.8963360226407593 11.644011163115591 -1.406164858152346 -3.2846920177651877 -0.27560400405740276
Ni 7.764229135894425 2.9518486552744276 13.201640535429112 1.27778710620618 -0.7366549942701378 0.27432873688940496
Ni 2.2506079372364467 1.2110018822224249 8.188462276251958 0.355831164440271 0.3239399721586292 -0.1377807904276208
Ni 8.544721139230763 3.016939398054816 3.8569378212758365 0.139086910833554 0.10107649302805173 -0.10715509512196385
Ni 4.761340081583119 2.8113544010705405 8.440957973200266 -1.371756041655173 -1.5888350528934896 -2.9773102070755564
Ni 5.050419016682418 6.9636625891441595 8.654757370497332 -0.09262116317184693 -0.6507233273033245 -1.0601043999455935
Ni 4.006056047904254 7.380480270303729 4.4905403681971885 -0.35883524137391754 -0.09751551514967076 0.39946869862456363
Ni 7.20471322504179 1.0315615444785224 4.087175202429688 0.5760710899050725 0.8700219719007791 0.5444568054339011
Ni 4.04189819929701 3.2938413685764076 1.83130711035907 0.6350748221327902 -0.10764463316387267 -0.1534426653345938
Ni 5.714449281878111 8.38474006841006 0.43227765089303266 -0.4382694735418452 0.43283981788584164 -0.6500939212494417
P 7.478722477733835 3.123051634627528 6.129821522446029 0.3686666256420425 -0.7058709190097456 0.44709015715726874
Ni 3.8412537807009746 5.540730097174867 1.1450249576307634 -1.0522522508910266 0.35524083915443977 1.5796919529416409
P 0.6969631689427349 1.6581334095893965 1.0361136721867954 -0.8370097786408166 -1.3665580423940014 -1.1687970147580065
Ni 7.186934489429087 2.070791087013143 8.373902018942028 0.61504412873416 -0.01232741121710135 -0.35008629153669385
P 1.7127828184898042 8.705152188380506 5.936022284390132 -0.28661423912497735 -0.1322338924674626 0.4862981948152979
P 7.711205158917287 1.900671728942222 10.40704644963065 0.3667709512812264 -0.3183974450738452 1.4154056600243237
P 2.90022971267164 3.328756013617468 7.161964365459822 -0.6955654233186795 -0.02825076731557715 0.09512130388588134
Ni 0.8157427546394971 7.3783681271266 3.924973626303639 0.7383835469254703 -0.10018380601045328 0.09865862761517848
Ni 1.4359726802802617 5.154768072863788 7.436529203639765 0.6484823537879476 -1.1735913508228564 0.8998002316044761
Ni 7.299043375978604 7.279510643205765 7.320362247220799 -0.6048674453114744 0.2924616990446899 0.30800607453719214
Ni 8.261886801350801 4.4981394920192495 8.432221047031916 1.0502141374150753 0.06536489855905517 -0.7185012061792464
Ni 1.0743921348182135 0.8208385296351007 4.278273652188221 -0.1202875187388638 0.5470924432845352 1.100296141673131
Ni 3.1779030746144437 0.4105675740015096 3.479123159689752 -0.924605206463298 -1.210823238591121 -0.005712734114061129
Ni 2.2816105257842163 6.5788025525776685 9.60823206339428 0.017802318288743534 0.2243331216975685 0.09563963828319658
Ni 7.5145738123577965 0.47787514879476245 0.8585770182716701 1.3775253400387826 -0.18832147948964986 -0.06514198391497167
Ni 0.25787156049566057 6.94366151157987 6.408310355319829 0.4134220754808622 0.7699937176315836 0.3667203005489491
Ni 1.709577870799291 3.1196262893880973 5.127154096630629 1.452224628624886 -0.12115835137959133 -0.782525274439691
Ni 2.1836989146774872 0.48501602937969884 12.732106515537769 -2.3684729784830565 0.7470371088354102 -0.8127221097380454
Ni 5.525017588583269 5.700610152452315 3.2454310469566146 -0.5519297167721785 -0.4494470874252195 0.7187081799837299
Ni 0.6585983839379908 2.4013139445401928 9.475533454160239 -0.9956877242324206 -0.9916986576776855 0.6327898827533553
Ni 3.3613473011636863 4.645998697649474 3.9332532275579837 0.8080393595503955 0.08712671571617898 -0.3680541888690242
Ni 3.538804060967329 1.426752716150534 6.253259761333042 -0.05165629072371104 -0.809288144355832 -1.1080935262303626
Ni 5.044339717624768 0.3361172819770793 4.601599611419984 0.5886317001789023 -1.3343228365093796 3.407399201689138
Ni 6.64010062087043 0.5146310316924068 11.897393041875173 0.7853192922450605 1.2214845749597092 0.5852517279630759
Ni 2.0909299130455063 6.012105354922795 5.3055108130923525 -0.5584634041256382 -0.3300072613986316 -0.5474254011439218
Ni 1.0801867537085104 2.60970901027317 11.96016042716072 0.4791968078838264 0.9164931188791249 -0.22621414077036525
Ni 2.796532665905819 7.280484065713486 7.494417538186144 -1.4834283079212 0.747602494420577 -0.8913824398544261
Ni 0.0837630067893275 6.704768935015393 10.857977998070213 0.7605467132860708 -0.15933820488342237 0.649830640285726
Ni 9.0711223183585 6.904320549098043 1.5592024598189222 0.13497957353339982 0.9474882817090585 -0.7721009937825735
Ni 3.369079581838219 2.8539645938613134 12.883273521048 -0.2227369808550422 -0.7361168623784806 -0.28860915806781906
Ni 5.053706613453775 1.2753396000440107 10.027726656450081 0.7704547164284021 -0.24777618321185713 0.5552001599933342
Ni 9.18138537543583 4.579787600662087 5.480331985540187 -0.7596234301408531 0.9647966910805191 0.5653824998429747
P 6.333068468765535 8.898945916497679 8.489867862597606 -0.8151091219129832 0.5838916143907557 0.05358101855024966
Ni 3.693532323538824 8.810116521052604 9.1868696011114 -0.3485924805999867 -0.25944744890219834 0.1653746408854894
P 2.7384946446908005 1.503726560110073 10.502327064997173 0.6734328530856982 0.45982405978416935 0.5239106058514331
Ni 0.8193196231938088 3.737997529032989 0.915895074160224 -0.7291748838430087 -0.42105465232545547 -1.1407118264860159
P 0.7773366450943309 7.926138685268159 12.845451465007466 -0.3764794368182419 -0.7328250790010863 0.1976615259436531
P 6.1443989836607 7.09129113642997 5.028110193116334 -1.3230763170612827 0.2336561988707073 0.1721744374161422
P 2.5554820300081884 6.608960283854587 2.8677376040224347 0.42056357162165 -0.5573796841431561 -0.33241561372980816
Ni 1.6215290500066333 8.979188990766167 1.916506374508845 0.09869745127291389 -0.3089247296967195 -1.0072139797044655
