# total energy = -381163.57469996455 ev
CRYSTAL
PRIMVEC
9.28358507034222 0.00000000000000 0.00000000000000

0.00000000000000 9.28358507034222 0.00000000000000

0.00000000000000 0.00000000000000 13.58746514961027

PRIMCOORD
 96 1
Ni 7.171151573834792 5.645301559690944 2.012765686916008 0.37188101881428215 0.38226878980650936 -1.7140035538737384
Ni 4.969586549168468 6.951993985103386 5.510192906850579 1.3793891327203986 0.9213455618754197 -0.34966334506666236
Ni 5.252364545218732 8.540480346566707 10.957515520042206 -1.1470051156938956 -0.6178684855568326 0.9585429968613233
Ni 1.4906095258639138 0.22541565331241298 3.1501450192829767 0.5832881764788018 -0.13502508205935454 -0.6616705703434476
Ni 4.564005292062624 4.946767497484569 2.0355791684489666 0.2643271455920028 -0.28613858504013945 0.5922227599642703
Ni 6.621916123988245 7.728138817072735 7.1061896884979 0.9560917071073533 0.1635537856266667 -1.053193274648057
Ni 7.5959684188531815 3.114995510135061 2.8048875684980463 0.3972534361407997 1.6530905204384496 -0.9465984229049376
Ni 2.7420089196126867 8.496253348103691 9.742280331270905 1.2784496794908435 2.4348910008969744 0.6987800736012353
Ni 6.0002130104132565 5.675278255332647 10.42871881071123 -0.7273455439437538 1.3776096722224727 -0.15749626657867713
Ni 8.88329528616448 7.919687024311906 6.870148043909087 0.37464135516823865 -0.6046378457991717 0.5317604409131552
Ni 0.6611880568711478 3.360704151680116 5.816236495018426 -0.7902349843791229 -0.4227906611799558 1.212618382818331
Ni 6.358995716038818 4.872294579417752 8.114311811586896 1.2665719542166511 -0.17576421164992956 -0.7067754331018861
Ni 2.4499194879078448 7.725047383301077 12.311506882161034 -0.6111478790035475 1.5969376273959657 -0.6633479580458705
Ni 4.75128305024785 2.4797569297760504 6.680725777611989 0.31252067457809407 0.0484822638711036 0.5424282050396465
Ni 3.7599354367144433 5.288839750290352 6.590817042932147 -1.0403701547414599 -0.1421552653462326 -0.42697513157494854
Ni 4.243424538300058 1.4427526457050457 9.603810092338295 -1.2950880593784726 1.1313391270218645 0.5510187749221349
Ni 0.20118549672373295 6.663915062075291 2.140745474911758 0.9076984034056302 1.1738191505629463 0.676957321299189
Ni 8.48272716490457 5.371259417031463 6.666649077828305 -0.30606077788536323 1.5574431688457695 0.12237654005740857
Ni 5.8028347118569625 8.811514607718628 3.7774786270997414 -0.3655391357566543 -0.6550427806142848 0.7424626020908504
Ni 3.4845471742444802 5.929657765174188 4.07814144945962 1.5682785688983767 -1.12650391041675 -0.6788342266069277
Ni 1.8762310754350209 4.492558822673168 7.7656435717097505 -0.994718418340616 0.3394655785980541 -0.3449533411855027
Ni 4.426877459506535 1.4512285587186338 12.31104455963302 1.0547737317612995 0.03333178138291034 -0.2330710157911986
Ni 2.0320931823190627 2.394329381527378 12.451511697677596 -0.6314565086539126 -0.45812481770487545 0.2410586619823655
Ni 0.7041450609198604 2.128651748862687 7.963504616680837 0.1145408460630737 -0.7961269243835257 0.4601063669112786
P 1.3600730385867377 5.479933061869427 12.025708007584349 -0.3688610010410357 1.541660709200532 -0.26539492473488485
Ni 1.268648294492745 2.707019088125049 1.6728750765616967 0.9990440422991633 -0.9923314061656782 1.5986612949552919
P 8.620764788780846 1.533443986591948 5.695987148168804 0.4379740537886135 0.18538527967946136 2.086968549780819
Ni 5.020618415363094 7.189533071936549 2.3778203824999267 0.0988512032419588 -0.14705784485417253 -0.35507551722116915
P 8.446001303040655 4.406212199519408 9.154621980240748 0.21836661970148846 1.375726853377463 0.4372052939433889
P 0.8286258657668465 0.3067844182428584 12.362187828846444 1.4477874187891389 1.7106747466108214 -0.6041665625897079
P 3.870800007588779 2.243071932753676 2.4147096354580793 -1.6782672768143934 2.242803112386357 -2.1551544627284365
Ni 7.545539985677047 1.1459842872106651 3.971968802393683 -2.7400362089466035 -2.1251684578893077 -0.831753929558516
Ni 2.2566352502923968 5.246228095599914 2.026515604511216 -0.5519400011848237 -0.22291438697317092 0.7971597365234142
Ni 7.502677674194314 6.815896630471183 5.064809207845 -0.852554668353951 1.2428216458745887 -0.6118222793627528
Ni 8.071148711953406 0.34677346019908023 13.153956934202288 0.8656768075582059 0.9423021095224287 -0.9661652892932716
Ni 5.410640384176742 6.296266532870346 0.07326326695436242 1.975245118561882 0.0445135090313427 0.21380882512747693
Ni 1.1559455738082336 4.368372307467508 0.21601509524279713 1.019054166872503 -0.2058227215982068 -1.0018612000329843
Ni 3.2821928741818525 5.988070081364216 -0.10888066878123204 -1.5734835101380837 -1.2553537169033282 0.2190926992342356
Ni 2.3310431832649146 7.3910332821883875 7.8835014670891645 -0.45290444984620065 -2.205578166596627 -1.2406480352620375
Ni 4.981673776708107 1.6945234681897208 3.9569275381389017 1.8437182794637732 -0.3576774736203905 1.7222783922880212
Ni 1.5431638999821198 8.991690423455449 5.998268099376731 1.2470565098915427 -0.41924973790623277 2.698743520845404
Ni 0.24336824979179586 3.764113049919388 11.1563680518806 1.835474551397742 -0.14861567625959568 -0.08392209273595225
Ni 6.151284787488962 1.8200282524511633 1.3115096776169892 -0.4145189080894668 -1.3821492119640388 1.3702177506337758
Ni 2.478039466569573 7.666532947677149 2.179375400038637 1.7250999208972162 -0.9418853336999844 -2.1991956601090514
Ni 3.553412807031771 3.360091435076724 0.5545178096545765 -0.9960852167811556 0.037731196002186634 -0.05497121402955694
Ni 5.345200394217507 8.94081637820412 8.578445567014757 -0.37151386528285046 1.8072885758818291 0.21835787795074008
Ni 1.6709153117893325 7.080460232947889 4.1146240813991595 -4.177577267417386 0.7139200145664673 0.8083831160430593
Ni 7.931755684681746 2.429217093581118 9.803369104987569 1.7485823202898723 0.2629631753649407 -1.1853688030737586
Ni 9.1619885048588 8.691997735717607 4.763955143636184 -2.504020251594468 0.12487179567543655 -2.475830933644446
Ni 2.124715508865139 3.6511503888576797 4.277034829071574 -1.4230055838587685 0.5525773776585065 -2.381368860609118
Ni 0.28170017184338964 1.962159937268286 3.805373014648403 1.914485579985322 1.8129617150072066 0.4307639091934194
Ni 0.9842363875001013 1.501656991894768 10.44760533583154 1.1145256550089515 0.41520770662637524 -0.7564190642709425
Ni 4.022920829758171 0.17837480026624422 2.348457331820104 0.7463987039204629 -1.3327758037372337 -0.0006121796627021715
Ni 2.8779391697166914 1.207868664153248 7.774339505685465 -0.8513043408866178 0.3247835511058471 -0.11480772657121519
Ni 6.292423128721797 1.2518078714843675 10.527649333196772 0.27709113012589054 -2.1673525474565256 2.056489150245039
Ni 7.9720650103170145 7.828039474180317 1.0147849519716379 -1.3448165369518517 -0.26113820634105994 -0.07661244644841644
P 6.209845641037387 1.7497422311741915 8.228785840270303 -0.25879464580954786 -0.05093252518380906 0.25777571762673024
Ni 6.78206724709603 7.5359314753056745 9.526497325650606 2.1257978639431903 0.31655062167309356 0.3078322679634892
P 3.8855237732399845 8.38440471722997 0.16815264493298926 1.078162285888569 -1.1781969679156676 0.7623184604745129
Ni 1.2210606382959737 6.9487261632186295 10.352140375589121 1.2439177071522447 0.12985125116789895 0.560334653006422
P -0.041080791540447456 4.68165616349877 2.392521867547372 -0.04835576559556833 -2.7795347812618583 -0.9659814554172397
P 1.7286127919420706 5.670590044958209 5.56829236622948 0.0027353966532920634 -2.246553580567724 1.6572971023206298
P 6.762497450127088 2.004418815732528 12.812517821886678 -0.760099084225691 0.24875037419966836 -0.7662951857340738
Ni 6.220085435181952 5.079745567590412 3.8454567491706038 -1.0324812389116864 -0.17063383240189967 1.0545490173450032
Ni 0.9313199535708002 8.62739326839936 0.7859427274726801 0.29659937536214726 1.0709953358264845 0.20202494511867142
Ni 0.14847144494524916 6.307852446825394 8.459542339975616 -0.19274043449295192 -0.2736656493841093 0.5572585851842597
Ni 6.0375701560503625 8.902438038228027 0.2094061111525744 -2.476991015390818 0.020169790079655584 0.5096443257404062
Ni 4.163455737972514 4.592060285630054 8.783874590396223 -1.7088184101283732 -0.6212232609616786 1.0256143365885242
Ni 3.86312248287658 8.715847265325392 6.816504705282125 0.9505381242789759 -0.22024738166396904 -1.2688766910904277
Ni 8.44033831625173 5.253664247104716 13.539677818131823 -1.255768950063876 1.344595164969665 -0.5001800950037127
Ni 7.359357690510006 4.131473787992436 11.520811887578107 -0.26338329362149476 -0.9300122364114821 2.0136201187956546
Ni 6.975694977352773 3.101330073162441 5.123330141978356 -0.620852250775505 0.39947846881657656 0.7321869311964551
Ni 2.96664382343502 0.9520316314824268 0.5181660762621266 -1.7901938251830718 0.8808103207655348 -0.3643458867795016
Ni 8.517837682995907 6.066070761692986 10.728145987920936 -1.6039397697454119 -0.2904397835186546 0.4150539546573303
Ni 3.6835965180827515 6.508238626889247 10.670086447957102 0.6466879808916862 -0.12696081699398135 -0.37211987429796556
Ni 4.980476194256024 6.6896213086630505 8.096715704767668 -2.0233093210589606 0.02684900187204408 0.703122409730331
Ni 5.690512618153346 3.415105959193397 10.09187228784559 -0.7712653852551555 -0.8562187474690997 -0.9364096552973938
Ni 2.757466088470983 1.1870177324681233 5.053205655078643 1.0219548854590659 2.9298975221195476 -0.2052874179200271
Ni 2.9392758151501814 4.3181945310836705 11.116122782981142 0.7933560465066078 -1.0702422597105437 0.11899322540747248
Ni 8.569584385227822 2.7017181611472187 0.47115864412159747 -0.9812941745149101 0.9432655018769627 -1.398922574767636
Ni 9.277736241390471 7.671657486541882 12.453224519091622 0.09235582532560223 -2.400833139981317 -0.4653056517240309
Ni 3.344847788671125 8.423070848337957 4.410314615686664 2.0348396902960633 -0.06219369991992514 -0.049227883787876514
Ni 8.580975343899974 0.8851424739203201 1.8820128921106647 0.13817956852793623 -0.8368421427147006 0.3946885036271009
Ni 8.123619533807513 3.375446484501121 7.3350569786760875 -1.4176641170411972 -2.8327576451417404 0.13518371912440588
Ni 6.013237880027784 0.5369458401560886 5.842704923926467 0.23738866932994598 0.12546546339537745 1.5588382494210833
Ni 4.129505667993662 3.64586802904965 4.726331559112451 2.514095119331967 0.29887197344640787 -0.10072759432906522
Ni 6.996722297150995 7.38100701049652 12.375164423819493 0.18788387773159898 -0.5783868825224426 -1.7778167916749577
Ni 8.685081464967197 9.15289987524182 10.555449028179455 -0.8104572249632687 -1.0890606779686276 0.3279812321075384
P 7.608631228656614 8.048608167816504 3.1295735235033386 1.056423865770213 -0.48125420463348734 -0.11521138976753706
Ni 7.9692799348470515 0.22202900154093771 8.361005441489828 -0.46419647782025214 0.8700533393593467 -0.5875618641534913
P 0.8963134116303425 8.910728279543617 8.484352720620539 -0.1694513820580243 0.812001429521937 0.2900844570617649
Ni 8.953442053667954 5.1716159237595996 4.518035764713901 1.0320176690117064 -0.6745924206114382 -1.8212028719700764
P 5.712811789082852 4.799279184180216 5.847066352112429 0.5262104576292034 -0.051430033645517875 1.5866035924598094
P 2.289629111026561 3.0900876518486897 9.368720015201719 0.5022614030127738 -0.8507898631440445 -0.18385701596039306
P 5.215415877317221 4.420889547246114 11.935323953357631 -1.5730050278397683 0.6234588351604166 1.7215109179943768
Ni 5.803698085252651 3.8441932532657304 0.44142146497031026 1.6073745064585738 1.0654162990768101 -1.7039163448410657
