# total energy = -340860.5336108073 ev
CRYSTAL
PRIMVEC
9.35104987945939 0.00000000000000 0.00000000000000
0.00000000000000 9.35104987945939 0.00000000000000
0.00000000000000 0.00000000000000 13.68620671719860
PRIMCOORD
 96 1
Ni 2.3653293200645944 -0.11481218824324797 0.7605236775924279 0.9664730503416775 4.219944676640003 0.24974127735802798
Ni 5.1699709551371535 3.962404449747976 12.078556398459678 -0.6686721984722612 0.8244936484516767 -0.6600008959505085
Ni 6.603636491275108 1.471780414724001 4.142349504481752 0.24886016030465527 -0.1971424202153895 0.17615784754392244
Ni 5.3742820400798745 8.081092993168326 7.266800779788419 0.011616244082689672 1.8433236151285157 -0.1451241181665694
Ni 0.17390988725599457 4.375459017192247 4.051075778548807 0.49734159711365317 0.22350882602406022 -0.4692332689132112
Ni 8.065439335966893 9.098674221758507 8.874820378043221 0.5129584777153037 3.896918731655211 2.4828621294596145
Ni 0.5210479702446955 2.241381156262326 1.0308625244821739 -0.6497208541807391 -0.0899623853927612 0.5651120197904074
Ni 2.2818712014727236 1.0103154629715947 6.279765690155347 1.0480410410231564 -1.2411681694315657 0.724242736648714
Ni 0.08420900788295496 3.047338779042689 12.203155395321218 0.4557100376157958 0.2560726188926945 -0.2506087675646458
Ni 7.014110169001579 1.0196291084749565 1.1236744980911255 -0.21004267321682538 -0.03087792052577908 -0.5356775165793741
Ni 0.5793115556240085 9.442128926269524 4.525138464459977 1.1991594290999477 -0.8286063850684696 -0.6535381710443003
Ni 8.18838693745103 9.157277250242009 2.9143275778690767 -0.34391255862581416 -0.017543408200402042 -0.34887350217551527
Ni 4.489354802564682 0.9026287746014007 4.819611435526054 -1.5881349415026713 0.35557842499951664 1.2318080683729042
Ni 6.898157152694666 2.0614950131416743 7.933510986348792 1.0155206997979478 -0.999099835237763 -1.4247176814538691
Ni 0.5363883672811061 7.371825224308404 13.069862112491732 -1.2191595263709585 2.054462863843629 0.6158609682085007
Ni 8.65305929925128 5.924432347207664 1.63498147986107 -1.8977626108036865 0.3960293339257115 -0.23068477494720915
Ni 6.4881136232544945 4.892955458760058 1.2468530705029053 -1.0121584681939342 -0.5735053860604251 -0.28358008028434384
Ni 5.8739834340644554 0.7016821973415208 10.256306121738094 0.2427674171433561 0.9830381537892101 -0.8191346981326086
Ni 8.450412701155546 7.041368478883405 8.766480986403815 -1.7452298588778719 -0.6326608133746588 0.42407235610585675
Ni 6.188122597759167 7.8816912093192455 9.683620719933042 -0.0968853377648396 -0.7623925082455579 -0.5951458471483363
Ni 4.67672178544707 1.1249219281213951 7.71191729134652 -0.3922845221712986 -1.2425869041559634 -0.45647442658564613
Ni 0.9824586859088292 7.944548965417234 1.8041840486969922 -1.9840084665768087 -0.28821757905635526 1.2533909367500027
Ni 1.1263152345270184 4.279442438850361 6.703832053728894 0.30074065122403043 0.7328394771787895 -0.2927715169756248
Ni 6.003027919954405 3.911057835833359 4.255137190464479 0.4028759245338997 1.0543304735762937 0.1932885936869381
P 2.066142484843653 5.9674004205891364 12.498613031920936 0.4217239104783382 -1.0324699260577768 -0.9818585316588122
P 8.658174323438367 1.995850644232438 3.919524276233704 2.181802404333268 -0.42081708239335264 0.5087228423674013
P 6.5201596705838325 0.5719064593648598 6.4287671863196705 -1.3764511331379972 0.4140267989443966 -1.0906061680788766
P 3.5290768065494005 4.362208579764271 9.546909308392284 1.1241585501130251 -2.415181952503821 -0.3215419042400979
P 4.648519019545324 3.445777655802467 1.2746406497978748 0.9795388823867001 -1.838191436108273 2.0553527226477506
P 8.184440794476712 3.872522160010715 0.12870597789073274 0.6674465535952763 -0.8076272117136414 2.2086478066608866
P 3.945161114097174 -0.073235551057458 9.375229646490256 0.3484886080322708 0.44773344716822244 1.205786190387846
P 0.9941662001359465 5.961107164139577 2.731561311440157 2.434480138611801 -1.0467570321044102 1.1344205941606658
Ni 7.703086160007791 3.077252787039932 2.4999227188478135 -0.23608537713749017 1.0872729899405855 -1.6404746314466523
Ni 5.746182637784893 8.3205359718421 4.913005979531452 0.8875149864792199 -0.19166082827552797 -0.6161602446164743
Ni 2.881722337767549 4.814341183913911 4.28939382594341 0.4574730430534895 0.46566200662218515 0.7033666645306532
Ni 2.7052493277881897 2.364291353547653 8.786639979351754 -0.4557136371602217 0.8825972374626284 -1.4653632228893732
Ni 3.488988856476196 8.182467722989555 3.748515084595322 0.473265787111372 2.3601683152721034 0.4959128350869266
Ni 2.799311536742322 7.236534237217403 0.3012898862989596 1.5226592283973648 -0.9888611882288906 -2.604286590016399
Ni 0.08050973262077635 5.472711189244919 11.865352465250195 -0.38908401295612993 -0.5987937283135688 0.6816791522548905
Ni 7.7729385012830035 8.31777741217996 6.915202246091782 -1.2761223169092473 -1.7798847299475797 -3.033422476688092
Ni 4.094805962481007 6.57998768657832 5.7773309843428216 1.2783326942970048 -0.9885603691590199 -0.8104024604659334
Ni 6.341844503813146 0.09199001634013093 12.465383141699302 -0.3512180911482919 -0.9661408638132395 0.8225699490664028
Ni 2.4096532956528818 8.061773724483642 8.424010947426437 1.696319249220098 -1.0092279248107006 0.4100863262394099
Ni 3.136800271543353 6.576499745039409 2.322672636638204 -0.17501396374746633 -2.6259363070756905 1.175230429088176
Ni 4.212301901988778 2.251143652151392 13.112179352813934 -0.42371497276643805 -1.821027779844793 0.8756799415175047
Ni 7.067682332745313 7.012221256961741 0.2011868992372256 -0.38511911477111094 -0.16235976531856552 -0.2642690386605578
Ni 2.8347520151135472 3.968576142551409 11.682340266214108 -0.7918144130511009 2.105907552777167 0.3824456817040059
Ni 1.8396413589576817 2.445065720875001 4.478372929794453 -0.9540602784996214 0.12166614425394529 0.04852391574231643
Ni 5.04742544879021 7.994156284087248 1.2698800303945 -0.5451821136356998 -0.12690656671727824 -0.8000396291743705
Ni 8.328147726299669 3.4973393438602343 5.883563584484328 1.344409788431736 -0.18307642904062663 -2.066202777988377
Ni 6.933999726203085 6.121412209183883 5.352236940407008 -1.3625293808505825 0.03077456217869539 -0.6242247667921637
Ni 4.131714555655473 2.295897776025979 10.70927845015099 2.1501652370439617 -0.3284890249818923 -1.20739775784934
Ni 0.9686658875981279 4.643684526849301 0.7092537422853682 0.11326197935065009 0.5442626871452239 -2.0851232690419637
Ni 3.303688455577988 4.851100160293143 7.052666417133567 -0.1838531593056511 -0.4654899998206951 0.2873925120518986
Ni 1.9905111948524987 1.899095332964081 10.941205055074159 -2.261407100640789 0.36042109780379866 0.5442644869174369
Ni 0.910320948086406 7.3091825423535655 10.323833792057346 -1.381623421367556 1.4726301888644315 1.2461769355000667
P 5.704607870809043 9.382843271157764 2.7576610262638845 1.430954149281884 -0.7375445959639427 1.671697851126992
P 5.158553323450803 6.330090234337517 13.042325141328782 -0.10012364219647918 -0.438814804522354 -0.45395885925264395
P 0.8889753069312616 2.312523942396438 7.16271705086847 -0.5566505192866155 -1.211264697003914 1.019061623071671
P 4.147199893962267 9.252611201955636 13.049661039820133 0.25126079932634793 0.46807627249063255 0.46570648670687537
P 8.884170492640422 7.019898468767223 5.064580884573812 0.4832632646437161 3.082972262591761 -2.523521811962506
P 2.0318802387349004 2.6415125730181965 13.164173059367942 -0.11068599109335776 -0.5520562150477137 0.8688058401054909
P 0.7089348714905243 5.884091918792501 8.72725613821812 1.7552651316266865 -2.0913867334531724 -1.093198354286085
P 8.415551987865854 2.878627140316131 10.052572931666969 0.4817465708888735 -0.3729719378856157 0.6589526571916523
Ni 6.7584150659454325 7.091275031143889 2.9668552293610784 0.12783036408312823 -0.07517777088441892 -0.7639256570606328
Ni 1.8094748726184802 6.945838155126032 4.844793812374 -2.0344519679393414 -0.610955046266451 -0.11815890243163521
Ni 4.053876417934607 2.8664333715045007 3.545097024899159 0.3970552040870646 -0.022155453051116682 -1.118211588500971
Ni 2.0663949631856116 3.6387926727049655 2.343187904579795 1.0674341008377872 0.02127613576995691 0.44080586681045375
Ni 7.282616210149699 2.2536123292727646 12.24671819546375 -1.083283152054902 0.19204160865371442 -0.39438022835806275
Ni 4.431060358721352 7.866411594105899 11.355007706494602 0.6542783916444345 -0.7591459762838023 0.5069858050716366
Ni 4.796546136330681 3.3375860107483555 8.002899515558777 0.7837316360429664 1.3460596653303334 -0.8990890644700644
Ni 0.8479101721641804 4.113938210171647 10.137222373990895 0.8129010585180708 -0.03076402065573411 -1.5872941907689309
Ni 6.472085924064975 6.025788374929489 7.874276762010394 0.3877681223581838 -0.9206850454732853 -0.4569302831761421
Ni 6.43225980338343 3.2407932952811898 9.643054931220057 -1.5681813811988798 1.0179555344916857 3.2390145703327318
Ni 7.600140453836596 7.220141847089498 11.522540177853717 0.4580499986028821 0.5795485069307116 -0.3283054482161766
Ni 0.8039050673707369 0.7606620731280201 12.878227310525274 -0.3797969312272491 -0.4462360366870896 0.13469083864838738
Ni 7.89907481071558 5.195779852315144 10.099900464419592 -0.1277915404253928 -0.11276575644052192 0.4517621087116413
Ni 1.2033304798740936 0.5996762716653952 8.987991457063737 -1.1267088273387047 0.4061242562678683 -0.013690353002899001
Ni 2.41197235597902 9.089669160895317 11.098733773461891 0.248345682562082 -0.8753760371238408 -0.02886603230207287
Ni 4.296190168866948 1.166029142612136 1.7180842585642582 -0.6474801377756785 0.45452373061717843 -0.36328479250483886
Ni 3.629525782450115 4.945835644825832 0.367327934400657 -0.6936802904808247 0.8788269717869187 -1.0031040713011499
Ni 5.494620698697104 5.618671724046096 10.16615545687438 -0.8353740428096065 -0.1085792291630001 0.1859167267028992
Ni 8.544110219171293 1.2931005570149292 5.973673104729353 0.014346755639975292 -1.333693944676129 1.4682454295331746
Ni 0.6079893548506247 8.484216745828892 7.164674225571135 0.6928603656826906 -0.026959816418295503 -1.2360935831221356
Ni 7.074854587866878 4.817623402359373 12.358931726994765 1.2372827183342305 1.9013577843541127 -0.526777385876267
Ni 8.186067877124891 4.156924985652525 8.041604445381031 0.46008682652725275 -0.6848536933281302 1.533566876448804
Ni 2.8348081214117604 6.200017132980327 10.097984434335618 0.8391790183779935 0.31025553269300116 0.5986358625794658
Ni 8.826409058630114 5.894172350371441 6.661405406125176 0.7842301729459397 -0.3536534400626619 1.9614969157378541
P 9.14160489094117 8.908137233027084 11.541194586904577 -0.7012197933909795 -0.9954408983289373 -1.7090855477468307
P 4.9723084665326756 6.18637395146486 3.82614282369789 -0.04612070561746251 -0.7433827999122746 -0.5919237406666128
P 8.299140770123534 8.612541200891775 0.6441330321594536 1.0842156911715006 1.1505992608030573 1.0003193094671612
P 2.986397988133645 8.221012749861902 6.149485930599739 -1.2623738569749035 2.7320470200935403 0.1943363182251621
P 6.543967443125558 4.187652534973856 6.425988989453155 -2.2880262458902143 0.5469183796005161 1.3800830734636296
P 2.193475728638107 0.839149173698217 2.961037941341359 0.3079196854709729 -0.3574368183644941 -0.37500388071398
P 3.755475070888648 2.928393426831082 5.783215599920397 -0.4028306731182611 -0.020849589755499578 0.033100124988078475
P 4.382360091872448 6.51881311942672 8.075327135921967 -1.4213654771521844 -1.6388725770668546 1.8457625635873116
