# total energy = -340893.3939259878 ev
CRYSTAL
PRIMVEC
9.05953243805805 0.00000000000000 0.00000000000000

0.00000000000000 9.05953243805805 0.00000000000000

0.00000000000000 0.00000000000000 13.25954147467391

PRIMCOORD
 96 1
Ni 6.218462990086722 2.214113462886414 11.336470023984573 0.14376066216013952 -1.300246977871593 0.9234800917199192
Ni 4.651689350180576 0.07253786344555123 5.87409657699278 0.5273360865932144 0.9129550238188793 -0.3928347382478138
Ni 2.9092423188980163 1.5834612984547167 4.842397941408898 -0.3653097933546676 -0.2901873011882164 -0.8527194760665895
Ni 3.5535109604190205 4.328010379158114 4.828872965596106 0.008849479970829922 -1.1131719691945343 0.36909702831124175
Ni 5.071290649494179 4.388292507270056 2.6971631968606693 0.6405541000798065 1.160702153565014 0.5591822845695338
Ni 7.286500315792307 6.177178701267046 2.9023806291126264 -0.7189179820016909 -0.6225239820509731 -1.3932556062898456
Ni 5.168454133714284 4.565107399719827 11.612666174168396 -0.3857096971672583 -0.6978015117380498 -0.7190377954090069
Ni 5.304328999572852 8.047718460138237 12.36421689156689 1.1812473247062174 -0.43188748127490134 -0.055020579210253634
Ni 1.694340914619739 6.484595811760363 0.533108179853807 0.22065747261819416 -0.6852509287665488 -1.4313007339880253
Ni 2.360424909987085 1.5001860772937652 0.45211686679279844 1.3149323477979094 -0.464644106880632 -0.5297390396077523
Ni 0.7479477413915613 9.286473613036705 4.835383145527161 0.019759699125430488 -1.0643402924038121 0.44461392770263425
Ni 9.008590577933369 2.289787736423993 1.35975245476764 -1.4510576048999784 -0.40734527315916297 0.3539637722142291
Ni 7.063137546240168 0.4104792562123227 4.660861220709662 -0.25652076217370656 0.8120973316698529 -0.07767534049529204
Ni 0.783308002021817 7.30536226209965 2.695373033272614 -0.13382437688303403 0.38660906905307607 0.20674909006721812
Ni 7.651835016459901 3.7844837371268603 3.804560566719417 0.3233625023886044 -0.24279955593287217 0.27204868260597664
Ni 7.474630564120019 3.8560268639227733 12.621386211954995 1.4409212877969249 -0.43717598336735036 1.0138764793263055
Ni 7.948000187801576 8.895853757641062 6.920751594497312 0.559844600743881 0.04671848710246147 0.1969588434496737
Ni 6.535863705205732 0.6946668198628637 0.3482819429661959 1.0288490414757379 0.09682645950244614 -0.2920274397207487
Ni 1.842201541748535 6.580164818290703 9.396267897228807 1.0137332688802219 0.2148922879996428 -0.6429177152159766
Ni 0.03629520436652744 4.927443395186783 1.5427477601717188 -0.4048970687289865 -0.8280962782012705 -0.26621690641554796
Ni 6.369893072952834 1.9370457856926169 6.880867003422346 0.1095775885205274 -0.11109736759916351 1.000751254798257
Ni 3.4580416087442916 4.322384409582293 0.279416813926503 -0.9650406887705251 0.19391928529240152 0.5299349576686422
Ni 5.999865534539224 5.622970870620827 4.894242927063573 -0.004498144980669673 0.1411815885790536 0.31009278186289174
Ni 5.297951088813789 2.9826788879505264 9.229780871633201 0.18825154548366288 0.15495858775848798 -0.20821539020009946
P 0.16413698290966666 5.434369526612048 12.376151013502847 0.24123015456322325 0.8887462877831596 0.5013111232843624
P 4.05128696419279 6.149936687556104 12.652532884099399 -0.5624848665802055 0.4118678436198649 -0.4544681947888947
P 2.1725936262262047 8.398530730483705 1.2870515197401808 0.6312130251845387 0.8776879730864691 1.060381050645748
P 6.442006950285425 7.684585225826399 5.841941578900246 -0.6987129678087257 -0.14230387510895492 -0.4468803551393078
P 4.523107407846223 1.101584773916965 12.721323724973999 0.4363285477653905 -0.189487474773293 0.314634121376671
P 4.133683410717905 6.25414848792756 8.351097737072868 -0.8109886719867065 0.6479974437317292 -1.4003657349720657
P 4.9143433114401835 1.1155092751054314 3.8371920962124144 -0.982142124337502 -1.363066484300975 0.35451810205580236
P 0.038833685324893265 5.466820771411714 3.737122314021418 1.613661625018866 0.31041905485405896 0.16546180128265695
Ni 1.753608375110921 0.9956154242738351 2.7036733767917243 -1.3503963450324743 -0.057445129491346225 -0.061118464577875384
Ni 1.925576417765097 6.194509586610922 4.7804887212908085 -0.34518345491843777 1.0248890283867254 0.002796846018846796
Ni 5.992817218387873 5.5952305826318325 9.356714885037054 0.6819799713247611 -0.035817009698609285 -0.6139118149019298
Ni 8.551582469636566 2.241273940806402 10.119443253422098 0.11303932181688274 1.0535750834675082 0.8094282694781222
Ni 2.418686762389835 5.33275781201879 7.008661672397379 -0.416784821305508 -0.7153968562223099 0.616487546048906
Ni 0.42148205822493967 0.17694263185559844 9.327331197883721 -0.6561496405252184 -0.6284233782545435 -0.874446583331036
Ni 1.501898328903798 1.0415653722425413 11.384827995646118 -0.0004468577294314885 1.3628438267672078 -0.09463305139555316
Ni 4.116615251811547 6.972542222958019 1.3686362321686876 -0.04727230272340246 0.5794729164977699 0.7390805729924949
Ni 5.671702095014295 7.858455770269499 8.008776060425406 -0.32525174899151726 -0.27200497385223477 -0.19824259525810375
Ni 5.496644751836198 2.885669415780001 4.8461630830445035 0.03491198138583665 0.47214632879494817 -0.38869371949624676
Ni 0.9897810854544647 7.685418702800594 7.223705073412518 -0.6775036807209622 -0.37456499340434846 -0.40218146957003637
Ni 4.91812113642105 4.615143196768558 7.0479238736013965 0.8446778367090355 -0.09964593122911225 0.22056517001470402
Ni 8.262655864625136 7.174098698196144 9.035489235369072 -0.5408714020754879 0.30142585021651314 1.1407539925778614
Ni 4.3968718843848755 0.7264920509786499 10.473804142580526 0.5013147228287883 -1.3788916242586897 0.37325707322620233
Ni 8.353849117040948 7.2822966927920145 4.7659699147816115 0.2168445266300072 0.028343841250015697 0.7939746539272133
Ni 7.445712536928355 6.181844360416077 7.076299234806599 -0.31571552736630787 -0.4983191305355741 -0.9354341787580018
Ni 2.5035926993698654 5.305977834456586 2.515428072403445 -0.16426572409202678 -0.5791507572716607 -0.22252332218233936
Ni 2.2503606517316017 5.178111595176161 11.41379947407852 0.057225557281372415 0.45125714405076484 0.9313957470225701
Ni 1.2619928533203386 3.432629620563649 3.742307084372855 -0.7204426461763335 -0.030697943304489068 0.34864081733941893
Ni 3.4978582533267963 2.6660482330794153 2.5832767219159125 0.3972675772081868 0.2782990343910626 0.4635860979297629
Ni 1.1641227255786326 3.142543395414207 8.245419198417475 -0.5384774479220146 1.517506994772464 -0.5872165649989306
Ni 3.8696614600767365 2.4716216097835946 6.723369751756028 0.5235156844058597 -0.06553639113991294 1.8753495332158088
Ni 4.077731739058849 6.8559279228292365 6.151618136756221 0.755154595736222 -0.672874409479067 -0.5921674812463027
Ni 0.5502614983640491 7.606917855176612 11.508499671458582 0.8635564187810933 -2.137993634678434 -0.9292409054630965
P 0.4579086258102263 5.69512098608273 7.9110400137621575 -0.8620469241151025 -0.6981185287578364 0.3363298611825498
P 8.395749454058942 1.7716277849117408 8.000237451206063 0.30253888077503377 -0.6431396014187956 -0.48713226068081916
P 2.013399524154812 3.2791249047943754 10.264489083856517 -1.6294913929622712 -0.32108990430434375 0.425380533394319
P 4.0150669539445865 6.1239630083711125 3.873735531764735 0.6537705987700805 1.1491959526976272 -1.077638552174615
P 7.083313124735103 3.9773611803945554 10.441570326556736 -0.44227833759092217 0.5428226122645877 -0.8857075009568358
P 6.329985833047048 7.710133106991965 10.212565280270585 -0.3569200266290756 0.057554658486017006 0.1270330649928135
P 2.4655879612530036 8.296529456000332 5.8018585840672925 -0.1400058231033976 1.0033200439666978 -0.6835321463032292
P 6.97974455115895 3.764480289746161 1.6790692609740674 0.6743749052839935 1.206534124297464 -0.5210019168450705
Ni 5.230403215774618 2.990080525862678 0.7873086914979567 0.0610421028139852 -1.2982800839532092 -1.6204007435149126
Ni 1.5881088385390911 1.1044022884710398 7.144174156962818 -1.1545896129093727 0.09384809360041256 -1.9839776133388736
Ni 6.779701017819636 0.5773504059786445 9.037902694781309 -0.01748967214433117 0.7338452927354846 1.1622612705220177
Ni 2.5241487782225844 1.4056860955781554 9.184167938267105 1.140643692252242 0.7456705675051867 0.32972649693341927
Ni 6.471794692580596 1.8331601284849763 2.5796963947398015 1.430842563404684 0.09368868520441284 0.1272248692886454
Ni 4.208922826703729 6.719853747259448 10.556305679680648 -0.3694976061837701 1.1422138649528393 -0.23912519240507848
Ni 8.275148959705744 7.226191009083379 0.42069116105268656 -1.0838598504939787 -1.286154761444585 0.05617191920587746
Ni 7.7081490694120856 4.048668759349935 8.22070388827287 0.41050001673806075 -0.6348177118166616 0.27417935579573427
Ni 2.922460176564882 8.27857346292581 12.38214389413796 0.05948427140856208 -0.11664837932437976 0.18591287004815724
Ni 9.290188021291273 4.959369187111412 10.043996374145957 -0.9763512286873378 -1.0501282625694883 0.3796796889230945
Ni 8.594153212046848 2.221632874718832 5.715578316033072 0.2543348102659813 0.6240105938988286 0.85512422885334
Ni 3.465986818596136 2.675388610909805 11.69787198166849 0.5924626438892183 0.6137819741922848 -0.005808379151660965
Ni 1.0686896120332168 3.2497448414539742 12.570641959478197 -0.46472509663021255 0.9268109558653652 -0.5985121925174081
Ni 3.1799864425267192 8.529305079641487 7.851796108055028 0.8157004756400792 -0.8537270913954973 1.4059203462417076
Ni 5.524539051874772 7.853790111120469 3.579280800126628 -0.2581282158701425 0.02786330206917137 0.46379127196203346
Ni 3.09426514763715 8.311396148550934 3.6233554249033935 0.10332595118386075 -0.5058123535888257 0.20881420012636295
Ni 3.4891158046300688 4.550403778751134 9.37655073106968 0.3261156396537093 -0.7791946674045612 -0.10367022189715694
Ni 7.23938168815326 6.072423328955897 11.483942903129723 0.7949701850712632 0.3932923946105227 -0.4412198144194208
Ni 0.4576893851278835 0.01103088656283449 -0.032463928144925346 0.11419374713630011 -0.09660483040994332 2.197039790108313
Ni 4.470507763148606 0.5967269337222307 1.7210882778655607 -0.46957985361935256 -1.05270759326089 -0.24290008606647845
Ni 6.108860767979977 5.63432246462808 0.3018708648019837 -0.26968635302138716 0.48599814707637595 1.7741318866242026
Ni 7.745900140623757 8.913193702517265 11.336032448573121 -0.6297945475704573 0.6391181389642283 0.23651603691700557
Ni 0.14535476048681148 4.758310986151338 5.842816729723152 -0.19524366053077985 -0.7419306408467803 0.5740365759735468
Ni 7.921229269771701 8.84653366364626 2.237428169333075 0.669809140290182 0.483926866369644 0.6161021376850292
P 8.725996586019361 1.6378094328916781 3.628208616371618 -0.4517718789036542 -0.2669476139339854 -1.5284411251864645
P 1.8176230305420877 3.3529782123339835 1.4740900944223423 0.10604874943166252 0.980358292964202 0.283246351094009
P 4.674401597727412 1.1054803728180975 8.324446404869725 0.42628247638329814 -0.35912191937640087 -1.3293377245899622
P 8.587557872511908 1.6387516242538123 12.357932293990807 -1.6516483886752846 1.1610433389545165 0.006816251590885035
P 6.288321043869587 7.568097759150211 1.5494835224577468 0.008376911209785573 0.7931259327736727 -1.524553360096284
P 2.0000457735030235 3.2861822804780547 5.990064026513328 -1.143766811262256 -0.19669119161058382 0.2929273258271987
P 6.951977084572971 3.9732934503791872 6.156749455866922 -0.1799797923931739 0.615957384577049 -0.7841964914945269
P 2.255524585158684 8.47091639378614 10.226805959137307 1.0073461344069554 -0.00201600198876427 -0.09109752743846891
