# total energy = -340878.0363169976 ev
CRYSTAL
PRIMVEC
9.16407900992673 0.00000000000000 0.00000000000000
0.00000000000000 9.16407900992673 0.00000000000000
0.00000000000000 0.00000000000000 13.41255595032989
PRIMCOORD
 96 1
Ni 4.711161487949114 1.85045669718167 2.6482823507773414 0.6148536099899088 0.34133708458915407 0.7810805715733644
Ni 0.5439320894880703 7.2191133771708635 2.128371145749603 -1.0818106812744337 0.8192982202936664 0.6952977714795896
Ni 8.782853527690541 8.216485939447784 9.133910158171986 0.5668678261392496 -0.9074677754520629 -0.4992902361995917
Ni 6.351861575786764 5.852355109557811 4.017087873688898 1.2476404074194705 0.49589946535048784 0.7503741436284432
Ni 6.2192390212659605 7.89168347953341 5.367329721317648 1.7487571553048398 0.06533507376238426 1.0747566026411297
Ni 8.404670306299959 6.646706660719897 5.760370664353101 -0.11761305723049423 -0.7522813879534851 -0.774451239182305
Ni 9.078175144743291 8.870645406650553 5.52306225082398 0.22162292185525703 0.2786695303566039 0.30748002683039305
Ni 5.219612095500088 3.7644571196982795 4.392035258705703 0.03570799492457076 -0.5037582992732743 0.00989026253051845
Ni 1.8590251112555336 4.2419972880287835 8.888312834985314 -1.759590755585234 1.1417500379425432 0.7172328809897842
Ni 8.379414103960315 7.146634674593126 13.378609016755822 -0.6524377388912699 0.9544024923303885 0.0069453209695815865
Ni 7.8044322812475775 4.091807193636754 4.880547579090363 0.60075548002563 2.548092045102702 1.6528719766697406
Ni 5.926034306513812 8.200989481481043 12.518179872353532 1.4228973404156784 -0.44386959333744197 0.6190437368118565
Ni 0.40975164149929216 2.8634448504552354 12.212401124498978 -0.4016762477988437 -0.12191014194395132 0.2573615129074471
Ni 2.678825310420956 5.4060736154582685 11.101613001345545 0.42292384432371033 -0.034484664040430935 -0.7212139771247192
Ni 3.279484883117613 7.184216563488221 6.605456390911683 -0.6245487257904856 -0.0038083180024966676 0.5023027977736704
Ni 3.275370211546314 5.267604378392947 0.017603279780196955 -0.38767710530627425 -0.08511585593373729 0.8722516325622461
Ni 7.680423961196755 2.185999457945849 9.020426783109219 0.1593027236597966 0.20652951785724433 0.6203130904425833
Ni 5.736356194748225 8.407465350463092 2.9775468008655803 -0.006623933074420851 -0.24799267009803744 -0.46513415914317313
Ni 6.411941279175265 0.17669994276943185 9.623817251414446 0.505381179588678 -0.05577314110556201 0.6715510626819531
Ni 1.1949501103330638 4.289916258287854 1.0881262716419293 -0.06762489823782547 -2.050778473013507 -1.5908597966330023
Ni 7.77418165573119 8.906504448651653 1.612229126506443 -0.7692144162633978 -0.2947165565171376 -0.6678535592257079
Ni 5.943601846385039 4.10506761627299 1.9509637360641263 -0.40087432072283863 -0.9301611032845207 1.9621160373790918
Ni 7.602052755678382 2.4335395659278785 1.5853105601956767 0.1015601175326896 -1.2671085434464113 -0.5705470747630496
Ni 9.29301781805629 0.17531799962254563 13.266601058448021 0.4622470674033652 -0.40295511451126725 -0.8916498345831999
P 5.792724446051256 2.2998173219002696 10.238756292356976 0.0681630301294826 0.20169455836244618 -0.490785026942058
P 5.000022429149378 5.85224514060713 10.731963370527778 -0.4301545577441947 0.29684825814815974 0.17467946322618302
P 1.4339126401620061 7.254138487962635 0.11609788686519817 0.1955187685690375 0.19725991962986028 0.0813299065287438
P 7.795882195332162 7.65792614670335 3.591131390898898 0.23889533578245958 0.3318723396318285 0.2751144660154939
P 4.533433335490819 6.516228500737366 5.108360173728215 0.8657755379195992 -1.6772455204180987 -0.8867151162857438
P 1.169015766130889 1.9428947643079373 5.801628265424695 -1.2707839354154695 0.686898748782617 -1.1477669335605845
P 7.858317067081072 8.189708499957058 11.04898186154981 -0.472300080763993 -0.34423600340350397 1.7167829163910886
P 6.20255123300018 1.0406820006866293 0.4294498297899546 1.8577145937428652 0.2065035497153153 2.0241202469960298
Ni 5.775743407250327 4.967370814876463 13.351878314069136 -1.5541002205154655 1.8126698947984008 -0.5335152188207327
Ni 6.4544534426925395 4.485230278775822 9.778249398078977 -0.4608463304010966 -1.3247171950988152 -0.8964099749760046
Ni 4.087710850223902 8.609075093377523 4.811271722201197 -1.4580021545386117 0.26620739333385124 0.8252204993153723
Ni 0.20520206196999854 0.9809230400709469 7.688466357123197 1.2538159401025633 0.44847469620962116 0.12088144356912082
Ni 1.4243728336904642 7.725978599016194 11.361307427601547 0.03221103751490582 -0.7443168816907697 0.02752391645188163
Ni 2.5634403889193367 2.1772111059706245 8.05222806703994 -0.7959965694532485 0.31340641961715704 -1.5677923732905772
Ni 7.113479035962925 0.365381002715515 7.389339814376898 -1.030896668033386 -0.30385862802772184 -0.7459898985178185
Ni 4.725045067972539 3.7992989489055833 11.494976519969661 -0.7785938005957688 0.030204034387206046 0.76404007115131
Ni 5.2124549496266255 1.241127905539692 12.115615618189137 -2.0915132317287077 0.8467270059285805 -2.0252636165718543
Ni 8.505988366193685 4.415913183530151 2.4671726530856177 -0.7074979130902074 1.5611257599036792 1.165052974334542
Ni 7.587381064841745 1.2045357372007226 11.386576459652105 0.21424179889983747 0.10361931405456347 1.0521584056256394
Ni 4.439024991331523 8.017185544497645 10.287806109992214 -0.3778644900912267 -0.4826546845254397 1.126323676085144
Ni 4.063453532519606 2.9640664403279837 0.5533362675871062 1.148121745796842 0.46729594268118235 -0.21851780056737205
Ni 3.1395585574557736 4.833465289264387 4.7487956120957815 -1.366699453067872 0.9736371721902845 0.7500702392347791
Ni 8.073150576314847 1.944828385024071 5.818058543064298 -0.6530553178706107 -0.06625964245918266 -0.3078806047029214
Ni 2.171080336970181 0.04645455039917456 9.178681267217824 -0.6857368672640319 0.21936137951458998 0.5587999615294506
Ni 2.3158086401450735 2.1329944237178 1.9358210115554075 -0.8605757388862146 -0.9462068438934738 0.9693783969139304
Ni 5.006638894348661 8.047179575795777 8.113335980117304 0.38034380486965463 0.26092711877151836 -2.676935423831377
Ni 8.220976338267242 5.502223134670005 7.986747971765099 0.23649855341550882 0.7313304967334309 1.6621040367909699
Ni 2.7198987135001595 2.3544535622300806 10.614160964927029 -0.5508184859858707 -0.808062499478847 0.20416924515518386
Ni 4.452129624620961 5.956055830049617 2.7537050017552205 -0.031240960292152647 -1.5211433059734707 1.1831381139710269
Ni 2.8190815429348364 6.969456366888233 8.853091612898163 -1.3120984778935405 -0.7916904858787268 1.0971424265354977
Ni 4.326590903339834 0.9182407381830052 8.981611409150657 0.35460860488707957 1.917588644390678 -0.1351754915942898
Ni 8.697462637487057 4.357428029926519 10.295799936298772 1.6790290946810826 0.060090537533993287 -0.06956428135238342
P 0.7431087693686943 2.326631417707889 9.40948501731419 -0.13238892998808813 0.22261768166835855 0.7091223360675077
P 1.2246233988583788 8.028402377467065 7.488739832489169 -0.451889378318125 -0.6739177631419168 -0.7992798681902106
P 0.47224241413146517 5.293300456535313 4.486298810413269 1.3253550857931304 -0.06320362924167824 -0.2723862684510535
P 3.0367009322525194 4.253342418107331 6.94354584929204 0.9035193323272762 -0.329350087430607 0.5185231162872747
P 7.063259881818785 7.382765503942043 7.438992628425034 0.1698398757456946 -0.16773259959470468 0.20908390884798184
P 3.190520002017008 0.21126043474457723 11.405957570801636 -0.7022927147401841 -0.2590250166527991 -0.6059912745032725
P 7.28497561454932 3.5861333020904644 7.47768795294577 -1.3041699670750828 0.3691026847381966 -1.0481996780882077
P 2.4872868905730217 3.439324752931864 12.471920516841813 -0.12058422404367619 1.2890187132559414 0.5847282513594382
Ni 3.6517481093298887 7.41293365274542 12.479766801472875 -0.6419954605120234 0.31339742075609256 0.5063018916307345
Ni 3.263127001703874 2.4646241226535945 5.145029320332661 -0.5749241207848228 -0.5526069453448611 0.06161263060547454
Ni 4.272834414615468 9.37072920987058 0.9619781390924467 0.3656190970649703 -0.5045404288549374 -1.2975989987257845
Ni 0.5580246105177891 5.472164954817308 12.609827995850743 0.5063404581781539 -1.0224104849392457 -1.4756779745518198
Ni 4.044172309833608 3.6555695303660394 9.17033920590078 2.2373063509378435 -0.21573998071191874 0.07088094328127793
Ni 5.022474423246668 2.8955374558955236 6.916641029100108 0.5856700464474173 0.4647160977691481 0.026327582150935305
Ni 8.097691980475068 0.8970460557551644 3.586772038412334 0.10616804861834618 -0.19624793342557814 0.4203769095321405
Ni 4.552082236710403 5.665985230391865 8.115870764430491 -0.06336432318925861 -0.804957378190962 0.30158654416409353
Ni 5.753117295647793 1.037282127294754 4.874243608992598 1.1720201496809943 1.5075771372532616 -0.053364531664069376
Ni 6.923700119325881 6.345180962032917 1.7789475541857658 0.17139539315827254 1.0064403347632345 -0.10960381377277252
Ni 7.199099028146995 5.9862331429322175 11.746019139030867 0.07555032373248924 -0.13687447656326748 -0.9339470526895141
Ni 6.543693246169846 6.925844513864153 9.552248541903587 0.8256773843471329 -0.3731655419536606 -0.16252688702404913
Ni 0.16003964674132104 3.7259130024847296 6.762168560486993 0.8376726090357961 -0.928494257105059 0.11736237467226884
Ni 1.867960088498332 7.447500559576023 4.6676770156262375 -0.5050394799785431 -1.8744689303830684 -0.20317808488650818
Ni 1.2826870048177352 5.634314172595852 7.022935184012132 0.9902647534446365 2.1930658930622298 -0.9646977036088096
Ni 6.9276040170750415 3.232583125652337 12.530599948924982 1.2575620374085568 -0.8296998752429646 0.06656894616948535
Ni 0.7131110724388714 0.714480185874845 11.067826874064775 0.11576546249879417 1.3581749605366287 -1.1171636068524309
Ni 3.0482751643116526 7.281007568245595 1.601579550040949 -1.9260825407943023 1.6296076068251613 -0.5228070883746093
Ni 2.479552407708486 1.334564857301308 13.118526033540748 -0.7880490324713977 -0.3094849730755638 -0.8666841657767976
Ni 2.368886987006909 0.3913016007988546 6.427940845091369 0.7778769770344023 -1.5261448729531202 -0.3285113935793955
Ni 6.230602479502956 5.456109488017941 6.576578544462957 0.053616499773875406 -0.4693078309048885 -1.0910334854242822
Ni 1.983986495545588 5.4736495356514965 2.7077673054242446 0.017250045329699325 0.2932356010962369 1.8477284290644307
Ni 1.3446178522093595 0.21570959520752983 3.60441014169358 0.6862480025724955 1.2546883154051875 -0.8773444737041212
Ni 0.6192085854527076 2.9533994521119658 3.6792385141841937 0.9338758331319464 -0.6331392956729741 1.0448976102981682
P 3.3844594106214685 3.7833717792153427 2.735973424865896 1.3591728056735237 0.050831223719254394 0.2751157515670746
P 6.955875201479179 2.6962828813415007 3.761122311268891 -1.1082853305261946 -1.568817215010666 -1.8485257281547454
P 4.557846442541911 0.7079297020459705 6.6508973941487515 0.13994257396562995 0.26531856297099465 1.0382924462768246
P 7.928532242090635 4.7984585066310625 0.49895478865970505 0.31303540943098346 -0.2566991967330998 -1.750828693121888
P 0.9284128661209607 6.292734936637495 9.805262354405743 -0.6614126886963705 -2.129194034108933 -0.31550598245866307
P 0.35958838823841444 1.2096034730112535 1.6267954304320105 0.3981654064321078 0.38607710780900606 1.6128249880501837
P 4.957162030621615 6.815509000014618 0.8578540381405211 0.902461323376407 0.6080281024276432 -1.3869949700921145
P 3.520976698812209 -0.09779080580064538 2.9026781064263836 -1.7238817322193989 0.940841208706186 -0.7750706179338588
