# total energy = -381171.27274059504 ev
CRYSTAL
PRIMVEC
9.14747998182419 0.00000000000000 0.00000000000000
0.00000000000000 9.14747998182419 0.00000000000000
0.00000000000000 0.00000000000000 13.38826159484439
PRIMCOORD
 96 1
Ni 6.073332128961011 6.254607739976578 8.07589296047745 0.6058591198007824 0.8302675748209765 0.009251086284622777
Ni 6.87447757420269 3.886864871183101 12.729545342049605 1.3028707886476851 0.8455180732221438 2.549412306576022
Ni 8.907614772342768 6.999761460182869 4.7101243493071605 -0.1542880440540246 -0.8829314808735955 0.9629740360494834
Ni 5.979945505715418 6.178482411477231 12.925375508481576 -0.030784846591340533 0.6655799327001828 0.9304488097282685
Ni 5.708301939851852 9.008740163662194 11.402943033082588 0.04286543190495844 -1.5674128784639716 0.18295841540552363
Ni 3.3530911186483907 4.5071188995689075 5.2000542302368045 0.08020170646157154 -0.8471993175793087 0.3002045762149023
Ni -0.03302697651368542 1.615627916312732 6.625716429540892 -1.1491743554310725 -0.7947567835088764 0.6254383274842906
Ni 6.210955965451358 1.237196669014251 3.821947035170825 -0.3122537940699525 0.027169104215624174 -1.3234624967561077
Ni 0.18701291046699556 9.237216771440155 8.858061958474249 1.7287112923975583 -1.4534340755519548 1.1255114645964939
Ni 3.1843201127828604 8.263723655655793 8.569919997695829 -1.4886031672539202 0.06938764656520309 -0.04879388157425145
Ni 3.834074764145162 6.331336802155443 7.400789727307345 0.2775356738624769 0.4041234237877556 -0.9221343763253022
Ni 4.498748955375576 9.005145204025059 4.529784525494848 -0.5177265885279083 -0.32716670662604297 -0.6765665136186736
Ni 2.3812628442227046 2.92186976431197 1.5874866088631538 0.2560481934126623 0.43207774290883655 -0.1865924126136851
Ni 5.635588621389787 4.2020504418119735 4.021245011268032 0.9322830347235299 0.10931687865997304 0.822264502010842
Ni 0.9515300163218587 5.383191353430888 10.449752749142053 -1.7725964238162828 -0.36597828017660194 0.3343411128872951
Ni 1.3232836032256605 1.6323952471393726 3.9789516375217295 -2.2453279356907396 2.825380121730747 -2.288220364178892
Ni 7.246459848106309 0.4113219263602751 8.601770608282452 -1.353318403775276 3.1233522090707044 -1.1971537115238284
Ni 1.7709978639889394 0.18257180893053404 -0.028702962721130622 -0.199038865907154 0.32690625387580474 0.2831393932024995
Ni 7.3238475288446505 3.0212296919928048 6.360803579455965 0.46145825295348275 1.641173971506522 -0.893663522579119
Ni 3.9821175803472073 6.761881242972402 11.971020750337967 -0.33572230950553794 -1.1198406394639617 -0.9745506851434892
Ni 2.55393067656513 1.0932153339289696 5.467564964639662 2.253820032322151 -1.3157221906890568 2.7037147488077498
Ni 1.1732283414252185 8.37492956992719 3.762275278934369 3.504638066138654 -0.39881075332559063 1.2350808255869052
Ni 8.083472562399411 8.288888373115745 12.791720763560066 1.061366811597785 -0.3113551935150831 -0.4479458202893447
Ni 6.210827900731459 1.7662320269127367 12.809647994849781 0.6328047951516907 -1.2061613143390777 -1.3039552799611154
P 3.590660321539105 2.9674059197156892 7.100584984662536 -0.20639659182380582 -0.5635536741643521 -1.3823466726868257
Ni 0.35245148937118065 0.5546839770500499 2.2614912296861336 -2.0226014963586585 3.6800317818230424 -2.1547263740520823
P 0.28144783491975356 2.6815563174234427 0.9842395752797971 1.6179134583166845 0.05858052864737009 0.0035293533094971474
Ni 4.000064936092907 8.510065291859519 13.380817560342697 0.24738588975197395 0.7655822188274491 0.6135348911784853
P 4.43679307338494 1.93191118454073 0.34812564608262736 -2.8495343503794475 -0.004404299715282737 0.6933424475254317
P 6.571540479284058 4.25938684640629 10.74258004917274 0.5707057118281009 1.083540519481347 -2.2184208268872503
P 8.634873508880077 4.89861274829698 6.823501412447306 -0.32284339666034073 -0.6162679738389322 1.46274943941561
Ni 8.70431202950475 1.7491353868063586 12.673488669906268 -2.0044577355700963 0.20064014895600282 0.5084145670983631
Ni 2.5773573728264645 0.5023741127117283 2.154278190431557 0.9878052361605504 0.8491119612209892 -0.6762422975100354
Ni 4.978534280993301 2.251332038406228 5.544561133234314 -1.0727308304603524 0.3939179440096635 -0.6413465140741149
Ni 0.5247689732298849 0.1805776582921229 11.468183775138607 -0.33133600751238423 -1.7898454407047175 -0.8094593798263736
Ni 1.723458410466817 1.5382310880943988 10.255916733348492 1.1193706418060787 2.20088924576139 -1.019918057534695
Ni 3.382893608464645 7.722238577487228 2.6827665290264786 0.37042963107973625 -2.319860873902308 0.13215213138693369
Ni 3.6408799866990917 2.0883239449361066 3.443969502879982 0.9553489154040579 0.40260364470911947 1.182326930923641
Ni 7.26738013484964 1.011857646873792 1.3935042333897112 1.0946111754732115 1.3150681020448254 0.11313805217827612
Ni 4.356185479689165 0.20697911504708727 6.891406815425201 0.12892668247110056 -0.488301855508888 -0.5156691917782473
Ni 2.8735985123904313 6.2618525441308055 9.751714954134222 1.762319724480623 0.18045261826453438 0.055538142276620475
Ni 1.2260184484631573 6.961643911053239 12.507367688994627 -0.388064313442364 0.6834807242400035 1.1647542121472003
Ni 8.798421303669768 0.11492070589643576 4.900210813051707 -1.599137206150446 0.9551679097415033 0.8238899534294069
Ni 4.7690844316001835 3.852195922010724 11.727527639403972 -2.1201537782835356 0.33872330111539084 -0.23893698765367236
Ni 3.805196169808171 5.029266205032881 2.7818401405835402 -1.5636845217697908 0.1429636201801409 1.7672017351632727
Ni 0.07866283944932458 4.601969119613335 12.828511928090753 0.7220842955448145 -0.716120878872528 2.298193416231203
Ni 5.719150851123208 2.0717578586693057 7.798234011770677 -0.6883732764456144 0.5273245166289886 -0.7008390130127929
Ni 2.56992047159239 4.557457481968799 8.052356494456204 1.8311260446210593 0.9229977527668619 -0.2893141545546437
Ni 1.7700465260696974 2.536495579699021 12.538575231737763 0.811489522882525 0.21780586210201197 -0.13338266135992513
Ni 7.78846633263446 5.902292548057288 3.140845799369499 -0.5383792317812535 -1.0059050310850548 -1.1365810921470942
Ni 5.191652269863498 4.216521755160444 8.970148775068942 -0.38069373200990564 0.30483564722901046 1.438404177802026
Ni 8.102819482583996 7.988786996994852 6.913631532815494 -0.4764521552591536 -0.6385272994577648 0.4369163019480604
Ni 8.14941674566687 6.201479176178908 0.6353830455457521 -0.6839206399908996 0.4462278091569734 0.8623662551277342
Ni 5.340216492425128 2.9415642887362785 2.069959464102739 0.6897670714693476 -0.6583685025534082 -0.6497074844443004
Ni 1.8803834297417854 1.2188102342289004 7.78674660639583 2.3143034344191884 1.290100119245578 0.38663092342994704
Ni 5.4075785350914565 4.340643911181548 6.707332075531865 -0.9879551314748534 0.38051375478861565 -0.5673843607643518
P 8.575222791847603 1.6706591559488853 10.354816542785695 -0.8648638247386071 -1.3937610851713544 -1.806274532795018
Ni 7.871077224448639 3.472630387193146 2.0460607578737804 -0.8498943479129686 0.47304672912203044 0.8123102190116074
P 1.7987879082067975 4.111554422244077 3.5645177384679343 0.45380022218759264 -4.547981444575825 0.05442793993157723
Ni 4.003275701570349 1.5710065089082845 11.541230061872408 -0.7924304493685449 -0.41848663448796314 0.599446274295903
P 6.3207440203238825 4.950844859055364 1.6480685393588845 0.13331041336109298 0.32761073614199704 -0.664654849782752
P 2.7596757965612 6.250829830739588 0.7136214419234148 0.2596821906208237 1.3290947553412207 1.0789084200259742
P 6.3753819183203495 8.371782836809697 0.4291448763780744 -2.1078230246323244 -0.44246602812169605 0.7722596308476248
Ni 0.856522459621557 3.481979111745698 8.487716168741326 -2.941946997084914 -1.4776662086264423 0.7935193115573494
Ni 5.125287302516375 0.3291318186257609 1.9026996219320047 -0.9258357364362894 -0.3134059053965248 0.7219151169568019
Ni 0.8656607921342759 5.168628062721843 1.7813079886887246 0.09130707234611371 -0.858670808554018 -0.7760201263313217
Ni 8.095272811590009 2.252219343965521 4.1758657803328365 0.7655493087069848 -0.2915034488964786 -0.029746892245129417
Ni 7.839710515553631 6.009720553091694 11.50668826267193 0.44190758451506473 0.7584209251923196 -0.27202528556720895
Ni 5.571839833320579 6.6273401072396 2.7254751983644496 0.14304332437814074 1.3251758799027888 -0.26519052203356264
Ni 1.0047043175194916 7.674305782325418 1.7641710996703786 0.6499293706471194 -2.8333335722498685 -2.954299862223312
Ni 6.67848366787885 0.7234677893875697 6.0825418118176735 0.5521426041139329 -0.9972069890904246 0.417202625569217
Ni 6.761204329452942 7.941201806072766 4.53978546537088 -0.5148752351220423 -0.11610561944703232 -0.6318347179289376
Ni 8.725241463728075 3.5846504271838935 11.007788362861433 -0.6844986239815566 -0.11783005833730675 -1.3832504154480176
Ni 4.446690646737054 6.513902207849982 4.860915983247016 2.101975307602296 -0.516842129040426 -0.4878462560287082
Ni 1.3473140331665139 3.224239715471054 5.888692989552124 1.082949165754251 0.22311621857133185 0.4774579708158486
Ni 7.846882139867916 8.179210088003131 2.4005960431873006 -0.8409710772814097 -1.0187073250560454 -0.029727866081735898
Ni 7.014177888651383 5.629450662314678 5.572288059840222 -0.252342719536617 0.722225449108369 0.2297452938520753
Ni 7.238254558552847 7.741603792631798 9.666325057898257 0.2921038014846389 -2.057122412953664 1.348681933444529
Ni 4.995118662220088 0.35019846504897584 9.113336108890858 0.02295609457554111 -2.172026555893427 1.6938769583271924
Ni 8.835486892600235 4.339720015702284 4.547322988884874 0.18804817122360518 0.23998445508158028 -0.5864616891107771
Ni 0.7089571418751311 6.720662698125244 8.351342792765983 0.5895215589830234 0.40590416983726224 -0.34814459442929074
Ni 2.7313460510237726 7.569210384689154 5.604607021402472 -2.1277922686653996 1.6011205551290617 0.9051447837458412
Ni 1.236272773534987 5.585844625189422 5.842556759460883 1.0181385970367693 0.6675740803120762 2.9478461361781685
Ni 8.02963049516231 5.365710519164816 9.220964443737103 -0.37054841604578764 0.2450009344595651 -1.145739875828227
Ni 4.3356676820655125 4.659836078047228 0.7331147217878834 0.12055388502637303 -0.1940668666138593 -2.941326847002412
Ni 7.473253319565609 3.164625588358552 8.791013674371671 1.4208898230673463 -0.24591007653739588 -0.18382950515656726
Ni 2.7358832011001573 8.56528862857552 10.93699144145784 0.3192690490455211 -0.019889282724759295 0.3634740256975095
Ni 1.7237877197465545 6.035461561791185 3.750761345867543 1.0379700299403996 3.819588947424796 -0.5071974068618104
P 4.989849713744286 7.23272948063725 9.991110908779481 -0.32366974921637803 0.757427965151431 -0.35890594671085285
Ni 3.7390141520609026 2.219507955511584 9.089210545158078 -1.268827583020047 1.0966163788286987 1.0492864833944833
P 5.745029072022589 7.646470000707597 6.365355365500338 -0.8132900664263735 0.05029489159981016 0.5496303792150405
Ni 2.2966395068101293 4.9091140553286134 12.46542191948805 1.73534910942905 -0.7823897773030912 0.004798706940223994
P 1.0566071189981374 8.69030723763591 6.795185388129866 0.13004716922878892 -0.9836652458502477 -0.7523664914681236
P 0.6086239223230727 7.437084183674427 10.54737922936427 -0.7502993245264498 0.7623549701394031 -1.93890231826679
P 2.435543990499456 3.987496298582922 10.488497815399183 2.0283957344429324 -2.446034933328936 -0.6955795643860666
Ni 6.092980915985355 2.0350032840585905 10.23169786531979 0.2825688654110102 0.1916284323756958 1.3288862388748404
