# total energy = -381162.47413200664 ev
CRYSTAL
PRIMVEC
9.32309829836281 0.00000000000000 0.00000000000000
0.00000000000000 9.32309829836281 0.00000000000000
0.00000000000000 0.00000000000000 13.64529675288022
PRIMCOORD
 96 1
Ni 6.619558095988598 3.054796978344924 0.5457042356076722 -1.5559339312900944 1.9854868508945485 -1.6466825600295767
Ni 6.64519661557893 0.8346606067985481 4.517494099479225 0.6789962061060887 0.4677764818620266 0.05238339869772268
Ni 6.552002927642582 3.307853828250516 4.142125661861095 2.6784238354514454 0.26487067680029863 0.032929917958801354
Ni 8.580802290570622 9.014037333059033 5.331913328138657 0.6603811621080626 -0.5915432173987425 0.12082050842419836
Ni 6.956121934974409 1.7107418735374331 2.1405786467928714 -1.3856592819998266 -1.3730691040396419 2.2483091298062505
Ni 1.2041154033344432 3.417913000528286 11.200427818965712 0.47449143198835697 -1.8762625319483814 -0.6101302363723106
Ni 2.992705145446157 7.722555178058772 4.325940794986527 -0.851458607076295 -0.9402506263100388 0.6837735728900739
Ni 4.8241158768227415 0.2811025934080049 0.5528196240263418 1.0337107404434134 2.521923357127134 1.4216339003222227
Ni 9.50219474605895 1.6492373958147355 3.3993572385135087 -1.0706456657965497 0.7701880930305768 -0.8839195558184777
Ni 4.593005599686473 9.275839248919437 4.963612731139229 -0.544468632508443 -0.013266892312235216 0.02160909362934343
Ni 1.8845150977716862 7.244214987287442 12.499459818752975 -0.1864026652003822 -0.08936023303238803 -0.42633749799094955
Ni 0.9504245827626179 4.165233892645311 6.313009971119541 -1.2628968193579089 0.22099223024979361 0.7548622613067838
Ni 4.031922913873618 7.006699741802609 10.876379306779198 -0.07720611416835736 -1.4562941707085695 -0.8482526985444874
Ni 3.4962083778081428 8.690022384025436 2.4376507748213414 -0.07676414153493231 0.3017919753066802 -1.145140294571015
Ni 2.713776698499412 5.684330163019522 6.957027207793398 1.152960561946382 -1.2534827251328606 1.1851782843295071
Ni 7.074171002266329 6.203542815566856 1.4202704989162196 -0.13356572390500868 -0.5918990580762645 -0.12111412840521721
Ni 4.207206479989193 7.953562901116678 13.065740131719142 -0.9713118664912176 -2.408311450636233 -0.1751754290259951
Ni 5.859315389998045 8.00604261994358 2.6703842033251277 -0.39057165324524995 0.3947638369497266 0.3932304310243357
Ni 8.73111860015423 1.0072302190767604 7.402000030705165 -0.6510233750422465 0.463222543942757 0.7960698458933451
Ni 0.5026380488645378 5.4720898363017385 11.482421700545657 -0.9111436816417534 1.7434506554902618 -0.5171069526660385
Ni 5.298596305008472 5.444502789222542 12.107512115903031 3.011785615144607 3.5472070498491166 -4.79929957950267
Ni 7.0882395571978964 5.072529823907974 9.657171672349179 -0.09445230284331475 -0.6081841683895333 -0.36976011581653734
Ni 0.6715278343491848 2.9470872267714316 8.513096088036475 0.8005407371805051 -0.2506149382122329 0.7060339269501712
Ni 1.3859624304651426 2.9965835542278216 13.705472472537103 0.14054549765695148 1.6279515592789768 -0.29814100881765426
P 8.700781239155344 2.6882127636933433 12.107266918424767 -0.7169755135633394 0.5031988272253785 -0.2478872548684247
Ni 5.708104063003284 8.709535628208187 11.526740911664406 -2.706680516304293 -0.17968900062563248 1.265752543639149
P 4.564458273509893 3.756201612650173 12.787935118085356 -0.50720871971572 -3.582686473702649 1.1542330009009025
Ni 0.9039750437433628 7.156838912523592 6.997949081988978 -0.9607454038292808 0.7824435133591622 -0.22176381830849548
P 1.5042352521098512 9.13407222023195 5.624727597295526 -0.13113217476285158 -1.2110343261606629 0.33501731301871335
P -0.08423605534638774 4.901283159240624 9.164699529579659 0.34870689469066396 0.05647453804796081 0.47022134385809344
P 8.326113898509282 0.2113527677850563 2.298140868167608 0.12705157693557473 -1.2995489233633037 -0.722065526491737
Ni 3.2953608768864995 3.10981257983676 8.622953881396734 0.23744754759233944 -1.9678025462409074 -1.1650082371395356
Ni 8.73835332422772 6.085680210235593 5.438960207442014 -0.8861101357118932 0.3529543571131083 -1.5525873834153647
Ni 6.729477421795875 5.849796506906507 3.907849260632872 0.158051881971831 0.16919195774905055 1.0162562924123917
Ni 5.24414941249664 3.4436540741969788 6.003343269958497 1.799887655432068 -0.4362159334469262 1.7403406491063704
Ni 4.3927361308428665 1.3184632007073231 10.152741880595016 0.7360358726289002 0.1870665240366262 1.0683656115131213
Ni 0.2720424067396833 4.154447068221306 4.00070545242043 -0.5667115030670434 -0.4904854934237682 -0.6002029499562695
Ni 8.8418303892943 7.435133388804103 9.717211491370918 1.501387720613098 -0.9149147186484115 0.6010951227532357
Ni 2.838389226806458 8.82765928028437 11.141370654476638 -0.3177677819096463 2.6566918430909925 0.49039241948932966
Ni 2.375282978220802 1.3505439810383528 1.578297010572992 -0.36068849253257235 0.47605337715883816 -0.31203602163219163
Ni 2.0445926909956853 7.19022492657922 1.2554120210209758 0.40529867504277944 -1.369918474225802 0.12164274721517761
Ni 8.14435077926088 7.5997513307701 3.2416178782761476 0.30906305504679676 -0.26791666271547404 1.19538504965918
Ni 3.016479045429919 3.748565995361271 5.276376565466785 -3.324482153178933 0.696784126217129 1.61200634880363
Ni 0.5511097678471174 0.9646609534587767 12.457187027652436 2.643348074794235 -0.08336853422532739 -1.0421030782721667
Ni 5.555997718597371 4.511083537271839 2.5051537338183736 -0.9876555979565637 1.007504771472007 -0.7661604599284224
Ni -0.025210589390624122 0.8583673804764739 10.02915675769119 0.4514571758767128 -0.64955476091652 -1.0256102228234658
Ni 4.296083573536332 3.036971214906119 1.3222977909282336 -0.6658005333514212 -0.7059465094426874 0.082839915415367
Ni 4.456217105348529 3.8788749365663864 10.473160910717343 0.35697967622241744 -0.3945419507469076 -0.2220193859627273
Ni 1.5800506853129708 6.005454951662937 4.871753178531381 0.5206003105312776 -0.32422099373415775 0.12447250335448888
Ni 2.3073735321495374 4.859096140641987 9.352377222220102 -1.1340925213972854 2.1736414657890304 0.8861980674400092
Ni 8.15558511239046 5.80947410791444 7.510152629435217 1.6628059479540007 -0.26163597191308485 2.4217290095937196
Ni 8.738558432384442 1.8412838921933703 0.5250684904217665 -0.20777547444920347 0.7717297264860838 1.7381752660239356
Ni 2.287263609692684 1.1426575411019095 4.009520441610488 1.6974153104977543 -1.4697469537793655 1.3901517705535413
Ni 7.2972167996041835 9.411481002199341 -0.08239847272411341 -0.9057111977722724 -0.6355764443595571 -0.0026528642418147856
Ni 2.0622879310620306 1.5237298500965364 10.020150644991459 1.199673649732205 -0.07821501504884594 -0.30988683649967275
Ni 8.872531351116468 7.804393332591112 0.9995507832271034 -0.1322904567370109 -0.3458393433348818 -1.035129218057495
P 4.7770342317568595 1.0264637703185258 2.68641806732202 0.7197075677825218 0.6440713692044456 0.43512758547875385
Ni 4.039856870299572 1.671333138152585 6.915995321041031 0.4111358505498468 -0.9933197382208763 -0.37039697806958793
P 2.1746126161617827 3.0892924410664615 3.254307547008657 -0.4584526333579395 0.6499149724694162 -0.7597504426370206
Ni 5.674801956829951 1.7238967648617816 12.466683535308693 0.5828847703927962 -0.5642710119463508 -0.8011035516625106
P 2.311196002343005 9.031471526380459 13.743951695048075 0.05547874979359478 0.5922363868110252 -0.483530916482806
P 4.047128886765194 6.732181120225401 8.754522373146088 -0.33935039317642846 -0.4845218196411656 -1.2689180858513243
P 6.219848914026308 7.704067474659635 4.970367315664027 0.4766524441954178 0.23864516744486644 0.40985955494058446
Ni 4.419987546392881 5.625715845687007 0.29720451602053655 -1.6896462080752965 0.9408347809482828 5.236382488935582
Ni 5.915179393410869 2.486414306772349 8.798773525649198 -0.7081455739765353 0.1665846020331905 -0.13048682786936883
Ni 3.1781695346136005 7.891760084256929 6.7340904907025285 -1.1521041274833577 0.508070296385067 -1.205898547595994
Ni 1.5480444897662038 9.409709613573101 7.967515849632639 -0.7652870561845335 0.35881055878356916 0.034703207809140234
Ni 9.039871637708055 8.284514235086714 12.302448772671848 -0.08070512846055133 -1.3587825122136405 -0.6843407582474538
Ni 8.24030410421495 4.405835083579018 -0.2783737226137903 1.7541011932255723 1.2762380165515053 0.30261087166354983
Ni 7.818704288071533 2.6208160880138855 10.067827103711837 0.9689544220026344 -0.09652075533656924 -0.361997441151983
Ni 0.9084557246579495 8.675524966584357 2.7198898538795504 1.3697163855173249 0.4640638088971298 1.1006694658521494
Ni 8.686032098067377 2.308333811246921 5.48014219607271 -0.5024205542984573 0.41091807811208586 -0.19585404042126914
Ni 1.5788200363726348 1.795619358028481 6.470872396250935 0.41283560684977294 1.359367695293149 -0.5910333676418595
Ni 0.26111853277459535 5.494083024561227 1.8167622797473735 -1.1539164981017482 -0.396916107406039 -0.4295899434899763
Ni 4.442707936298931 5.458962914271489 5.296613282056885 -0.5306728642759313 1.7091552246425017 -1.6947305645767392
Ni 3.8083736692419907 9.03595593653426 8.590396690756226 -0.37535869295023744 0.6373407353488314 1.5481054363846114
Ni 6.124240543699452 7.392247137853003 9.524198189726276 -0.09874218846792027 -1.4483965131280474 -0.4185565684939501
Ni 1.921807489903078 7.722144961745327 9.307715853403547 0.23620930430986417 -1.8241285302573036 0.9188109683790241
Ni 6.673221848265671 3.773225589658154 11.700227916789052 0.540617634193469 -0.7019322460769718 -0.04814673490855579
Ni 2.3853332779002123 5.206428157855737 2.7789059967372816 1.2469204985343105 -0.21130097110395868 0.25422091039593636
Ni 8.058540984966546 8.205053470552752 7.8927399418601825 -0.8110164399008484 0.1807287547440565 -1.5913647612938788
Ni 5.348801187915357 4.483142212467393 7.9498178126368835 -1.3154722794617797 1.3492336921829409 2.0051329072602497
Ni 7.87882894728537 3.304665328723282 7.5553593994866945 -0.9056605470399951 0.7530828008088578 -0.06508130588036533
Ni 5.358124285948206 8.156573360781943 7.152973556079173 1.4831753113701296 -1.7630311487253507 -2.020192886917166
Ni 6.27167601599091 5.8409675330694 6.525412519743096 0.020505319042203395 1.3949183387042494 -1.7418843394444066
Ni 6.110479651002969 0.16252583876742505 8.696092653154624 1.3136377973562021 1.997173028983225 0.9325316603992262
Ni 7.491780532451687 9.131070182665374 10.676503272672576 1.970934664111986 0.46825830659445156 -0.741944010583219
Ni 2.9138783515784272 5.009654850774448 11.987761583220115 -0.4031479472483637 0.05116032492389898 -0.18835361827916594
P 6.4353430019575555 6.995073838555648 13.151513565931147 0.04059026271753655 1.2884224744328392 0.7454610225975419
Ni 7.6505062764609235 6.575385257508964 11.433284312363533 -1.1969706489787448 -0.5455053013030735 0.7113111161887105
P 1.400646309866878 5.391734054356622 -0.12494070135780186 -0.9529516188164749 -0.6239074926620609 0.8987597061551037
Ni 3.445015246509775 1.955519812389856 12.964137009357167 -1.5246868003503549 -0.8181409667607716 -0.9028127931785548
P 4.155379378024591 6.547695656351405 2.4387555619382337 0.010327350067937053 -0.414327360903951 0.10886307895200606
P 6.503765218420627 1.396161899713078 6.871921307400545 0.3081135466493339 0.6066127101373553 -0.5085937729887048
P 7.95749724848654 3.6987992980619286 2.2713686598564817 0.3163603600391584 1.1925182696343462 0.3154275638122439
Ni 4.399094483701269 2.6871965460077623 4.18030468061541 0.6141347295460132 -3.0153193393294777 -3.818353789466114
