# total energy = -340891.0827102281 ev
CRYSTAL
PRIMVEC
9.10497116567829 0.00000000000000 0.00000000000000

0.00000000000000 9.10497116567829 0.00000000000000

0.00000000000000 0.00000000000000 13.32604564556091

PRIMCOORD
 96 1
Ni 6.263273260040946 1.9356986645338614 11.292851149577569 1.2345444934674608 0.6398727577420658 2.160735299250324
Ni 4.846093599667702 0.19360082335542383 6.026290890965252 -0.36371725205656713 -0.5410863462997714 0.3720571393808302
Ni 2.7161858997030874 1.4432380879120543 4.5933150160787015 0.3593754301481037 -1.5371911034649528 1.7504952210418692
Ni 3.5379732841791065 4.1862836526184575 4.559186852576353 -0.1313841428726576 0.33044280627415346 0.8915079096886969
Ni 4.892993306254848 4.525088735478924 2.4615872323736934 0.9326306478709359 0.23373538884807485 0.6333881784589865
Ni 7.402387100345967 6.294330316761729 2.575830947852541 -0.25823028866564557 -0.25298780931978365 0.5776566892246374
Ni 4.909974077519656 4.414863954282267 11.702280762448618 1.0866602960572511 1.4314372595658897 -0.7441597872876152
Ni 5.809044457435723 7.857954333715763 12.46946108222722 -0.9824236601336628 1.015119093484155 -0.30239284211547274
Ni 1.7360903811888824 6.501550356019512 0.5996934642862306 -0.3589054324902206 -0.4915676707443534 -0.07639904488602972
Ni 2.7989774027116128 1.7018192696388892 0.15136832499902414 0.2893038701419986 -1.2293346671317473 0.6790872231579983
Ni 0.5180837865378515 9.253837466481293 4.660797420532456 -0.6010113047901777 0.11470436822413148 -0.16346148302317656
Ni 8.461240619632607 2.534213945548421 1.3810046993479312 0.09570340164159648 -0.1355696417089149 -0.2073532993101203
Ni 7.096032134797981 0.6968790162451766 4.882622744072211 -0.9831731367051776 -0.7367989760471698 -0.7479105125792991
Ni 0.6531851700131727 7.542430662181898 2.8483891708494067 0.1799913623573997 0.5609008099225372 -0.5780855492319399
Ni 7.953583846098753 3.8518125360432713 3.7319055284857576 -0.5660671846148252 0.22164966132813438 -0.12142266078457153
Ni 8.051607965904074 3.850492315221074 12.547111918503244 -1.121470718868217 0.25998095280816513 0.0305282504958442
Ni 7.793272618399304 9.034453185716924 7.179566603455411 0.7530786870437998 0.2917407617182653 -0.8014061705045941
Ni 6.884478129254917 0.7828836635857931 0.3181286037906263 -0.6656321260943568 0.18626459696062114 -0.5876513385435042
Ni 1.676416400025584 6.695923280931641 9.38084362007375 0.7104474826368344 -0.89941610879218 -1.2610659367967574
Ni 0.12620673712218936 4.8760853747595405 1.5012057974748032 -0.014588953557768423 -0.23816771358781563 -0.061641426960880936
Ni 6.414078897820579 2.1867864549733307 7.142134245909096 0.31924256668295986 -1.134567661261491 -0.19095120380301306
Ni 3.4809215347178264 4.796944965197229 0.5796069873493443 -0.5691375960100328 -1.9087671894443063 -0.2958856371245743
Ni 6.024477180704689 5.762945988313083 4.916258328633313 0.23653943395577331 -0.8124387741696718 -1.412989337273347
Ni 5.358721687469965 2.8077181750516744 9.398766755856471 -0.7899061402847944 0.9466742704481955 -0.3946172840695333
P 0.2956939547844671 5.746811979368719 12.552655024962233 -0.35545526915809106 -0.5625743409702182 -0.7197823868845151
P 4.143872696826781 6.265531292895462 12.638941015912547 0.6136140811558529 0.4184840633848019 -1.3471611259246283
P 2.1711441144730945 8.350760899242697 1.4985535193678654 1.6583813365237439 0.5549865013206313 -0.3357842730917249
P 6.496278577701912 7.6734785124845155 5.896415760951593 -0.43866259521520584 1.0871310650460826 0.05211497552768444
P 4.811057670537953 1.1584254841938457 12.71857764640458 0.36151767330208706 -0.7754439421128775 0.8101016413960629
P 4.078781257806882 5.9871103789509235 8.217146357562305 -0.5277865438670717 0.6253321409237295 1.1933729043251575
P 4.8062229308373565 0.9362186623613312 3.6919547359089617 -0.26109192648415674 -1.2678083977269134 0.4698793871376424
P 0.2971644076312588 5.642368854876165 3.688143394969847 -0.4201545091086893 -1.8705076317424754 -0.34915812329546964
Ni 1.4388312818572728 1.110232871698066 2.210977452921571 0.05128373787564071 0.36610426423150494 1.256066940920269
Ni 1.8035855326022987 6.4734797298482505 5.0524632346165665 0.8551553392015917 -0.3422989342817911 -0.39031788536323103
Ni 6.026161600374389 5.656390510505014 9.367863573148759 -0.2698416476523288 0.3036740228207416 0.7613702376286308
Ni 8.630228884873805 2.284182331766709 10.27507379730651 0.1294982387038544 0.5104915042320498 0.5941726846017896
Ni 2.287077712604355 5.239018631267053 7.109072274532811 -0.33461339271207535 -0.006380963825679334 0.3839379499788162
Ni 0.5921682055997084 0.18161777077547006 9.18925499535078 -0.6602806319744564 -0.3765779100693192 -0.5463846185842332
Ni 1.3813515987501774 0.9465801195727798 11.388931358034345 0.40999865162161003 0.9452892171752107 1.1116743016030854
Ni 4.174383455276311 6.799109919400312 1.5865721863351714 0.4087033298489542 1.4767349550614244 0.1047562558724841
Ni 5.8036452095214965 7.910189553418821 8.204340215586996 -1.1153710337283824 0.08026958358502949 -0.41480584320226627
Ni 5.021828648558887 2.430717738059374 5.093281730947537 0.36457728606401724 1.0405287918065111 0.6060954041813046
Ni 0.8452390587638293 7.60987118376819 7.154540679649271 -0.34769850803080765 -0.25137778452018644 -0.2640371251554098
Ni 5.291845674097303 4.337717533410032 7.513797348791245 0.3698099952178663 0.4963990306947258 -1.2391614234141821
Ni 8.212711326096843 7.316973365635423 8.865418485122667 -0.02858475361622819 0.15095100926099164 1.6349832693147777
Ni 4.798602069953366 0.22863948397652872 10.295929644308744 -0.5072200325696297 2.1775456859394438 0.03682822457194303
Ni 8.403779146467887 7.055005134626814 4.914125944381184 -0.7947562692882442 0.8322550375646506 0.797251267795956
Ni 7.18561594631243 6.006503967580437 7.159764201619577 0.0817587665360463 -0.3673674472146447 -0.9195535029720034
Ni 2.324927077831061 5.409126807964322 2.7452189213288745 -0.6604567525410044 -0.4893002148664154 -0.22138149526841225
Ni 2.3864038432894974 5.279581277907653 11.407508230748332 -0.008830710917752534 1.2106990543084308 1.2522203134806693
Ni 1.2589352611333713 3.0203465671948706 3.700682761289361 -1.227900248678066 1.2728446745992401 -0.5688041239300139
Ni 3.5531057462928386 2.5200466103805703 2.8012946178788476 1.5742371004746565 0.20086743447546052 -0.7684060614294896
Ni 1.2137746040430508 3.195162013996111 8.43178876933219 -1.1002470336027501 1.307425240787587 -0.6562851376618182
Ni 3.4615188411171265 2.9913563389336653 7.387040671409327 -0.2216074952362893 -1.0405118225256467 -0.7440253185922798
Ni 4.294122931363972 6.747257108487131 6.2141482984955605 -0.6406520591102515 0.7365272104430219 -0.3469616298647831
Ni 0.7780043095263772 7.583257352986938 11.291758553035063 -0.6121603794284618 -0.3756762241906562 1.0313584381611527
P 0.14342332714075529 5.5745641344423715 8.012458410791785 0.6100183933847946 -0.3636745717440898 0.2762658060111177
P 8.599308402720837 1.857741901225933 8.077462442088283 -0.24279698482971088 -0.753982944025624 -0.8530339219832147
P 1.7624947976328198 3.0496190495628914 10.619979210862645 -0.2976262739647649 0.5375443945847839 0.18307745748189114
P 4.054379935024208 6.13345458084865 3.8399669685282496 0.6405720978019355 0.7302987130348068 0.24503255902844898
P 6.9769391116646355 4.00352867094166 10.545260175309012 -0.18108999473821716 0.2557334903857209 0.0726956278925135
P 6.462845123501174 7.808022671723158 10.356230047489747 0.48866566660621 0.5115263732544674 -1.0236425575741337
P 2.21348223049527 8.465620110773825 5.705639299658551 1.5191998090938545 1.0780216465456467 0.8130334703308771
P 6.926233527121088 4.266808017801279 1.644633677101152 0.4574509315663025 -0.9984879126853773 0.030985906858553087
Ni 5.329376365332444 3.2088376807198333 0.3732009325157296 0.4375487933257367 -0.879007463228841 0.20838945388411853
Ni 1.5380117330034142 1.2068184060557514 6.874041100782611 -0.16832138221863913 0.08777771903661656 0.19167728333576023
Ni 6.9450170826810345 0.8603323695014552 9.295689377042054 0.03902317534073279 -0.7931850681463823 -0.906338032722994
Ni 2.666882480722425 1.568504281510568 9.252393418050946 1.0343792272653478 -0.09039793026828302 0.7287393389674869
Ni 6.281902031090704 2.0299442212963426 2.5328818882636805 0.35849122777093745 0.6386777089927 0.24316902345714894
Ni 4.276268082865158 7.204645336094439 10.538196538661701 -1.1277804631363288 -2.8869755259450405 -0.28585679213366255
Ni 8.060102904022072 7.270884001483972 0.3284154002383368 2.540413702621838 1.1011348355243422 -0.6392749762570669
Ni 7.6816638815821365 3.949190202894275 8.374566756909704 0.7005554203341032 -0.46959348046610744 0.2773253576238837
Ni 2.874166254778521 8.035428432103771 12.601189073877547 0.7617309634021591 1.4322211889197656 -0.44119204650527893
Ni 0.17446581590763807 4.6376808091843476 10.390037716006292 0.2725793582984661 0.7786099985456848 -0.29934634197966514
Ni 8.631367006272251 2.3132271898550405 5.773269204645544 0.18193614478859635 0.31409033305805906 0.19968164169747546
Ni 3.7254719558446245 2.5003343477594933 11.461039087851383 -0.5429221139569295 -0.1765352854879992 -1.1389652761085545
Ni 1.3672935232365777 3.5910188463178576 12.833248385032125 -0.5411655362771389 -0.09980971050048618 -0.2426288346829628
Ni 3.0301162012791276 8.634608376015024 8.161217251048452 1.0546935133426676 -1.0743945913160204 -1.5739704770768312
Ni 5.546502613242297 7.9876273333690575 3.613543634538774 0.7284346632428744 -0.560054659872158 0.19850973287656135
Ni 3.096773695343288 8.126742188143858 3.5991914684558157 -0.35947441761981314 0.5085060983709049 0.016282024989475185
Ni 3.2309900756191783 4.27087793992212 9.52917543718172 1.0790624291053352 0.2956948612700069 -1.1103105884863393
Ni 7.598581019495609 6.21697448155218 11.237854392113322 0.08234035007112915 -0.4935569332602403 0.8309041799637109
Ni 0.42016164240983156 0.0363707179058456 0.4008381620584632 -0.02649907473179307 -0.15253943679403406 -1.0147956487064653
Ni 4.547951318130899 0.31413516342776043 1.6150634621752986 -0.33276245554626566 -0.404480035796226 -0.9293666324076834
Ni 6.455224262617183 5.8005039944617875 0.214932860350769 -2.365358858334107 -1.839831028594225 -0.025341821198898294
Ni 8.060913246457766 9.163880351148155 11.36734347134863 -0.41766670968982905 -0.8041125136921634 0.1556972656967254
Ni 0.12782560099933835 4.701889065999054 5.869842902540686 -0.17148872420302724 0.2043325102059255 -0.06471029569419177
Ni 7.823309918347079 8.936638480248918 2.3521400157164543 0.3930095732627812 -0.10764489027418879 0.7180222096602988
P 8.505181210583793 1.5931059136593675 3.3645736603975323 0.20783152449811948 0.7851837951084606 1.076908615987126
P 2.1440932450748402 3.257567486515679 1.5132525848530698 -1.925183940239433 0.7341026601619293 0.12740741761309668
P 4.676495301356936 1.1756156697959677 8.14971676194144 -0.04491742933798071 -0.8281065626139158 -0.5095162848029741
P 8.715779194152162 1.733650248910615 12.61083670134789 -0.2866242664273064 0.13215547382104337 0.16001311946325988
P 6.253230476821062 7.865147260953939 1.3041642055075984 -0.5940387301270866 -0.20369384818066208 1.0288685818597636
P 1.952834220308858 3.288697383005963 5.7696445156157745 -0.5643167775826218 -0.4300694542295561 1.2700863951278125
P 6.605028353566184 3.835878836465033 5.753746325425168 1.4432005707494049 0.37668641062272545 -0.18117406981159123
P 2.515503229757976 8.607011208345515 10.244104148309127 0.021862604401046218 -0.4755077890680134 0.7744548387267307
