# total energy = -340865.4695152919 ev
CRYSTAL
PRIMVEC
9.40765222881141 0.00000000000000 0.00000000000000

0.00000000000000 9.40765222881141 0.00000000000000

0.00000000000000 0.00000000000000 13.76904997692734

PRIMCOORD
 96 1
Ni 7.919662569100022 2.0027762368389004 12.492122038884505 -1.7185225247900144 -0.25760782459029824 -1.320825830464209
Ni 2.8551847768575915 8.587144892105343 13.723074742690258 -0.1512500285586492 -1.1014464532274904 -0.788445496578868
Ni 5.007062891574342 8.351718398705557 7.452884036417991 1.1796378141272523 0.6325096325087752 0.9818909275586445
Ni 5.34934149734315 8.270266946963087 0.24921058523312653 -1.6151500366389344 -0.7217582796639634 0.5017363837472392
Ni 6.164307582067889 6.195286980380196 7.618828433821661 1.5836028579602728 -0.5537228041168593 0.014597181087884537
Ni 0.1535103036443691 5.952626002527886 12.92850444768343 0.3424161765859458 0.23680220069885669 0.43388805664469793
Ni 3.138223397454033 9.3120138928225 8.864761882805828 -0.7457055345081803 -0.15847482844186256 1.3468708483777192
Ni 2.373146091730255 0.5779666318965246 4.217625411544494 -0.09776876881105744 -0.9938810100409851 -0.0454866715778894
Ni 1.9582686348299343 6.208881037641442 3.593336441552018 -0.16741661101618266 -1.6285765944574855 0.1181290776349643
Ni 8.60129400083954 6.247000843885435 6.468218019577686 -0.1973627637563117 0.48843812397643616 0.3972688627597674
Ni 4.169236212285708 8.442963216267376 11.20061227861464 -1.488460471028469 -0.031119347112623826 0.48712223337849014
Ni 8.347099241532359 4.667286721259855 8.426989023028902 -0.1887544532620104 -0.08512896855985984 0.5090195476722136
Ni 6.199482793209619 5.5665829992647415 10.09210769280261 -0.05811387342359669 0.7470707902868231 -0.5176317148212568
Ni -0.3551492145848006 6.683986283182939 9.697734213619166 0.03588308704985432 -0.3591466019667492 -0.3453462057485472
Ni 6.236981694416074 2.901846731193773 2.5433502739975182 -0.5017368979678714 0.5583232790033481 0.6203688833811831
Ni 5.928956349884774 6.664841711192187 2.796562874427139 0.9134283639108721 -1.3548438392808666 -0.45250464330462076
Ni 7.224502933663845 8.780989563294257 12.929178976337848 0.23708810737039168 1.4584335856490753 0.4452723872222396
Ni 2.2951848789109137 2.062477196963378 10.034360702015963 0.5673442515550359 1.2430692431090204 0.6485052366060832
Ni 4.345695542423561 2.137126916249184 8.990913793424985 0.05661672005277992 1.2593857208808568 -1.5648505170534341
Ni 0.27235905395078935 0.5880281158002637 13.045417103190982 0.09783098950756054 -0.6648793070887323 0.9748479046689341
Ni 3.822084442737437 4.554564233990475 9.514826878743003 0.2302839399643647 0.5566870289515058 -0.9599527327246564
Ni 0.8063101040423359 9.151387641141863 2.279025354926386 -0.1586920866589912 -0.14685447059411483 -0.3299663808583672
Ni 4.512681366912919 2.0712733516618314 11.442245940859388 -0.05029514871012629 0.1309678812708454 -0.5660923814258058
Ni 3.83136038769217 6.337850540059731 7.338931028256037 -0.4247536984435975 -0.891668346525961 -0.8928680232610171
P 4.619552294586108 9.160550694271588 5.611094364334541 -1.2375102609640043 0.43139074414414097 -1.9014400596552736
P 0.3083724868931957 3.251416267327608 9.434483648416016 0.3689445618937775 0.5343919649987312 -0.636452162096291
P 0.9587432315230976 8.649160134642461 9.928008135972595 0.2984438847700538 0.22574568577437898 -0.880737301435754
P 4.58599519960281 6.697429818010843 12.748033694697 -0.3824623938745543 1.1103902926843392 0.13072362647052324
P 2.5972551796731 3.034579294445624 12.381005437825849 0.38313268046870147 -0.5247485283716962 -0.29561361441011025
P 6.81874149163283 0.45980840325306316 10.954779981244846 1.3684853413237013 1.066605177178589 1.4073079706178537
P 8.882930881275477 8.114325706020235 0.41627261170436436 0.9669088523275153 0.2921475102383807 0.03755276144279339
P 0.3000796415812312 2.1953038367360675 2.3572612711865775 1.6563650774246637 0.4286900573835262 -0.2136512165036901
Ni 2.919617785980274 7.547853343439829 2.06811143979643 1.322077186372807 0.4314411377661021 -0.050564343211112917
Ni 8.208675048769745 1.089801232704013 3.2918908088882035 -0.5608984959296921 -0.540131952806302 1.0785803472625939
Ni 0.3153087487746607 8.079479762701443 7.659392348077053 1.1469102419872441 0.6454075715173659 0.2520799527935336
Ni 3.946622941024205 1.8978432854949963 3.22381609764384 0.8286904601418437 -0.08021507619801024 -1.9101661266743617
Ni 7.569585019753656 4.397917419141331 13.068053795635281 0.8209851210777861 0.4164755175952053 1.4755334785541556
Ni 4.747091833887643 8.525468325043246 3.1321554618599126 -2.5402766628233415 1.9161017754325063 1.2854677626798894
Ni 7.318993391194612 6.595563761246292 0.42399629406525247 -0.32658255198779884 1.463057971794964 -0.6185066333614638
Ni 3.926819833387579 6.520227283358362 4.844543820294423 0.8934879162332032 0.4678459016473814 -0.6600965409881083
Ni 0.07752375699743978 1.450481205948943 10.650126339220419 -0.4035986616325372 -1.1717206161627045 2.393805286600258
Ni 1.689181562273928 4.6520463248839246 10.676479995003069 0.246996110512723 -0.26019409726023573 0.07359705666086035
Ni 3.5964983534174193 2.469706232719482 5.412833741257441 -1.5394454467167682 -1.7066838802838735 0.9045058646102615
Ni 1.7671615903974374 7.20775731295449 11.404738572766057 0.9431852834583304 -0.11025250310036497 0.8119957730949823
Ni 3.8607310774981296 4.942648697755828 11.865781259972529 0.02505925696147297 -1.0550154154584603 0.30798550571190186
Ni 8.190546503204054 0.04869118489068007 9.102801821954523 -0.6305226839857334 0.06339054844150373 1.5344919593662347
Ni 6.298046764092718 7.566405233349295 5.4346717240398155 0.13075627948067156 0.05656298399670904 -0.046583247076177836
Ni 9.398978228686142 3.9162456324452677 6.160795705544966 0.1624464114951009 -1.341262501052006 1.6266379826738757
Ni 2.2489180459622564 3.679897189141259 3.286837018188728 -0.8780448422052556 0.10407517064505947 -0.17702199531643062
Ni 6.250180630289796 7.701056957626263 10.93736171341149 1.6558156326790967 -0.030896946689172596 0.22715182209328622
Ni 0.6633438968536103 1.3992377250478987 8.469755268637137 0.20987709417323855 -0.7367390693435119 -1.9710606481668895
Ni 7.513054438381455 2.4851724127454258 9.496871433975658 -0.905588299041163 0.5018569684855034 0.731796894846888
Ni 2.571299467573599 0.6711390773703362 12.054486530828003 -1.0525047332214648 1.2593566674151344 -1.0316273755518233
Ni 7.700229084242879 4.815259680887636 1.6705299512523728 0.3355127645978931 -0.8653410214853419 1.2357955922657426
Ni 9.004101440116207 8.195466705243938 11.570807151177235 -0.410404371700461 0.0450405851794063 0.0824737903251999
Ni 8.846636159535764 8.613674470981962 5.197513281891383 -1.0961939465792991 0.4959979386015651 0.9190328545818431
P 3.8814279120827258 5.54674226101978 2.4007029862144367 -1.1340642392625113 0.10719186189717024 1.1859485868366286
P 8.459360753849626 2.08424650388554 5.494842126003279 -2.0798324529566696 -0.8310872425087946 -0.0494471988875342
P 7.572877697983023 8.126160532341792 7.684891789050485 -1.09645157111606 -1.6602656980306503 -2.168577421002562
P 2.5677245597817144 1.577625623862953 7.382634276011829 1.5007585716695315 0.48925907721583484 0.9401940620404904
P 7.9482618314351 6.047031791189897 11.523358717126838 -1.036905850341943 0.5025485952358894 -0.4417093524613296
P 5.405119466548636 3.0435824174899233 4.567923099949624 0.8989648801873744 -0.06765909390987057 0.374861955819477
P 5.642465120973539 5.408383921821752 5.454773995012709 -0.11422305771233876 -0.3826765667678893 0.6565738725468305
P 0.3918776290855839 5.282829397109923 4.718074871800038 -0.6843003919278215 0.46429109441658745 -1.2785715497806882
Ni 0.8845328495896101 1.2055059456839914 6.057431950568658 0.16989798267713968 -0.20025499770244223 -0.4236306405827478
Ni 2.5053330111612393 5.852265170096761 13.737972700530333 1.6465270082883192 0.35852413789140186 -0.511603506349306
Ni 5.48638276524943 0.30361503723436367 9.390864128763772 0.6444269527716515 -0.7625660577089448 0.03300010907510446
Ni 4.683552551712931 3.7980478916630536 7.001217956043551 -0.4190180815114009 0.9811165112864653 -0.5162484613204851
Ni 7.028889623883155 1.481168967046649 7.4537928156092965 -0.08942888148679437 -0.5329925135480433 -1.0093690783742553
Ni 6.559062071160731 0.5868662707679011 5.041909775658345 -0.17223614389201305 1.864420545008131 0.9993376622801822
Ni 7.509884059629179 5.5852007427387935 4.3995966850383095 0.29763681548772614 -0.3446430090339355 -0.23502813951756943
Ni 1.8147925328982608 6.752285837312108 6.00115725733314 -1.3958022839710993 -0.491198974551025 0.3318296593193511
Ni 7.115345946534266 3.768169188644563 6.539609868946835 -1.040300220735473 0.04129140254961921 -0.47371110217890666
Ni 0.47526611639213157 3.1113927737107288 13.296991831392797 0.51229127644495 0.10261401271850071 -0.3937791044389541
Ni 1.8373520825954712 1.5806642954860548 0.9559933748189715 0.04107414433249055 0.3120357645218755 -0.07498570947827086
Ni 2.2573661175336053 4.292739868843245 5.778677574731227 0.7486913566093816 0.7395634261661843 -0.4985721270866446
Ni 7.939926651688759 2.071160459836824 1.1088460835826754 0.5988734325115685 0.6591089802638584 -0.8035640973878612
Ni 5.124150529410655 5.163465107469304 0.7570337631920369 0.825695639179578 0.7679784869737678 -1.1637903055720344
Ni 2.6174157780889136 8.894671631076195 6.634809663444729 0.3574584156310489 0.19741444292985355 -1.1976561050815437
Ni 2.347039857197412 6.795843266460599 9.131083105649166 -0.6155830319567657 0.27740994691789 0.2349630906075889
Ni 3.4052501942036635 3.4684037626429345 1.17992465813743 -0.01955992440979857 0.7464935776271144 -0.34447665865940025
Ni 4.203066129179439 1.483398580590535 -0.04398171425747597 0.7870810121311734 -0.020939064145512325 0.3837538589924681
Ni 0.9670031500527685 6.77227709799041 1.4305219312877249 -2.3158034160034826 0.08031406366971974 -0.6853375749430842
Ni 6.175041713095627 0.6202248642922288 1.5839635590718812 -0.5453651761807833 0.1200489203654965 0.049316329736624746
Ni 8.616205129392533 7.229394912747477 3.069644436057972 -0.4645307212312193 0.7289154595340349 -0.24234807021775032
Ni 8.437440924494123 3.5669959564822853 3.678112557540942 0.8740809724615011 -0.5947154444791369 0.18273730053365303
Ni 8.845968216237805 4.029363241102171 11.147037581527204 -0.9286094425266846 0.26367845626441033 0.43248783386306155
Ni 6.168277611247297 3.846130401463905 11.500351363190434 -0.9834569864941837 -1.5953198892868847 -0.6054896522765056
P 5.883545613275753 4.038432217711058 8.71101732862457 1.167782200340247 -1.9391931100343311 -0.046647524655209986
P 4.55654924858018 7.175771295869203 9.302755822406727 0.3923094618719631 0.09602633219865397 0.8223933142792225
P 2.065882767017752 5.112381556653687 7.751796188375609 0.14390592948875217 -0.028027852671493665 0.705289592584979
P 1.2032763321401052 8.089094383131195 4.25616479907143 0.4938775498244527 0.8555024381283654 -0.3235113692616428
P 0.9382571283451806 4.663062685474181 0.9602023583613117 -0.04792999091205939 -0.025953743751284335 0.4833198289132644
P 6.078566240975155 3.2670423774389783 14.120297799689919 -0.39603833278677597 -1.6841257924776993 -0.15498712700357822
P 6.72445800244791 8.848150791521272 3.327772534701435 3.0993396482061915 -1.7978950504820712 -0.9945417835534356
P 3.411045307887351 0.27373257115503985 1.6807880550846657 0.8985707300727493 0.3084174510429979 1.003034137295163
