# total energy = -340864.339285565 ev
CRYSTAL
PRIMVEC
9.33661362724856 0.00000000000000 0.00000000000000

0.00000000000000 9.33661362724856 0.00000000000000

0.00000000000000 0.00000000000000 13.66507780284769

PRIMCOORD
 96 1
Ni 3.294648239685816 6.859283339120423 7.945532058734061 0.2785664291198364 0.5532170681250344 0.1100136476166815
Ni 3.056639282023674 2.8984490352925554 7.250102786672128 0.25837581310457436 0.14038968880537755 -0.17187850344227817
Ni 3.78935805573345 4.313496878314548 11.20092263859397 -0.04746564968113116 -0.6766336194111832 0.16666379201055811
Ni 8.07793551195478 2.7736838657790135 9.35548117698831 0.6153709159459596 -0.3053256994915516 -1.3284841183404152
Ni 5.419577499190156 7.49618044593523 12.552617822690783 1.6067147613873878 1.4703601618833322 0.7581792414951588
Ni 9.340908590250546 5.930934497550343 13.21915961181663 0.7349066441204634 -0.3709039996129935 -0.0808586233192801
Ni 0.8649084184756689 6.942481904228196 8.981782278066177 0.5099454019205927 -1.5557392987807852 -0.6189074683443082
Ni 5.004331602751125 3.4176021061322603 2.1774206356565577 1.0512847447714346 0.1783818517784347 -0.2899181066872297
Ni 2.8459399195742163 6.123978323402471 5.372288484218283 0.9885390290027812 -1.6015442729300418 1.411585257836969
Ni 7.4238496992300425 2.205168118054021 11.681974856051138 1.0066161982194666 -0.21472542340447534 -0.8026649826123595
Ni 6.668312241520335 1.344098915151499 2.4576236181683297 0.37075281874710986 -0.41359896737835866 0.6740717722212778
Ni 4.497260110101237 2.003142469776387 3.88742797921892 -0.1086044259739807 -2.2081850080918555 0.48242122835839496
Ni 6.927076491544117 5.590568243369682 12.795596659850945 -0.10486552775683874 -0.5929940909126561 -0.7203081774809982
Ni 2.1438078925026476 7.606184429113299 2.2128138710521976 -0.6022642033606724 0.9958193647142785 1.6880660080723702
Ni 3.8978681807118516 0.10268127701557127 1.5688330753868394 1.2524933646363978 -0.2624289001280255 0.6640735233579854
Ni 5.256224105056435 0.826408891686094 7.180397495752859 -1.3091463372437517 -0.08652199225264454 0.8215733894810884
Ni 4.391532296019717 6.994169397936717 3.364014611526036 -2.045058539810594 1.4654637530229793 -0.03897740970446191
Ni 7.969910890891272 4.94541757000171 4.479809045344988 -0.3444710022324454 0.464715840658832 1.5517954836416885
Ni 1.3494954778978006 9.06302295527101 9.879633070828657 1.7749916635213365 0.7571168616689155 1.7458656926896579
Ni 2.749707441674338 8.537931798087625 12.929158786837785 -3.575010702324946 -2.446802921843212 1.6780073382847878
Ni 0.37871826247301826 -0.04886596903389772 12.80476521455141 1.2764863851168855 2.228436302141723 -0.904894615408248
Ni 8.401766623187864 3.7295943911329723 6.666139611501191 -1.7596108101898922 0.6766678150832283 1.3138465709328986
Ni 1.182015300487495 1.666529534322393 8.605459790680877 -0.26559495656083293 1.531241313639421 -0.3333820914081355
Ni 1.231032522664109 2.163722889626975 4.079900404309675 -0.04678225046086136 3.6538458674562944 -0.5121023003625954
P 4.7693850543983025 5.390605986730341 6.479966599706163 -0.9063812272561035 1.1022224121615662 0.5371335322996105
P 0.40974289629600325 8.785464101772652 8.035093526111046 -1.180977101763966 1.1166177616512898 -1.6957343232509055
P 7.952292700748935 7.583225695907148 5.675639733195289 0.4624794951291455 1.7602152765431105 -1.4748855605575115
P 5.828577201031825 3.340052192341983 10.508718232920572 0.27604263425671816 1.5741275714799856 -1.2849244885819096
P 1.112177429653005 7.728036575137488 0.3291203029212831 -1.1808346626488309 -1.3515695394049692 0.7619965583587198
P 8.851324575150525 0.4457514145376314 3.111619799401088 -0.827362999579672 0.5312814443942075 -0.9451244094625724
P 7.1810230488739695 7.011694221941576 11.016594541675532 0.3973477956268189 0.06487330363461731 -0.14453199310852527
P 5.113373914713159 5.596618369078339 1.960884022291897 0.9579457295969566 0.015605053527108607 -1.1962993339433334
Ni 8.75494271143068 3.9203787564581023 2.6935915920651756 -0.8953421958331227 -0.5252226397946373 0.2607512553152864
Ni 1.8342431270763966 5.139142968657436 7.629445668604884 -0.7878207185106755 -0.9101363234231615 0.9221096937349538
Ni 3.787294664095158 7.105657902700707 0.8294741019795383 1.9946302079567133 -0.5891780596006756 2.0117442419291804
Ni 0.804331534817747 7.095490330329215 6.4765092516353056 -0.38876956703950466 0.6961207816015172 0.5497939013760983
Ni 1.3563485523887788 5.02574045807512 11.526861957211336 0.02847676728345418 0.8416519053985182 -1.9157297368050685
Ni 6.157104628980115 4.485439957096363 7.754808381398292 0.7442628885243827 -1.8781713189353204 1.0302099263790063
Ni 6.786420405431604 6.776178140150129 3.340537696256875 0.8699204133259082 -0.1412561505707309 -0.706105660728371
Ni 6.627016398913255 2.620638093223002 0.27115113548315706 0.44579817781872255 0.7252629503831122 0.7240735580607013
Ni 5.125110038194303 2.3049204993368675 12.164543339580968 -1.7185891163618918 -0.4642034197987876 0.496959531183886
Ni 4.700742270123547 4.512796235377786 13.579507153079229 2.2109831396622823 0.05152439313153707 -1.252131610421605
Ni 1.0985273003535363 3.3892281369523114 1.3282332074096475 0.6025822488217236 -1.2251023742179545 -1.2876632276693116
Ni 8.036910431146392 7.941107437478919 12.81856753065497 -2.256483695197243 -1.1187363506561896 0.5386715662106916
Ni 2.3916669776688524 1.514184007797476 0.4250166627262362 -0.49581641871837834 0.49563798415898513 -1.4497519987146774
Ni 4.191224584671702 4.739731969134889 8.892795012434691 0.7209270420119198 0.7491325579118582 -0.6494408610464751
Ni 2.6721668644978083 -0.01937440718832228 7.515547383832553 -0.19591574689714 0.2132948616055359 0.1078595773881562
Ni 1.6532061865041017 0.7469403037706175 2.546665036159555 -0.1858938438847637 -2.373267828768538 -1.7675570616201624
Ni 0.6771715238778621 0.08229291357422419 4.949095262157017 -0.5689360215221878 -0.8096208451049024 0.4542774189343273
Ni 8.378966612415427 4.650492614932206 10.549577122004248 -0.16795731401100106 1.6296387171734128 0.6389685007602415
Ni 3.336709684620225 4.003129164105975 4.552493649711221 -2.034816807477928 -1.7565612247302909 -0.22353607971756986
Ni 6.419062000905688 8.056592012927021 1.262566935597731 -0.5665019581593986 1.1639070336555568 -0.1893671471453448
Ni 3.5396596576589032 8.650662072480088 10.88088686084942 0.6652521170471187 -0.1527384401787176 -1.1717956923750141
Ni 1.1603730298198014 3.7791064538382266 5.944350277844739 0.6008048452063266 -0.5773209031517734 -1.1064310509262751
Ni 6.2233385669079055 0.06209595071470957 11.062167487040535 -0.364466728628082 -1.7241894932678048 1.6484975017511287
Ni 2.404402118821024 1.7737045235348412 11.493819681157422 -0.3810598571000728 0.11782723012382934 1.0563945551941742
P 6.40865167657675 3.394372611127419 4.005535209468816 0.8665782363265528 -1.7861245402097046 -0.6053641824422349
P 4.563503384642775 8.950003245852361 9.078203355563764 0.6313909455232998 0.5475552418535667 -1.540915346394075
P 6.817763417783394 2.2327671482928912 7.326381053669938 1.5424952892866857 0.203803634285649 -0.12074646065315332
P 8.409114538207483 4.019393545254863 0.5663869997904654 -0.6742103546816711 -0.005786267664473906 -0.8271436844800142
P 1.2331706072123843 4.797124133843392 4.055589729432825 -0.3408686295931678 0.3628757299918783 -0.1379859644598914
P 2.4650154152725627 1.6712445242650957 5.592460774976386 1.3536914708439782 -0.9883572520092785 1.4942845339094135
P 4.0092819925658585 0.5644449841308966 12.712034900468378 2.988834405665072 3.739591129443914 -0.07716137697335099
P 5.41389150141767 8.889595354903276 3.33995042325213 0.35510945578289815 1.3316864273277966 -0.3204478998449707
Ni 4.007573392249988 9.280192591047781 5.491461955758193 -1.0368544282787175 -0.2644276757256091 -1.6660990168829757
Ni 8.309240780945911 2.2107887595302724 4.3577113463792285 -1.409219842928586 -0.09167525431880985 0.46307599106256375
Ni 7.773926031708547 6.084437764180002 1.2595017253042866 -0.9372648042088375 -1.7882235888305782 0.6553685393848196
Ni 8.915336399006309 7.784560434767435 2.0954983856481264 0.4533376807288773 2.008051880679258 -0.708674964117444
Ni 6.156367036494029 1.5067707364816225 9.38436959358577 -1.1157253317440075 -0.016891633549016072 -1.235904092819149
Ni 0.1899347334740688 2.8981782734938655 12.635592309068606 1.2953639387476787 0.48910223992299634 -0.8693375442392446
Ni 6.691242964885242 0.3916186616885283 5.093903340403233 0.587841085956807 1.304753864603011 -0.3080153305085727
Ni 7.402412834064803 6.1103842137854905 6.956357979580364 0.17023556852221652 -1.0269495104601798 -1.2062034804309225
Ni 0.9967488738873895 5.624908308734557 2.095922267912282 -0.8348641930527235 0.4886921489687712 -0.3657710492618023
Ni 3.0760967850743524 4.558200188033953 1.3172794921605802 -1.275549475124913 0.8570736392702272 1.4407346257074156
Ni 5.491301366001728 7.657237033086962 7.49097715109351 -0.7343453723003546 -0.13634122976761678 1.117703538516301
Ni 3.5715161837668283 6.440685598345886 12.5073996686482 -2.287659863689731 -2.5892320096761217 -3.2937070767796053
Ni 5.085924270294255 6.646165793710253 10.323774853156143 0.28152525463784417 0.22663091659280968 -0.7525847781265168
Ni 8.334729736477751 9.374053569055686 9.838924501226321 -0.32058802496726074 0.4182863455516989 0.30259030283825955
Ni 5.233582816717713 5.094289876212398 4.3898106244446 1.273672312706858 0.6901869326155855 0.06207414362292535
Ni 3.3720861141111182 1.709216532377913 9.393197361884434 1.5730345955261233 -0.949860381485661 -0.07046545301041414
Ni 0.32559386390869133 7.405615292580342 11.128620835391404 -0.8725989885993359 -1.0018005219983779 1.26883401077795
Ni 0.08456077705359552 6.935591483282226 4.159048746373598 0.5339327659741255 -0.1024458625717526 0.1672309773679378
Ni 5.8190071719402 7.677469475078717 5.242497415524232 -0.5801789414258589 -1.7968817787262086 0.4133583121224623
Ni 7.374907169963412 9.16546428131326 7.485292086982398 1.574710183456333 1.727674366492612 -1.453724095988548
Ni 9.309770983401213 1.6316759552013833 6.595819037735934 -0.2659104309187227 -0.8249996415538178 0.438009020791607
Ni 8.882966359142248 1.4401073143214271 0.7014271127336003 -0.6920430119877178 -0.13899923621575416 1.5715279290736097
Ni 5.2147695400156415 3.034128706277423 5.971571175226818 0.634436674328159 0.4160073197095352 -0.11130254163143412
Ni 7.453278705763507 7.41165608167525 8.778241297377257 0.5738596840760504 -1.6648384050029972 3.073516259385184
P 2.8781792468458063 6.478816328892417 10.193178034695649 -0.8659719702011215 -0.25830845020174864 0.49021732736404605
P 2.4535220437488654 3.693881843547153 9.261684621615267 -1.4670141282292348 -0.7949455024809148 0.7263039900531169
P 2.1494658804338913 7.905058771798174 4.834896338422004 0.520557115998168 1.4691949379306375 -1.4201341758482446
P 0.2786409670317437 1.6522631885155612 10.582140429772892 -0.2842310836047815 0.7017419844430366 1.3542622557457837
P 2.4143736223038097 4.007330640292541 12.957800716832299 0.37310049304368004 -1.0526302030557355 0.6993164057206795
P 2.9153389695625544 2.514069983904169 2.3392699013154887 0.5337779855638162 0.22921281838737298 0.3585225952295051
P 7.054736011319516 0.5376479690129727 13.277549860534787 0.21474393534723665 0.07969982712448855 0.38876211084033696
P 8.816629718463231 5.250650146648922 8.40358539554596 0.273173026018407 -0.6440209755824844 0.06377801368790953
