# total energy = -381175.4614549011 ev
CRYSTAL
PRIMVEC
9.18358451427000 0.00000000000000 0.00000000000000
0.00000000000000 9.18358451427000 0.00000000000000
0.00000000000000 0.00000000000000 13.44110422758336
PRIMCOORD
 96 1
Ni 1.48763970120423 8.386164852607063 2.272460584036906 -1.3859750134680322 -0.11210164049396176 -0.7331318116082278
Ni 4.714356468984848 2.111746933510981 4.975184049707934 0.9339941038773657 1.1100041129895142 -0.012176487461533868
Ni 0.975278327469685 3.7676850078409707 9.022919717756157 -0.29325642703184335 2.166951969583997 -0.3442285472043362
Ni 1.0572418208750876 5.597615277807796 10.989742337907813 -0.46638500083113876 -0.8257522034491261 -0.21929555927366104
Ni 5.513548743507173 2.2278917291522276 1.375683538542502 0.23765889227219716 1.3087539869013396 0.3214089782066593
Ni 7.487587824512383 0.9461663639856372 8.893253012009575 -1.041172338927781 0.17335174555369498 -0.15018147808481877
Ni 2.6967504621852156 1.1217105854359757 5.761462367431752 -2.0533171802749606 -0.6313657487123191 -0.8701844656205723
Ni 4.729922645043353 8.7661448529591 5.477976128189994 0.5099852540195926 0.4927876591943835 0.5684436552668016
Ni 6.144580398674168 7.345233078150798 2.414829105775534 -0.05141229303370501 0.3782514411170002 -0.3241631439130288
Ni 5.504760052953787 8.664748894338478 8.221990827367955 0.7204781273999592 0.006173218690247433 -0.5975518854866677
Ni 2.425687776319237 8.166989420269433 13.479277150104068 -1.5667737022180759 1.0952122993923201 -0.38625425681681863
Ni 2.5686578228554056 3.5564625598494573 6.166429065022716 0.4114325558546592 -0.3383466345022625 1.0461065430046048
Ni 4.851081677928224 5.053570536874524 2.0995538881110534 2.3620421352560483 0.8586396982057664 0.8889468338297399
Ni 7.429428182637154 7.016745437185213 11.667645172642596 1.74443101712566 0.9660663018215622 1.0878818271691781
Ni 7.562874851844314 5.213566949435748 10.495285280895192 2.614971837644387 0.26459248343824754 0.36354987324076743
Ni 3.068446869142108 3.9347252298634765 1.8205299526727334 -1.2055730459357752 -2.1341817171315114 -0.6655781329279699
Ni 1.260217409810237 0.83860913839295 12.228314038591266 -0.31202702277112715 0.5944920156144212 0.48735131867016074
Ni 6.80324546018927 6.940071688564294 9.210072908619804 0.15575331574564144 0.849823385465717 0.1490900447928529
Ni -0.06203603297510753 7.311951767215091 0.27557366266830197 0.4184370121969503 1.9427620583325125 0.02791626679429386
Ni 7.203006901974947 8.066796511243894 4.8633279881193845 -0.2634470569798947 0.17177180266108483 -0.4134344167760364
Ni 8.1553721856299 0.38816349267400446 11.702793506346852 -0.4241934550647533 -0.08878867679963418 0.619670828872894
Ni 5.084060038062864 3.2005802857378427 11.140780163598787 -2.380033686737462 -0.40045265980438777 -1.7503730936417081
Ni 6.47558434184626 5.532035299498778 4.07272144692868 2.219714348887693 -0.49424007537019404 0.12940310788688683
Ni 2.2739565899837677 3.955856658247323 12.461167501974051 0.09395762259508335 -1.7226799986018138 -0.5771010738314835
P 4.150888446421052 4.297476825327163 4.170357645975053 0.5358474664983353 -0.1563989197494403 -0.09969298241696378
Ni 2.417321530661834 2.177914661240496 8.207904126803859 -0.6324844356977946 -1.4614554031945346 0.03680071376811727
P 0.5216928141434222 3.5350097060012757 11.214961487333408 -0.7962824761247834 -1.205424179062737 0.11321852770722438
Ni 9.176449049974963 9.358531983728342 5.54723780560335 0.04781737659359507 -0.9128156700275376 -2.421400679720023
P 1.065332558991632 5.147564526230747 2.6585164440233435 -0.011943288404805238 -0.9902896931453009 -0.5419011288915828
P -0.2805759612518227 0.5120032139314289 0.5660357528445971 3.5064733195751803 0.6947789228616422 -0.2536799502908018
P 6.631172633753748 0.8057061911466894 6.574111348608076 -0.264649304818112 -0.8318999682180769 -0.03893190117850714
Ni 3.1555623535615642 5.07904580081924 9.823444530417767 -0.22043764329790425 0.4599130199535499 1.2848237013379873
Ni 6.108185852526761 2.6597406158632246 7.643754682255673 0.6562157178764634 0.8555844563192103 0.63970512181595
Ni 6.533964389754175 4.04166807364005 12.441261163788555 1.9707909394452703 1.1532778360764848 -0.21810436717903725
Ni 7.619161042441705 3.0607969430909368 10.359730979000464 0.1743958705474932 -3.046368752436115 0.0007512763437277384
Ni 0.2490055521448477 4.392040196934494 6.145232433187533 0.8892471386789782 0.993154930508238 0.5931391011309527
Ni 3.5176986488506667 1.3426676332044893 3.1453263300602017 1.1575528093027547 -0.6052978479806737 0.5671398488537136
Ni 2.3507038072822493 5.669293156354481 5.002738477227662 0.6684384851949005 -1.3310634490318172 0.5105452402881208
Ni 8.256428351616798 6.081828964451298 2.009324250121426 -0.04267568449165554 -0.5093458206633809 0.8799687987008458
Ni 4.132429441183533 3.789514388661659 8.231721753711076 -0.12193636719619645 -0.650488328474383 0.22173733594593426
Ni 4.773232430466309 1.4423646286564837 9.600013424932344 0.06365845739090972 -0.7624573000452224 0.19735967843251817
Ni 4.78654862827447 6.108645031761525 8.230163299388288 -1.4220987557737832 0.10926365682453439 0.5962424226466247
Ni 7.164573600025187 4.112721468427456 1.1052940094346875 -0.4077669340776139 -0.15270553005825313 2.1418276637125433
Ni 1.3731846851469154 7.569092138683021 6.491730920457507 -1.0195262214129153 0.2943224064025125 0.00948557089293205
Ni 1.824511954996608 7.17893672648861 9.356473942398129 -0.07187107510868912 0.7384313694442701 0.07398297924536937
Ni 5.846288384186674 0.5341356530470613 3.1800044642280603 0.45683618080043903 0.021342213121201953 -0.1976404428977306
Ni 4.445020297041583 4.613052346211179 -0.3605548820045746 -0.6490197143486565 0.6226306828321664 1.2868700423440544
Ni 6.999618051728509 0.04986043638610106 0.7207001761317395 -1.9651165147683123 -0.9726856069102926 1.3102920208124207
Ni 4.601499396664513 6.595145430994153 4.392499376169258 -1.1482801257515771 0.25413092178529134 -0.4037444431817821
Ni 3.097742504320061 6.398414679651795 12.090340780487804 0.040652740524355795 0.34802452391165867 -1.0948870548424177
Ni 1.0953720645299034 1.1605295979429378 3.5799982507065287 -1.123534286265465 -0.29421082052531267 0.8904406447664471
Ni 1.9738370421419131 5.466629809298972 0.5121271923248152 -1.221217951561884 2.6350940623155585 0.8211933804338502
Ni 7.242413663902408 3.7364975542157888 5.599134242716397 0.08849017172260888 0.848567401571429 0.42341312525530306
Ni 7.507451918208281 4.776795661328078 7.991610503343611 0.12743312864470957 0.6379560003353272 -0.8528686000499441
Ni 7.865235194351818 8.184282110250653 7.401532125766762 -0.2174487358729094 -0.8382855600294467 -0.7662499343184351
Ni 8.637648135902698 5.147334936613365 13.059107946408531 0.8233029705776852 0.12512607777808774 -1.0406514334273047
P 5.981590137502281 4.370348569884235 9.430023435505714 -2.192407176432308 -0.3707474194304712 -0.3669694404452777
Ni 0.3698854040549823 1.6522003553590097 9.63797101719489 0.7499990196772115 -0.6370088059307094 1.5035577316812234
P 0.5450338130049539 2.2634138347535826 5.462074751290111 0.6964100307071619 0.5911428966365303 0.3307305127179014
Ni 0.31255687659467696 0.4712437099783534 7.607503400029513 2.51463685076805 0.8898855435939256 2.1865959690671697
P 6.449989691300506 -0.1496455942511702 10.404396261524443 -0.913458188707543 -0.7381225799545997 -0.0004190898152896008
P 4.072231043505952 2.3335396874867653 13.071554458746048 -0.16085438441763264 0.1549722146052428 -0.065128614178533
P 9.056566535362736 6.207956316656317 8.662751464667254 0.6657321420073309 0.5443529328661851 0.6433419472375888
Ni 8.954573643736921 8.438786792911035 9.861321307134993 -0.9915006827342666 -0.5306785207028861 -2.3624591681888085
Ni 0.6803355663205612 3.474480699274664 1.0164033380936328 0.9714039119843914 0.6147147704191993 1.8475944745897277
Ni 8.266971106846983 8.82759221815524 2.903466525166754 0.3011034338800879 -0.27774470454948935 -0.36221881313416976
Ni 3.6672074076898773 0.5639152631384562 11.756288805555346 0.26056922121146736 -0.016721940740371203 0.4844230892797722
Ni 8.923983123116933 3.658942181464122 3.8646535602799967 0.17286195040147004 0.26625907250739306 -1.2518310484620505
Ni 5.747601583051161 8.257925275922128 12.375493840351755 -1.7249654522018807 0.5392300098173229 -0.054359548587487025
Ni 2.5222623529748347 2.4975585101445232 10.642330083960656 0.3346190491390301 -0.16049134465125908 -0.5623285435079993
Ni 6.2911044924874115 1.5941141821613432 12.583360606495612 -1.212626353238131 0.4404839646946608 -0.6994228493915567
Ni 4.480459750380681 0.300138833369715 0.7421254792258353 -0.8674089597579642 -0.2518254135805663 0.18941239856098346
Ni 2.074590149833865 5.652928008427486 7.630178589000637 0.5331874031676688 -1.4224931629987245 -0.3635532156748771
Ni 4.044616004327235 7.917599994284323 10.0680594107198 0.6068325394576453 -0.4758186354402128 0.5342369274781058
Ni 2.465663920497805 7.937592658165954 4.386370251743626 1.4797966247058836 2.833282921517591 0.8426772613392391
Ni 0.8760496948371501 7.725607972644733 11.553919333210084 0.8480709215509846 0.49418736775538763 2.0167249829732237
Ni 5.303657915296476 5.862277005141162 11.10119615848671 -0.5375922171035838 0.07421669252273025 -0.41315005276639816
Ni 7.482913379902484 1.663992078107753 4.671684024339746 0.42851727925108785 -1.813909937853089 0.38511988610205933
Ni 4.172111710651852 7.104816014412979 0.7866915790351054 2.4120318369106135 -1.1491969811388918 -0.6165957894919962
Ni 2.796373988959648 6.551165243888441 2.466227792598095 0.11829799911266076 -1.5658172518420774 1.0186317346231037
Ni 8.1329826061428 1.9984398655405766 2.1374582155823654 -0.021083045922544334 -0.450277810856631 -0.585029841760257
Ni 3.1998364153775247 8.601354609186938 7.725973479315606 -0.8721621581722334 0.2648097416553762 0.11359236610687533
Ni 6.500664711649078 3.2266432991030567 3.389672131330663 -1.6600857208093602 0.6662250224833494 -0.7676627555055618
Ni 8.44154186831962 2.6835812017321796 12.988730463454699 -0.011484089380199576 -1.255709043360218 -1.6053484771674802
Ni 5.175602010305448 4.3457090121467905 6.198647835209178 -1.4804424858199987 0.9422679138503838 -0.6503209496585832
Ni 4.343688623513828 1.420415861234757 7.252416424352509 0.42581633538015695 -0.08143480753772428 -0.5902401823166028
Ni 8.360386530367403 2.6557824908595573 7.4870450746568915 2.2070565509143667 -0.7354676588302559 -0.3651457569729776
Ni 6.180772905958278 6.701564810443093 6.57309013398996 0.17470903091253784 -0.33462727666914627 -0.8993767709138124
P 3.6104253035189413 6.967310200770504 6.369914342908453 0.15609141581135053 -0.5293603161120948 -0.0775383006967955
Ni 2.23218964678962 3.223722919169956 3.8619251172670275 -0.5321214237969997 0.6475618988562074 0.16616139845284286
P 4.039188505772323 8.420878802755233 2.7780885534728696 0.3885039720829438 -0.31310020123064786 0.05259705737042555
Ni 0.5884510463688444 6.772985548618311 4.032116227198486 -2.5798752510515697 0.11981597841908398 -0.20198946389504566
P 6.270175102966861 6.151376251348677 0.17651492635262978 0.08330065710186944 -0.012226881083495072 0.2265866936184356
P 2.576188362305538 9.553591322656157 9.724867932298597 -0.42702089721121944 0.4290708377617127 0.2548847692321804
P 8.139319279582546 6.169339343012652 5.503137313538131 -0.43040858273652965 -0.412172005123845 0.005850288133189925
Ni 2.047544492906256 1.2565347923474284 1.5489796184594349 -0.7642043646433161 1.320341691738939 -3.2569307884915197
