# total energy = -340894.56930239376 ev
CRYSTAL
PRIMVEC
9.07753394968099 0.00000000000000 0.00000000000000

0.00000000000000 9.07753394968099 0.00000000000000

0.00000000000000 0.00000000000000 13.28588850655797

PRIMCOORD
 96 1
Ni 6.654150046617957 2.0480005733935904 11.552213038799989 -0.4415520009478589 -0.3312673590579779 0.9390941441080923
Ni 4.568595715569059 0.21712553283957098 5.981466660579656 -0.14437746980853197 -0.26958839399094214 0.4088280283522765
Ni 2.6550334189158864 1.5572963245241274 4.758288033274449 0.8109146242156615 0.08248870272353535 0.039678549536544566
Ni 3.393354636922764 4.015456188683351 4.775054238348019 1.2247707019101488 0.42757625549405714 -0.6312109683020097
Ni 5.172959766131079 4.615154386831827 2.578073178940671 0.027275547886501408 -0.4816478405274801 0.1826622243213435
Ni 7.345876283226552 6.127998027952996 2.5212759572163557 0.40833437654530963 0.21694839919772313 0.23315509086457264
Ni 5.296486847149553 4.757608125986951 11.7591009289314 -0.42036791067107604 -0.5350658511373043 -0.6706900002332384
Ni 5.644410565644268 7.962449616855141 12.491950209516324 -0.1153376309327562 0.28624965669670704 -0.4038997378127237
Ni 1.8581984175282704 6.5094360015270905 0.35083942237648513 0.5930465414171464 -0.12184149348954501 0.05780354127202949
Ni 2.646146513248846 1.2941658499883757 0.3971048892949784 0.6159666405484294 1.6954509876825317 0.26468967113774416
Ni 0.782316393702361 0.01518489867193588 4.558122964733447 -1.0219998797643883 -0.9106600571371155 0.6876844779087059
Ni 8.67708754897304 2.2368858983371833 1.35017877278559 -0.180793803654037 0.47884276697851735 0.9155580086593652
Ni 6.873363412249581 0.6710439834198466 4.624963569940923 -1.0284844590474673 -0.16922255387666985 0.40037372693733625
Ni 0.7314422628337589 7.3252067385852335 2.3609022584317074 0.3780979462582714 -0.7205004959974624 0.4237877349859024
Ni 7.760147696839141 3.9499345491484195 3.7449602031585933 0.4858629070500922 -0.8389566179545422 0.15809970449063096
Ni 7.649202077776252 4.23830056786637 12.650305064766396 0.2790199717174872 -0.9999243880215876 -0.4905340872735165
Ni 7.705655260966574 8.966515639154775 6.806732498074697 1.3598340934066064 -0.1205266313328634 1.1106026658054615
Ni 7.015435894981808 0.5951140435398401 0.4756001402490458 -1.2816381045211542 0.13285764209439055 -0.2907215764251316
Ni 1.8214434828542696 6.434764207842643 9.483440344632251 0.389741958255103 0.036626135863465956 -1.0642109659147994
Ni 9.194815616198765 4.734396871859655 1.220621486011636 0.3030428169946458 0.4765002348882697 0.2676592952890294
Ni 6.3320065243381505 1.9667294125794812 6.821493475914509 -0.10442844021942015 0.5353658988762264 0.5863153933409
Ni 3.4050918882276497 4.439004841919755 0.6028499179110881 0.37252945103155843 0.0789359523752705 -0.7187079228734138
Ni 6.1015642492988365 5.668747433972496 4.734067357379866 -0.09163231689601638 -0.1307580792528845 0.7244597377555265
Ni 5.075993549241063 2.7236686525711393 9.78229363824002 -0.9302788598093075 0.7355733311701848 -0.7014041414876436
P 0.25694141193739806 5.648667929033278 12.260975083238343 0.26470432642576347 -1.1578037489712962 1.3749758341440512
P 4.126301954873576 6.303248897011098 12.81214024650548 -1.2584763216927102 -0.298710251057563 -0.14616207251278052
P 2.455590922071611 8.436614598997997 1.565755678345491 -0.08157159022590468 -0.31694682867024765 -0.6269395946201655
P 6.3543826453486245 7.740367750517914 5.847425072069728 -1.2494478929418547 -0.8524759925972156 -0.9063079508160069
P 4.868317729168998 1.1630862607829988 12.855970211084374 -0.039947229816898945 -0.17112979820171173 -0.28642963391799703
P 3.8703881197712233 6.123604501555807 8.272790529586135 -0.04578774775807598 1.066213598167125 0.7322373248184164
P 4.591316782866917 1.0561529116944022 3.910409151134704 1.175130156064886 0.39338983942033545 -0.8827129371048863
P 0.17293882117925158 5.572298636513553 3.604009703613748 0.8827874990965635 -0.3317998345226802 -0.15562398925662874
Ni 1.4732746709448359 1.0716119518894685 2.553042787024127 -0.178904299940808 0.7180229809912473 0.08799240615058394
Ni 1.842476128850728 6.43255836711017 4.807830489923077 0.2805958008450393 0.1540090793610251 -0.4113821622326979
Ni 5.978282261695083 5.712110813310036 9.314391246719932 0.14448468481035762 0.19885271803827687 0.44367418949718423
Ni 8.68580198149639 2.3240120685029177 10.094259429535263 0.3417494895362243 -0.14098952717290558 0.8671130257841002
Ni 2.189010984662034 5.2957243343037605 6.982677798474505 0.0515606456861112 -0.7286439510402032 0.6513108243756783
Ni 0.8032264929914597 9.25808602733183 9.098827049707461 -0.641656846225682 -0.7000805375802137 0.020953719433531658
Ni 1.6954382350869681 1.1229181733706863 11.31806259117131 -0.4044011029291745 -0.5415103212110675 0.20942098047242644
Ni 4.015610506759285 6.710639539943792 1.9110550817959344 0.15034731423872172 0.9119188692448811 -0.7108051230865694
Ni 5.545556221707526 7.8106187852035385 8.042745850530698 -0.054033532706635974 0.4992940928543337 -0.13012481654425978
Ni 5.66433575250755 3.049788134689724 4.53124529467263 -0.8286045852962568 -0.07781186607315631 1.2252224447355868
Ni 0.5923381336797982 7.385608649012697 6.8831798573857785 0.17869552636411162 0.6977007244941273 0.07582311777790168
Ni 5.148940611488598 4.7521888382614925 7.22158487385551 1.0777755919731116 0.30687298937401347 -0.4881840989841011
Ni 8.4464455681884 7.162546409016595 9.313766712389093 -0.42169537123324796 0.4097942489202878 -0.3864524888705538
Ni 4.391810743285491 0.5418806616162188 10.68787295672499 0.352328036383019 -0.617081213768847 -0.2503290315406979
Ni 8.16468799413399 7.2456239990725235 4.578450286347547 0.008611652928410976 0.5726157843666203 0.6034628516544639
Ni 7.259576168643761 6.200246120091887 7.159140518305386 0.2891912558235342 -0.20927494181286535 -0.33054076530459847
Ni 2.21137802813863 5.181220321960504 2.517011331800241 -0.3656216681681316 -0.3594373937342907 1.1696570487654565
Ni 2.446522465727001 5.116216101856646 11.546925375315768 -0.5042843469800734 0.007701482409315769 0.3847707302927567
Ni 1.1759672813565742 3.3141259212313146 3.9788846201936954 -1.2804798225469947 0.1050683877962642 -0.5406549151893075
Ni 3.7393720733029956 2.626983839231356 2.3678511106156908 -0.2784592141180108 -0.23656617342865063 0.8449046080078609
Ni 0.8754201199270801 3.2778248632512383 8.203916556789878 0.7502175634459209 0.7412338718900718 -0.6625321470127944
Ni 3.909675686397322 2.9788472074293346 7.048429099616562 -0.73269266718828 -1.7747764621867372 -0.0018339678849452286
Ni 4.03516351473355 6.657000392255803 6.018852483858211 0.44531018243871057 1.1671540798379447 0.21059571750681794
Ni 0.9126643336771315 7.503870760381648 11.60592753001917 -0.21981697899476982 0.9360255324850977 -0.4989711622972761
P 0.17818382025424234 5.571472580930611 8.043050855669017 0.20982207256558702 -0.47254870643968944 0.5912051173330334
P 8.49624491904579 1.5937517005801378 7.952348137155158 -0.18632321811269847 0.04775027080108551 0.9006129573137587
P 1.8776515726298717 3.1161449073414764 10.47722515206111 -1.1309094956836137 0.048327226350478064 0.299488009763852
P 3.987597237210269 5.8773673175679235 3.961971359071295 -0.33086163897912696 1.0933909299128652 -0.6525153862067408
P 6.735076261144684 3.8987463356076217 10.370339913902068 1.72792684882305 0.6614342859629254 0.45983871507218865
P 6.398118203575184 7.986850027920517 10.123634329166054 -0.49864617485768964 -0.8077691366081443 0.3863043933284637
P 2.3586519377832307 8.36746194591167 5.911635915712606 0.31353497477522135 0.09465979086843052 0.5193283857973895
P 7.103524283738661 4.051121819291933 1.6342701808001598 -0.2834921485562279 -0.6128887729540542 -0.6075660751895601
Ni 5.466826770379393 3.1382305472678396 0.4354393148638362 0.0704723949889496 -0.4129088832898695 -0.31347815339535684
Ni 1.5726373567787733 1.164774682084398 6.931766449717001 0.0408982808762586 -0.5726417525085492 -0.01927247507636681
Ni 6.773111128095552 0.9810907840531792 9.36643184069192 -0.633147266092774 -0.6413477996256955 -1.442610759684206
Ni 2.7387736689449445 1.7123678357703496 8.927093725027273 0.4882393777020688 0.1237065717227418 1.141788861600279
Ni 6.11830322177077 1.9576064910316002 2.513397565563215 1.5807211655371034 -0.07857188416763242 -0.24886401695939722
Ni 4.194728405249624 6.792346422384069 10.619157840771607 -0.031066125277185205 0.9361309477147105 -0.5607000067656407
Ni 7.942152251102839 7.3544454752078465 0.14305194863771542 0.9737127626232261 -0.05670156645710235 0.6844232906589309
Ni 7.526401199468057 3.925515983015285 8.323475847750064 0.04764434135084053 -0.3114891479897861 -0.5587261708687216
Ni 3.1256763179138893 8.455632032473432 12.5419447273521 0.6083543754188103 -1.434048986157124 -0.35728640882955887
Ni -0.002300247084809034 4.7832793917953165 10.213433833059003 0.06956993777933826 -0.3441627269634073 0.22092435312633568
Ni 8.668345883848055 1.9637610590012153 5.821225493789634 0.07388836264903403 1.4695394657542498 -0.7290116187922671
Ni 3.6735236425484388 2.8243203482158217 11.799024830682379 -0.10637039443713939 -0.14748156265515244 0.2686715386036276
Ni 1.095585718862557 3.073961607408139 12.709732955808697 -0.2985750110312793 0.8345520611289433 -0.5031422629558302
Ni 3.1352712712234516 8.411860164111358 8.17318638135103 -0.07340216704123488 -0.17979647273777422 -0.44729507407922325
Ni 5.569657074154914 7.899850943229082 3.7134856699417096 -0.37358643154116306 -0.11149511725821444 -0.28511271487878637
Ni 3.0460663457995434 8.46429199979351 3.7421035032470327 0.6711867373639989 -0.7606521285156835 -0.2571699657219313
Ni 3.153498959251457 4.287382793547358 9.29992256547101 1.1031742345518742 0.2904672943224804 -0.8932608878240615
Ni 7.41664473734325 6.341519779842806 11.387693630293034 -0.8562783970624415 0.12496769782335253 -0.7087847502224309
Ni 0.6284158843264637 9.023803955461917 0.3142560530927878 -0.28593212545628827 -0.42240808102955635 0.013313686389770618
Ni 4.544113606698775 0.24228482573719023 1.632077956368505 0.23008313680746825 -0.7280749659106106 0.031823058047867774
Ni 6.121035559468194 5.748920213187308 0.48610557020662076 -1.000774908947341 0.019813178071185232 -0.26583766869925834
Ni 8.117793454117717 8.917061234584768 11.066002169200376 0.29050534664926747 0.40910262216990195 0.8870776418314851
Ni 9.080892566023731 5.048488621589242 5.825622651200374 -0.6803594050022025 -1.2561998669537076 -0.12983762432114412
Ni 8.14785824632327 8.82430699341437 2.467840146287244 -1.2606111086475256 0.6065677158320327 0.07061637676598162
P 8.497661014330832 1.5581677677764623 3.6295057730182596 0.5948717675513432 1.0792650320344443 -0.8520484181414939
P 1.7987587256919264 3.102655691998042 1.5391303637264957 -0.27926936872413194 0.4104897323254156 0.16267086880108114
P 4.738136815817592 1.2070850674920337 8.244956995207914 0.26777370937970657 -0.7962811905732029 -0.7345785713570833
P 8.572496203625093 1.5196245589283992 12.534292366292535 0.394334719832108 0.155946405593054 -0.9659958535949429
P 6.154713210157388 7.672177316022707 1.4797287975324414 0.7514475791982801 1.142260916140691 0.4884615210152039
P 2.0006703117511506 3.2027990457455293 6.071411405014661 -2.030413021983277 -0.13195852731888885 1.0882587508926227
P 6.941290598262311 4.045956702515073 6.1007599797972025 0.24937335249564796 -0.1258125623221511 -0.6333940919962576
P 2.4649770921019685 8.33430171465355 10.329379357782164 0.2873284915831826 0.9325830824624519 0.0364808685348533
