# total energy = -381171.2341903636 ev
CRYSTAL
PRIMVEC
9.19287297325484 0.00000000000000 0.00000000000000

0.00000000000000 9.19287297325484 0.00000000000000

0.00000000000000 0.00000000000000 13.45469882619856

PRIMCOORD
 96 1
Ni 9.137338668976998 0.34267260771412067 5.783286847864055 0.9802950438264343 0.7511567874307387 3.481652660987075
Ni 4.262615616340248 3.757274204901412 13.01031712897278 1.1823109900840412 0.7988353244536243 0.14081392082698974
Ni 0.25796028473638916 7.039681371741217 6.11428634567941 0.18355311156672904 -0.2304207226525451 1.046264665849024
Ni 4.47459407055007 2.9059590251210747 5.707254435396966 0.16665787847328717 -0.0348297060846755 -0.7976325623947746
Ni 3.06194369102299 4.423288647377122 6.860766003892948 0.14651817030061864 0.7383154126916962 -0.014632662311510284
Ni 7.7028919880087665 0.23193985823736918 8.010295219886059 -0.21138761728049402 -0.49138152287547626 1.0527281620861804
Ni 2.201628688758096 8.427014579539522 2.2339508295708685 0.5826019490450547 1.5875633852699174 0.676377794646635
Ni 9.069522846230743 0.736815191024554 3.6654769348462044 -0.26752688347622317 0.9259264963778827 -1.417440173955849
Ni 4.962827545682715 4.64658352802054 10.575272206603442 0.015936468724598363 -0.2522365329760559 1.0378263052736836
Ni 1.220206780046252 7.957157657161352 4.197812298015026 0.37718263353285364 -0.6625048933192847 1.1402392577249718
Ni 5.8856632759532035 7.848120992718718 8.946297901887531 -1.561871379820452 0.39848062367968146 -0.1147341930208024
Ni 8.768980255334274 2.107585599874515 7.3571498800621695 2.8257732434041074 1.2924526786381547 0.48704972826934184
Ni 2.2880600789519785 3.282885196226115 0.5570366124190834 -1.3493396216331859 -0.02165305949340142 -0.05633364159472234
Ni 7.076048376591994 0.3684282794761076 2.112441275294682 0.5852224173870373 0.26944852597896823 -0.29127847736986606
Ni 4.312790316157118 1.6325622829750772 1.4071466065735514 -1.0827360213021806 -0.6236339272857002 -1.7608894197919995
Ni 5.899967386051234 8.623227256873944 0.1829666668972423 -0.15639454887406615 0.768554928302528 -0.1813357922004361
Ni 7.135480299332205 0.3918241407868322 10.478545718145561 0.1336611118322924 0.10301176237755164 0.3434387043131892
Ni 1.7325899320603402 6.207000145154138 8.04932723856551 0.4905587698638648 0.24632248148446606 -0.3108998511452194
Ni 2.300635928961044 1.8215861337692298 6.851791921452269 -1.1077909073882792 0.9656217580849756 0.2534593496395635
Ni 4.836967923991112 3.450434496127595 8.091373600240559 -0.5807301859436385 -0.20436901987081577 0.4678057924380653
Ni 8.95403278507293 7.8715168540294425 2.273682425871439 -0.20804981115651267 0.37862605084759954 0.08187189507514286
Ni 5.049470371951312 8.515394858769897 11.14014022737247 0.7486620460333429 0.5267884416198605 2.134045962884595
Ni 2.7412043585549433 5.9748249493727394 12.456709458113185 0.07292959828019052 -0.2760459766908278 0.31986374520672656
Ni 1.4450552561951762 6.19101373933121 2.581055321268447 -0.05914488579127233 -1.2044942110492998 -0.16298968559308058
P 6.529486123456778 3.4553342973372674 12.002492370252867 0.16337535106727347 0.38578168805577434 0.026210596957096797
Ni 6.54662163838141 5.4174059134446075 9.150432997012752 -0.26168816530725897 -0.0563171865344901 -2.440032178778282
P 7.045445302995372 7.479863700676944 12.104170140008181 -0.35360176088912004 1.2598469767879914 -1.7401138778075451
Ni 7.862857167838989 7.350731416263684 9.976806993562391 1.1307608859208913 -0.05069598369297075 0.11352063232867546
P 9.259613070271278 7.765826395290975 8.322739823214356 -0.1563094453594276 -1.2183504002061016 -0.4616706260746049
P 0.30750986920193146 5.606567657330966 0.5359803372394313 0.7985658728423214 0.20648375222097343 -0.08251107132103855
P 4.347107310370452 5.901291159736399 8.419654765564918 0.19784176027525927 -0.4186581270688209 -1.0459080538405536
Ni 0.9110927545383397 3.7882817649018334 2.512557387359421 -0.2609608002229312 -0.4934890561367824 0.7951182806133532
Ni 1.4950185199373325 3.5816075983054843 8.451111857045928 1.075848807264044 -1.2722180967588348 0.8559130433032228
Ni 5.017414824450134 0.9150236269534541 9.469456939413773 -0.21697179623649082 -0.17088142963633152 -2.645071485243245
Ni 8.675470353073884 3.5357443558382133 0.7063353019236351 0.7333189879183694 -0.9136170828829103 -2.0198442453284953
Ni 2.3025572393790954 8.40105390671379 6.683527416045887 -0.22663323058565488 0.14714860479576594 -1.749531571577019
Ni 3.721798908713559 6.489993541849361 2.494837205723841 0.4904677528119553 -0.4266208335593233 0.9298044912760502
Ni 2.767486781929152 6.336068079457703 5.505890991425059 -0.6871789990271971 0.19903578058336044 -0.7823740935738075
Ni 1.8473997206299428 1.015775674416432 0.3401243433701785 -0.21485757810696546 -0.9763031490582219 0.832505720122876
Ni 5.877702248096589 5.011660086068793 6.40701959112069 -0.35832616294798286 -0.30408694198844405 0.6766678150832283
Ni 4.121201653847959 1.4901830688373556 3.689318650488391 0.2884523207749807 -0.23032122096020335 1.243300128172904
Ni 6.475147052255326 2.6468211333772578 9.481418705518886 1.958857678342794 0.8301192221685704 0.3700851032561239
Ni 4.854370032227341 8.594674193914765 2.4499530042112228 -0.05233968994398083 1.0698416818380156 -0.35008294910258414
Ni 8.806854891326488 3.3144719072137967 4.616495255301483 -0.9103181004166645 -0.10322156439551254 1.8240387987569748
Ni 5.013627360850913 2.110959384197123 11.386334554194676 0.4098652113675393 -0.5545931225369546 0.8469252379823157
Ni 8.42461523973516 5.299038483096124 2.5333314413436945 -1.064175998911806 1.5824744007827845 0.26084792879415075
Ni 7.935581984667729 8.148700355106442 4.669601562258624 -2.6175907633244724 -0.677848979875523 -1.338244797271605
Ni 0.2699634187691644 4.691371204368615 6.883262802242498 -0.7814212427422349 -0.29785613058738375 -0.8232703175675369
Ni 9.020258240822423 2.3369753551933794 9.893347659149159 -0.45164358085590606 0.6901581362601792 -0.4632989057066473
Ni 2.9902576688221925 3.771072706994692 3.0810860100828417 2.9063678144287235 0.44610748152902524 -1.9374763844535405
Ni 1.781146686262009 7.836446044245389 9.90241642817982 -0.36161588944284817 -1.757055133647574 1.0271289734608373
Ni 7.885545177943063 2.9572092910571413 2.6161454360854086 -1.7394456480959268 -1.7349711572643407 0.8051936625714842
Ni 6.7937352524849794 2.3397332170374727 6.486160113886071 -1.996870667251458 0.43885542795230226 -0.4762256410706444
Ni 2.303862627318633 8.504804669288578 12.220848839620796 0.3509468397647762 0.18251438588956953 -2.3267038649660705
Ni 6.505492725413166 4.260335783882464 0.5859390045451809 0.2406619407645791 0.05575900003817494 -2.260942502299545
Ni 8.002800270681096 1.779179411479889 12.220283477942758 2.4255450409057002 2.76005121861595 -3.7813450734522487
P 7.805254626788694 3.903974069261546 8.18332255269719 -0.5111507350826036 -0.7321241962793198 -0.7462552363640632
Ni 2.1553425741413967 5.23227984072344 10.242429537788952 -0.6847526489738917 1.2691070619336788 -0.12112595547975913
P 4.091425938804566 0.6107404561091117 12.746591074407672 -0.22317895348846725 -0.06525871199849406 0.9468730167225627
Ni 7.317526759660801 5.385828395329741 11.267314429876423 0.2572139315859893 -0.522062754009417 1.8869536931136404
P 0.5718555233946779 5.310161859200635 4.742673869679718 0.4540259650451535 0.30128675353548756 -0.8251171409682887
P 6.384450169075912 9.264117577949964 6.336342027067548 0.03600187201590574 -0.31073221521910355 -0.7973458843922914
P 6.567654931379027 3.8909937328486808 4.199951479518761 -0.6268102681311528 0.4420047722145614 1.7448670762218146
Ni 7.242568074738346 7.012874954616631 7.339067499237732 0.9890234248383676 0.02465276555167367 -1.0638209295652323
Ni 4.349938715197054 0.8683376223693619 6.945342272353038 1.4745315196522026 -0.710240508832351 -0.10751659222644064
Ni 4.895535716686839 7.486114854190222 6.484922753205355 -0.393723054390038 0.18267636538873055 1.0514377254095313
Ni 6.610061653668368 1.0565828368361987 4.288025636084442 -0.23387808507352623 0.802641842683908 0.8817312899179073
Ni 0.39387047427514943 6.5504550663447 11.598434354325638 0.026149918922490446 0.6253660794854584 0.43107269868308984
Ni 1.9848699406851784 0.8747514897314413 4.818706282146808 0.7249235647658225 -0.11349929217243677 0.06505456640748797
Ni 1.3527312345277474 2.172248267245689 11.85135602547287 -0.26299274305129544 -0.18753832146672217 -0.08966156632289074
Ni 5.249966928016892 7.208968124604476 4.194045058735995 0.9901469969198494 -0.5942181931277444 0.6559784050546767
Ni 3.118213265515306 3.3982741357829775 10.854160985587376 -1.2417268701485131 -1.7907589536579227 -0.3475910359186659
Ni 1.9430147907646562 1.6889697505595982 2.7240385071500253 1.8938373076073511 0.057741834796158624 -0.25790298723321387
Ni 1.1930234551363061 0.33077611100598364 8.437750935698578 -0.13796205320049143 2.0010967895176632 -0.39667699481203944
Ni 3.9682230573561057 6.814924824320429 10.322660335270033 -0.7085613213577152 -1.0751841770968515 0.006435471212698595
Ni 1.904266831855146 3.242381398609199 4.945745349420401 0.3307667652724755 0.7860548848595044 0.8144560617100166
Ni 5.657054914823499 3.284346863003485 2.37074445418702 -2.0946911152360568 -1.7151708347089623 1.1338302688748345
Ni 1.107603280951924 7.719255301617053 0.3532315414278724 -1.3621403729422799 -2.0454938275758 0.4302167784406978
Ni 4.374079199205685 4.928115257938394 4.405095032791639 1.3322284158741957 -0.058858207788788953 0.3989220820924742
Ni 7.527087488320634 6.5056306185053705 0.4145617924040998 0.6815518826484068 0.25014416922340144 1.2800036542415245
Ni 9.11701322718603 4.739679751004315 9.620674181474532 -0.6414652990401662 1.5880938038520906 0.9004427502844815
Ni 6.523832506676386 1.7717975346105326 0.23681116154131923 -2.198933150476284 0.8321506507763023 1.8681728129617114
Ni 8.398011065812474 9.240675752275173 13.36030082843559 0.5277500342021814 -1.930267268299611 1.1106088364530486
Ni 3.01068423221411 0.8071516994963086 10.628768291367882 -0.7615473866364433 0.254042218726227 -0.44266246040321827
Ni 0.3948265330477684 4.2653275138202735 12.249937847065011 0.6962241399486009 0.5018435987490647 -1.6545601630054407
Ni 5.24811916058135 6.454168916494591 13.146451624608192 -0.4475976929213065 -1.740491315751622 -0.9683643538271194
Ni 3.5306239256810135 7.778733188721331 0.5347825059118135 0.9686122081718672 0.34410256314943316 -0.38049781394901566
Ni 0.4215116042512148 0.3259195162985354 10.631970168968875 -0.6901905321600112 -0.7581879832459071 1.6960428556302598
P 3.092022770869234 2.034106967475057 8.817752122759781 0.7191835769582517 0.5762338407351818 0.42045661373014037
Ni 7.465320575885759 5.917957838147536 4.930958613499654 0.4689663884050698 -1.3209762399991445 -0.4077687338498268
P 3.198448659432793 5.133061164445779 1.0453022626065758 0.7609385494078507 -0.06258039383538255 -0.611826907348443
Ni 6.010052037994624 5.538834570440034 2.3257122474221026 -0.9260977318484244 1.2456969105398545 1.3457117950726114
P 0.1728820854206746 1.5948071543294404 1.774459790577364 -1.7116044575139426 -0.5440706257390759 -2.816333438147446
P 6.950390998102292 7.401972489326936 2.560334585946493 -1.0275925433608173 0.5440492855828373 0.9212118645110328
P 3.5961783017151103 8.612388859826657 4.670852712248561 -0.08871642880080205 -0.4142715679653511 -0.024039557447706986
Ni 3.476836426848381 8.458536940417508 8.561345433528897 1.2774184100128516 -0.2836073339778535 0.6307024040967074
