# total energy = -340870.382148601 ev
CRYSTAL
PRIMVEC
9.25871731009393 0.00000000000000 0.00000000000000
0.00000000000000 9.25871731009393 0.00000000000000
0.00000000000000 0.00000000000000 13.55106866881021
PRIMCOORD
 96 1
Ni 0.5596403880918511 4.685142409246451 2.4146105061273486 -1.369656478813667 2.358701243808273 0.12362018265652258
Ni 3.8833745280723875 7.523994747903022 1.3875891441053523 2.6283228050299963 -1.7317598494158948 -0.32179567212211674
Ni 6.356350136159931 4.722760577536097 11.351866043525018 -0.5394143579139871 0.507566874386087 -0.3395013169319959
Ni 2.2013526193813275 7.521874501646972 9.522105560886775 0.8749474342268544 -0.5480915739730109 0.8884488111473989
Ni 0.58792947285488 1.5336046707675965 13.629529010689575 0.9486977286361274 -0.24002713539405757 0.5836566155618141
Ni 6.370191918486542 1.8653167345906736 2.452811047733613 -0.06677052065733016 -0.05844297462824128 -0.31765645314276264
Ni 8.650373256749988 7.4142696894731435 5.614587075775522 -0.5132760089557225 -0.6769004999193244 1.1649982098372065
Ni 6.294094521200645 4.800468991627902 8.845135003995093 0.671102919400941 -0.4560231979808404 -0.22633806794273922
Ni 1.5464465116284725 5.682084050584372 5.044439895319632 -0.15781662603257335 0.2668136594592824 0.8298543985429578
Ni 9.240718328942002 1.6997245761214816 11.142380158196964 1.5659715180317546 1.8283271417196836 -1.1904505884720402
Ni 0.5613041795862271 8.179493413561499 7.547348936358303 1.268663289528041 0.6305795053655978 0.28198728187592725
Ni 5.1924830810651725 6.6467127686314065 9.717362649506109 0.31255872690488107 0.24299778798660732 2.704388377836007
Ni 2.401498310722033 1.0648450738351551 6.4938346807246905 -1.208151862406545 1.3516078488420722 0.06543868921978407
Ni 8.444190881745772 6.854515419158806 1.5637251298076844 -0.0018838472862741746 -0.08430698687919674 1.000288713339542
Ni 5.453467803622041 0.4405899496222642 6.928146294162557 0.6155694051100108 0.3402636490193172 0.672054484680933
Ni 3.300991952737155 2.3625746632965656 10.953098645707126 1.401797839432902 -0.20719209114190767 -1.282247970191011
Ni 0.5623809684053475 5.4362928830763115 0.053843144442926365 1.6069960400732322 -1.5233140883725442 0.04295696317750021
Ni 0.4228715423724743 1.0772980485704675 4.719078385675702 0.3344861231055917 1.2370335784379018 0.1991262834146377
Ni 1.3282092867317814 5.067147825309095 9.586337911984344 1.0688579777685074 -0.9283608168509883 -1.6918938664588925
Ni 5.729266473819429 8.873952761514543 9.277129160498946 -0.2696089628162324 1.6564434960710825 0.5891374361707273
Ni 4.542021157604474 3.974091439936024 7.034698390182182 0.34145561244488937 -0.981482122156 0.010481616257614207
Ni 3.3465818766008564 4.286712028737381 12.450410070627173 -0.7513344506591835 0.683107914281617 -0.22817049316578766
Ni 2.8612399170283074 6.789130357760458 12.919331695111932 -0.3991416543024481 -1.557554497612653 -0.678177052638903
Ni 8.964873365158237 4.14308154764526 11.10637485845668 0.18710997568005194 0.6629041856402326 1.1806361734847797
P 7.605110369952147 0.5480901382908829 10.733313363281999 -2.0250383879349254 -1.545691684736796 -1.4915190553491344
P 0.617469410321805 7.574667707550877 13.637795193472986 0.2262586208550555 -0.8600167810589511 -0.7727910778710627
P 7.7397506365699265 3.2253111977286464 3.4249652511820323 1.1998543982844432 0.2390089785421884 1.1755996395021366
P 8.667150052452879 6.227570637577433 9.439104864000395 0.39110875669564255 -0.9016930777518148 -0.6729816244808926
P 0.10866400943012706 6.854320986096024 3.7240236709184926 1.0749046981832198 -0.1420843028989811 -1.7371049157778922
P 4.3048405971624675 8.538111309786672 12.895846958743071 -0.25406073066898827 0.2934749708005526 -0.1651023610607092
P 6.308945503710266 6.741244272012477 1.2805555947874099 -0.326834777207921 -1.4417288712998848 -0.6196029517494361
P 2.8265475033976637 5.3520848494572295 1.5135188095105057 -0.2744503500689338 0.5995622310484772 -0.8902519257944088
Ni 3.226088929979774 8.41935900201335 7.749368592075534 1.325150683091808 -0.24800141184878577 -0.30901960340337103
Ni 1.889241260030114 4.2652040285068 7.462099297045746 0.9106528580482639 -0.5279696064121553 -0.5067785741568369
Ni 3.834173704471309 8.81361370103125 5.50100205811356 -1.1739685316566169 -1.555053071347038 -0.8536502154109751
Ni 0.7588416902704735 6.453779618048179 11.161486447166325 -1.029601603371046 2.235746719760208 2.9572939118546295
Ni 7.600416200293557 7.532975703660088 7.93814828208905 -0.27481544671783636 -0.9011145795405254 0.42299969186696823
Ni 2.022353838297465 3.4469834067344833 0.9216756768633461 -0.16901712273408312 -0.48026998634334706 0.2839354067412336
Ni 3.0548767301244597 9.206924010887064 2.6333791813956435 -0.27199648921180253 2.278859491789282 1.0455357581027993
Ni 5.465365255320833 6.867690573841593 12.187532866259229 -0.7064239632997382 -0.8095658234972508 -0.3078965455425213
Ni 6.198896390175751 7.794395585928896 5.75145313802629 0.5708823466152814 -1.0998811656228995 -0.5315454966888716
Ni 5.376194549242176 2.9679373749091558 12.648486438656844 -0.04808682820489783 1.006401511105499 0.3654692017506673
Ni 8.176252862515135 8.80869732215805 3.7764391211575634 -0.9453722638073202 0.3085892007341718 -0.7036186326404592
Ni 2.5183433227366376 6.97565647598916 3.145758447155597 -1.761256059102799 -0.544972311617739 1.2189530667871071
Ni 0.43374127645370614 8.94187471144633 1.922706893621777 -0.03462993136904358 -0.4598343441968145 0.08770984191315861
Ni 3.693617117514597 5.55865609058701 8.561686781584832 -1.4532654111845746 -0.41219771615545786 -0.049650316037275787
Ni 3.7279484411715025 1.6515422114206892 8.435283069855181 1.37700083499388 -0.059546234994749064 0.6651682990840608
Ni 7.347319904855266 1.6315433821059868 12.655993406623677 1.5300287813885585 1.8673968540276356 1.0640736690059867
Ni 0.04014209461890009 2.9787793328385614 6.773934950968195 -0.48736905928197355 -1.2822677676853529 -3.153703567669053
Ni 8.955725752490215 9.030675068833972 12.38902384922004 -0.07998110581033323 -1.9963142805273555 -0.2496564309537055
Ni 7.13394350652812 6.567809980011084 3.6559295088453854 -0.6811821580138139 1.6758080166406233 -1.6000455768973283
Ni 5.116422718648376 5.0169655776768325 0.4526799826403839 -0.35208043914858717 0.8718729090665889 0.18740256721980628
Ni 4.202698428181079 6.3572574904529136 6.15610167305747 -0.9075626491587144 0.7238647844840049 0.6008770932051587
Ni 3.101753615689431 1.7696649264192885 13.114223064398892 0.9660930412944394 -0.2530130061307643 1.8863798228880417
Ni 8.91345044941108 3.513766534441404 8.796283234035295 -1.3772481751179957 0.37976736354089435 1.5598967725925845
Ni 8.917144677603934 5.350344210609468 7.105759971142031 -0.6644039101142106 1.041937756338896 0.9285546780293492
P 3.780852751682711 0.06718032667803236 10.2020435366652 -0.8185680269958613 0.49320237813429907 -0.938517702779332
P 4.465173804219274 1.9692828708753005 5.7390399757752615 -0.3714799267211215 -0.29308493445098555 1.5484918731897526
P 5.478984828432837 7.3406999220034095 7.784573938643231 -1.357199998217869 -0.37465035402930313 -1.328924034091311
P 7.811079794459032 0.7845124097880403 1.0059124125059824 -0.08979732056980663 -0.6779716214963163 1.5229888438226415
P 6.752308439156491 4.3055257422408415 6.742876583868116 1.2008982661679253 -0.34227193769859765 -0.7220495856521372
P 1.9370440173226182 6.376867453642052 7.252260654589502 0.24271470952854973 1.3609643503563078 -0.20076664723153811
P 1.4777468294455591 2.891849236340533 12.079557705394388 0.4717254392074457 1.0295090436572398 0.41085405764336985
P 1.2046517046925662 1.5712506152090686 2.4001520932302007 0.6966218896076518 0.5056889406370839 -0.22002652390241462
Ni 3.540024256634226 4.464516435292726 4.910243121259341 -0.32996458108615434 -0.43689316201960887 0.817825749513198
Ni 4.36954051348244 5.462939471394698 3.0394368931961275 0.48201987915491823 0.38551763576111026 -0.7230435741342903
Ni 7.0054139933120565 2.1143299357105456 5.264427943653088 0.34511403513308303 0.9248795431706072 0.20513777971604027
Ni 7.767739738893234 0.6235542393151488 8.419197900332758 0.88115664836136 -0.14418232307859039 -0.11705358518259841
Ni 1.7430646316872793 2.579136060366423 9.247954016492669 -1.0967019965639693 -0.507902660458951 0.05883403941907288
Ni 5.317262813784731 0.8285950144793188 0.41911713251732996 -1.7345741789362386 2.1302247893662924 0.656444803168134
Ni 8.401221174870987 2.9890379915796217 1.3259297905385963 -0.19000272384681471 0.4228058306886073 -0.4134159048332751
Ni 6.411698748031825 2.358621191020002 7.867844990074051 -0.4306983460628066 1.9184628194655151 0.033674766544625874
Ni 5.905598744327998 5.1823447856486915 4.8505642073177775 -0.024059097831732757 -1.5039927623361131 1.2989223455228986
Ni 1.5610752849234864 8.334558410488645 5.362524053185159 0.20905074161720127 -0.9096182461361624 -0.7528097496531293
Ni 6.106031455904239 8.743923336099876 2.0505744085526563 0.30916255673913856 -1.1968258958707645 2.219923636685022
Ni 0.2947021932584196 8.68808401221239 9.943069807500533 -1.0542553973639843 0.7909572072571281 -0.38075261027229906
Ni 7.145229882886743 2.7358120740994765 10.280179703495126 -1.2171437814925101 -0.8386645406354202 -0.3718126274701919
Ni 5.562516975690821 0.38808654156907746 4.4380022466313775 1.2176088940543868 0.8052173167205681 -2.088902533578738
Ni 2.331067248408634 8.836112384010288 0.3069857334675936 -0.6018289155954667 1.5707658540966043 0.00772307967587057
Ni 8.495243448801915 5.00411447809868 4.731775790547082 -0.5072094910466685 -1.6309294109603782 -0.06031345217807677
Ni 4.488839085575005 2.668917841785252 3.7653545848355443 0.7100623313832739 0.7842530557640752 -0.04883887587957395
Ni 1.9490710910632656 0.3348609535684153 11.438375794258747 0.7772437143257774 -0.39757199582248304 -0.031157913660043113
Ni 6.756530414234038 8.478725897182734 13.293882917896214 0.9745085190516444 -0.9813152575608325 -0.3927020693246914
Ni 7.436999840384067 7.560937029831571 10.545305850289246 -0.7662211379630288 -0.11979052449778724 1.0745365162105236
Ni 1.793737591335134 3.3277774218146705 3.5429537147801393 1.257678508381763 -1.2561242765207659 0.5649304999072206
Ni 6.4350029394138195 4.471043830971831 2.407699799553046 -0.026131664090045317 0.6328641876347165 -0.3321045102472926
Ni 5.533231652948968 0.9259550559880013 11.627778595944891 -1.942922495169776 -2.053187853785948 -2.310649896827001
Ni 7.844911147383071 6.1395665298754665 12.754224693427968 -1.12048495791618 1.24436765020547 -0.328018513103377
P 2.9511883553580924 5.933263791546669 10.898745345942329 0.5991122879952522 -0.1861720372468149 -0.45467131193863625
P 7.819060808750363 0.197225491912068 5.946859291993757 -0.03518811786535875 -0.18522767105567456 0.04132919776609011
P 3.9987288866056643 1.9182117863846067 1.9249021354877565 -0.20964980865378086 -0.9557767469700958 -1.9247782201605819
P 4.718149736332986 7.527429732012168 3.9087378581764134 -0.029704983263600455 0.07940852113631486 -0.13787694968585285
P 0.5449106947785363 1.200855630609683 7.934963283346338 1.0230797430921283 -0.3349954586418424 0.9546878847812913
P 7.6965772379150845 3.986470344933134 12.938682414217364 -0.41343570232761695 -0.43601667295192653 0.25937288691052107
P 1.9994014781719336 3.104364573961073 5.6616500615577285 -0.8111352248668999 -0.3924814686734531 -0.41778446621461596
P 4.743731572164709 3.44304845189247 9.721374451701507 0.9578274588515374 0.3025928739414208 -0.8744797505618166
