# total energy = -340864.2216760591 ev
CRYSTAL
PRIMVEC
9.27288070724982 0.00000000000000 0.00000000000000

0.00000000000000 9.27288070724982 0.00000000000000

0.00000000000000 0.00000000000000 13.57179823220633

PRIMCOORD
 96 1
Ni 4.056616394156337 1.4092831364078668 8.361720954383397 -1.5235182339635505 0.5188745860894225 0.8080149340703633
Ni 3.8121925316978724 4.702778540204866 3.4556780872978354 1.71715006992252 -0.6736277427053237 -0.8452442507354667
Ni 3.588280281355123 4.590372680319381 5.908373579083896 1.5629234752340502 1.2599788743801654 0.25316418699664783
Ni 8.640674242716766 5.0280897410382766 6.051977118807587 1.5107840742263337 1.5793140007769317 -0.47161436755087804
Ni 4.914394950735031 7.225827377886915 7.860527316098086 -1.1000655137195634 1.5929344197738438 -0.16898729793741218
Ni 6.367446084062506 8.984067560921623 12.590787892843341 -0.6559321251977736 -0.9916076406257762 1.5582790344835036
Ni 1.352709291236992 0.2000206732106797 3.592020961430837 0.4349854034739348 0.1026312391096813 -0.955279238508387
Ni 1.566931381244786 3.6268369193194725 5.773850044144883 -1.2858590845810371 -0.018326052002697473 0.9284955426566397
Ni 1.9959597527446826 6.704617299315445 12.700448052752579 -2.899925915458122 1.7956617902761784 -0.7891299242404022
Ni 6.318680004443816 6.626762192930482 13.430475059169884 -0.7159578709321025 -0.004890238212765771 0.23361557544075895
Ni 9.182711211347863 3.23018017435482 9.874921555680944 -0.48978846735674353 0.28795275543074283 0.9515516531451548
Ni 1.8509040799028542 3.2929112123126907 3.377993601917812 -0.41474336539544704 -0.6375191699082245 -0.8954645803435999
Ni 7.08041933557836 8.353465308693243 7.0045680987133805 1.4932483793354152 0.21983060584152464 -0.6386998204798872
Ni 8.272160690686649 8.721487398046085 3.7720502311332575 0.4632721662337699 -0.2851929332974185 -1.2643944869493577
Ni 0.19849992077533737 3.4619929190567875 0.9100201118849838 0.013721206240834432 0.5134595857214382 0.2820538734478046
Ni 6.291649557193676 0.8690951801890096 5.040525601349481 3.0514721351009513 1.4182755253729509 -0.2538892380881305
Ni 6.059178437961774 8.437644519717864 3.5213662469119904 -0.8690228412123034 -1.8256004868171398 -0.1252788013058681
Ni 4.9229260009820734 2.249294853559025 3.8288345706960976 -1.7695342399511915 1.1026610423608816 -0.3768121375673123
Ni 6.154976568507637 2.238927772932728 7.956819691185435 0.8587343148021016 0.04811870988409778 -0.1673250797436409
Ni 5.095735405768899 8.488877185603634 1.2848716778758102 1.5366869101350245 0.4668665684532476 2.212271519456403
Ni 6.682974395753927 1.340014717554165 2.815930920119854 -1.0919598538932935 0.004860927636727113 -0.6115170894175082
Ni 0.15311566074914285 9.223298610186237 5.608803895082865 0.9629550098860901 0.4030852123312284 1.8368776023928557
Ni 6.640152232666057 3.114538079103881 10.316086273445327 -1.3433180980294543 2.0479901116350923 -1.8874218909993108
Ni 2.551609310248234 7.578094842924837 5.040362398649102 -1.5431218671270905 -1.0161094824218824 0.32870294076491136
P 2.982622078218638 4.518081302356401 11.854069575710529 0.042619120222107246 -0.6837946559359965 0.4988444069114247
P 4.592032525965273 7.210341667112392 5.768163913697615 -0.005310356469319887 0.22484734232982567 -0.6134698422685048
P 1.5275309111364352 5.8399304466127875 6.524492518941781 1.0891527234618017 -0.9459952421032998 -1.158499232376424
P 5.193221200602763 5.6173442182106115 1.6646081974211386 -0.07912081469256696 1.2878678874809497 1.2638517270720104
P 6.99088039950723 6.818608821801195 8.574241470782134 1.366585296087511 -0.17304629849813422 -0.12470467396995297
P 5.693381839977727 3.9782327335712844 4.97185157414886 -1.4392197317247857 0.15162103874482274 0.32873353689253065
P 9.112218772241324 3.3992247895761034 12.182846979350836 2.0203240131783917 -0.2575908553094338 -0.5260446214753005
P 2.0707919000203687 0.21249455233276807 12.887304944516844 -2.885286568278392 -0.03234782020308623 2.0210824886109706
Ni 4.26186233564333 2.3885735217226935 1.3334606454730675 -0.83822822442895 -0.21949944775435098 0.5639869050470286
Ni 7.3637243868257904 3.2216862156305908 6.153236048799626 -2.105910380990644 0.4571809657343675 -2.2089979909114534
Ni 5.291337551324453 4.974752131232854 12.006888504277166 -1.0049863759255273 -0.5153647731639511 -0.5540765879118522
Ni 8.688383213935278 1.1800018881379026 2.0925952244180537 1.8793964495916728 0.8509610986145861 -0.6706804871515417
Ni 1.7269720293031583 5.415881612050567 4.270393385890372 -0.3538640134115712 1.6884275051768471 0.23985641414414818
Ni 3.9906769394751223 2.098211808260047 6.031754820569814 -0.8737660123242437 1.7924445688904613 -0.6365295523014457
Ni 9.028085925620221 0.7642865914637436 13.272757267727691 0.9064820145000261 0.17206542264210367 0.14223342688233567
Ni 7.5437295470383825 6.970637700931912 2.0525308160513465 -1.6289244647152075 -0.8870964108845626 0.3378748370721665
Ni 6.539189107568451 2.5110590029326727 0.7013209496240793 0.3823783188011802 -2.208788960224441 -0.662315403016298
Ni 8.64738780834596 5.8447337988171 13.408610533759557 0.23770542923941643 -0.1461942113022966 0.3251584179467626
Ni 8.208279815521568 8.976287614011548 11.106711555258743 1.1363615199371204 -1.150619058297399 -0.27262126727999497
Ni 3.896789022354141 8.221957314558946 13.145562090408502 0.19747332119224698 -1.644880988044464 -3.3777793219401766
Ni 1.2710986681671887 6.0839741209624165 1.2331095305018813 -0.4543018444143595 -0.37595878842808156 1.6708411595536512
Ni 1.0462127653505917 1.564566796665443 11.234910985558102 -0.46407332197882656 -0.20544734053665908 0.7554700700941118
Ni 7.511255918815402 1.8005059732803816 11.779682526708603 0.8824969644393382 0.4985582431295737 2.4973916905343567
Ni 3.0834090185828797 5.499272628215405 8.378006914762615 0.39409406457621166 1.3097436045081186 -0.6779693075034711
Ni 3.595476036780889 7.027684463018654 2.849480202504418 0.6694090766382859 0.0032714716624201723 -0.15179870197326759
Ni 0.887359973310313 5.405737080561149 10.999847168881553 0.7282683128683394 -2.2121450211808673 -0.872877181961387
Ni 6.203436643063118 9.189369139692838 8.906899574996775 0.7251647342423512 -0.9474258039022393 -2.137099404998939
Ni 0.0531892437141679 7.335126822736792 9.451414257351795 -1.7789056538637622 -2.5471435651465035 0.10335089088452523
Ni 1.7833140524564508 1.6059794818864113 7.062003394501594 -0.49585267127295246 0.19945744150181133 0.8659825117240828
Ni 2.8050835042731257 2.396334922871361 12.820544839893385 -0.019023078069722078 1.4416851625461429 0.8228131754254603
Ni 7.591206696239313 4.498524796953126 8.289790291479775 -0.8233957874018076 0.9998205154538716 1.5632821441250497
Ni 0.5571267273995879 5.074528327600436 8.327397386460108 0.7672611491917689 -0.017418452586763552 0.21954058540493157
P 7.1644687262731335 3.974115574539016 12.900171066492682 -1.2247277644873553 1.7254781301722413 -0.4899974980437561
P 2.223757340102118 7.492747248931601 9.093498680677488 0.9386897095808221 -1.0882142708079325 -1.960699359537223
P 3.6026996108487648 0.4828351890689047 2.5732540683858924 1.6482249648160325 1.569333492525452 0.6268820019093526
P 7.628428039382387 7.325056474293 5.2614195290233035 0.6827374183160758 -1.634901765344565 -1.0835839711247726
P 7.7536304746384355 1.2421394617307613 9.704405334292044 -0.0575482307281138 1.4093841364205921 -1.2489280158826426
P 1.3397921684172855 7.456212098960573 2.946165747733587 -0.25030203495750436 -1.5202156519528787 0.7093984725470299
P 2.577545557575383 4.2622054322293526 1.4625780909620525 -0.5069577800471785 -2.2306456510882167 0.45062105312866263
P 2.006855387571068 1.3385774210451524 9.346002004092744 0.23189473609491026 -0.2316160285122269 -0.6396231036251049
Ni 3.471543986181193 0.6201786070297929 11.526799942472582 0.5580384007730776 0.9259082415454376 -0.5572986943935757
Ni 8.94429617558514 2.7679827085791953 7.633077461767026 1.7518129114120282 -1.0826465469121676 0.24457618821732072
Ni 1.6170513014461596 8.410539889422097 10.834529324414929 -0.36160740480241593 1.0041631086932836 1.7120508010227418
Ni 7.537961815240926 5.5424935251735175 11.223171518587714 -0.6339515071616243 -0.5946036014916211 -1.0673045172384585
Ni 0.36251492550314707 7.485866771449747 7.124366299095542 -0.6124830528752032 -0.5244898753936709 -0.7021896135034166
Ni 3.2532603744253508 6.382319784710609 10.869123660454758 1.2207782929213038 0.7121968612277735 -1.6301107717138248
Ni 4.065509086750808 8.794344421731966 9.792459682162574 -1.6408939783722578 -3.3637331282597556 -2.135669357420632
Ni 2.503520150920884 8.617723862976082 1.3059229716484575 -2.044669531902292 -1.4049998913099673 -0.44391073098802264
Ni 6.35450114260069 5.870864776639019 3.9966505292241923 -0.5573904827764337 0.13570925261057273 -0.10012544196869208
Ni 2.508787147160363 8.677886312979135 7.224430882052997 0.8307766532469111 -0.6127519902658738 0.676721551139299
Ni 1.6656133776893773 1.6303486123747015 1.572197450196194 1.25720054030408 0.14548767215357525 -0.8433583465666635
Ni 4.1546585618324 9.169367536015804 4.695556820713131 -1.675329277231992 0.24089822514510123 -2.9451176815034117
Ni 5.6610751236074055 0.5922904183145977 10.786322399502648 0.44240560719740585 2.743952513281874 0.7819277500650081
Ni 0.06972279000816396 0.09438494352667877 8.665607164351817 0.4192319972944199 2.674066586924014 -0.8071276463694035
Ni 2.347207200905242 3.5134944984829533 9.098763822340825 -0.45373902993235404 -1.4157931252707294 0.32548237694508464
Ni 9.18907240751033 2.1746110723745917 4.546444262563606 -1.1155648949067434 0.14216297865571648 -0.14100341112997652
Ni 9.150460132261761 8.234429339104894 1.269032670346492 2.5273234450967825 -0.4483119453795118 0.05568520937744603
Ni 4.196766713106117 2.7005503201047483 10.630002031182443 -0.4810012080824168 0.4440292588437578 2.2387775361667313
Ni 5.445323008283565 5.691174894370339 9.463153724322181 -0.09126079248921057 -1.5010653042766728 1.6339769395374506
Ni 6.380715576348938 5.620997733207714 6.662911591064252 -1.0270947777887924 0.6887337451088268 -1.4565183709042335
Ni 5.016647006250395 0.2570488895360166 6.57241476641647 -0.08053569276222258 -2.6098046916211506 5.36074212086129
Ni 8.792693848966778 5.1947326801574025 3.4268653923765204 -0.35477469815129864 0.05151179472604677 -0.4334250009653503
Ni 3.4713492556864236 5.8784036286508075 0.3841921387232674 2.6028861101244463 -0.7727710232664047 0.6499170293519453
Ni 6.987977987847095 4.5346797588153205 1.5958674054794548 0.8767150676502383 1.510811070809527 0.010069468420860078
P 7.937789885406108 1.2272379424405473 6.487400996128553 0.09922427031066136 -0.9617280794575244 0.2577124684889626
P 2.066850925721463 1.6734211432415618 4.906612221960745 0.8385876646508976 0.25136904276943806 0.8987720474502779
P 9.023208390370282 7.026608808857071 11.593586938450079 0.1901533904920661 1.330974745972753 1.4125815603119674
P 5.157770977674021 1.7820529406808008 12.619804591140129 -0.7403851507365313 0.2690790584546915 0.43040575452305235
P 5.324460281196664 7.188606034743841 11.309243324563878 0.05477606729961534 0.199710695163198 0.51417872327565
P 4.6763044657969255 3.621477194272961 8.865912515000089 0.21406670677455394 0.8143707010850619 -1.3098510766202602
P 7.256678251986816 9.076768549312582 0.8820447580911774 -0.0998179380306023 0.3718378242811725 1.5336224122770878
P 8.135302244386544 3.2371162891208933 2.855574339702631 0.5463223978877301 -1.1796936070658521 -0.045057811570586914
