# total energy = -381169.2120891628 ev
CRYSTAL
PRIMVEC
9.23934476493209 0.00000000000000 0.00000000000000

0.00000000000000 9.23934476493209 0.00000000000000

0.00000000000000 0.00000000000000 13.52271499075725

PRIMCOORD
 96 1
Ni 0.4740837078889537 8.411767289328147 11.268749119449428 -0.9590932129378387 0.1928463639431969 -0.8361813692022503
Ni 2.500009587181733 7.918127584601886 12.137204089458715 1.9067673854054579 -0.7300038075022073 -0.2911638061688727
Ni 8.575285210535105 7.42540257499369 5.902840810646987 -0.3866720610805276 -0.7140310862230348 -0.5204025926981747
Ni 6.437310103214002 7.375066625466314 11.283204074118222 0.19089695352630995 -0.3553904773584266 -2.4311973540954708
Ni 6.503805666493835 2.3833905793009427 10.981418436635172 -0.26513935708065306 -1.1998325439075725 -0.7436473664275709
Ni 2.540801293709517 2.3202488981206764 1.3146608033554823 0.5462509212198463 -0.6749354057731537 0.3491660937152696
Ni 1.7624049875820562 9.160865633643692 4.344739907192897 0.016323419750371885 -2.2168030887781693 -1.856418500639261
Ni 7.003201482922656 4.666312525128925 5.298024072025184 -0.9506142289325499 -1.5465656027013173 0.487949871486108
Ni 0.5287030175853631 2.6870139224302823 7.773437599875634 -0.2017117847536268 0.43548651148006934 0.8979973740677825
Ni 1.4041586390184564 6.184013470267412 13.286459373499964 0.08477081388949272 0.6979352091024367 0.9024734075612652
Ni 0.034692815139564154 7.272251198458119 3.3328755256226468 -2.121896729116571 -1.3831982220538437 3.4750667802394406
Ni 8.353827359172827 6.695947077354942 12.595948637398083 -0.18557759819592556 -0.41363701970514566 0.06240735859262801
Ni 8.250651597724183 4.556373563413386 2.9857884574994222 3.9230210851692178 -0.9347276396092805 1.793094029549002
Ni 8.293596071550036 3.7570039449828525 10.052096512092762 1.1613235891990967 0.9143745298742253 -0.35089001838491185
Ni 4.3175734621864095 3.0138557386070333 10.565486239893493 -0.5559385808212555 1.4086832536988256 -1.3932589487239553
Ni 6.431849650539501 6.722565629225055 4.1057263771050385 0.06503194069966865 -0.6469977988226212 -0.8470216543508637
Ni 1.4647225430478163 2.0786492754717476 4.278897565578187 -0.6334586266856058 2.3560758903702848 -0.8677097788278346
Ni 1.7378468095637438 7.6128873561628385 2.046852070938255 3.0236422573728765 0.060771365651101784 -0.8328548759321787
Ni 5.184685955421409 2.6133671064092256 1.4991548086689017 1.1797110905673491 -0.6150986361211793 -1.239047266433821
Ni 4.639601579812543 5.57680374138724 10.061305366882397 -1.2859043359966758 -1.2373608798703333 0.5567070835561637
Ni 6.585148856589102 4.912698128294591 11.398052823568497 0.37386668178574317 -0.20833494649709924 -0.5422189172423179
Ni 5.09907418810851 0.8023853405167556 9.866497481161964 0.26813906313892527 -0.5625861680447601 0.17320390712192105
Ni 3.704367398643377 2.8889582779405365 3.440300461665204 -0.5730240755486325 0.5851923354800502 0.2931605248839274
Ni 6.216147910879786 7.989667830048008 13.410381159373859 -0.07211610123995968 0.5111923869538164 2.055627830686008
P 3.5291247491048767 4.343138728769055 8.773091263586968 -1.4539565237143282 -1.1044849829434977 -0.09266924280096299
Ni 2.677072387611733 0.716174863672034 10.240278863781244 -0.014486109431316988 -1.2552146202223027 0.08169654583954317
P 5.551155320702954 3.3751048741743768 12.726443293039559 -0.08068224564241588 0.27140359282280996 0.13606175085398503
Ni 0.49073762657894926 1.9571518936279517 13.558685575718156 0.9218813797742318 0.5550415229282828 -0.8011372331139235
P 8.777118693909836 0.2913645806783626 4.965960178265307 0.4628674745961835 0.18401745279765727 -0.6657478257366146
P 4.8253678428810876 3.858442709641638 5.059659143930135 -0.5490446819148995 -0.7710969779980914 -1.9426913529955767
P 0.2386559674507971 4.651557291759757 12.085533978567215 -1.3298912831005871 0.6125049072520742 -1.6188930486211344
Ni 1.173479921718529 8.888600626178066 0.323220917017467 1.2758405240027704 1.131220342055813 -1.8826180418527645
Ni 1.3193229766542183 5.122375815257564 8.64417930768008 0.6449092917247087 -0.22026383672420133 0.7622523831232679
Ni 2.4161717740372 3.49974363319132 6.61329744392943 0.4272911201534705 -0.6668215184167677 0.7012110516402311
Ni 4.17832729931433 7.741341964510693 10.196004848263579 1.3642648754844504 0.9976700447697721 0.8546750571310635
Ni 1.8217677768099183 5.653859875575624 6.376501356552029 -1.5580345225728651 1.450990499107469 -0.34826157962312926
Ni 8.961175678222402 1.6720257184416751 11.070370227030697 0.810193686889237 -1.1522231695597254 -0.5421857500115371
Ni 3.0899786989881 8.801695350617402 8.082337532721398 1.0958031388987837 0.48428913480506913 -1.3010897854878622
Ni 9.010661608044105 4.600029466775511 0.7017651817919134 -0.8610053702244655 0.21564947788064148 -0.6438541109873169
Ni 4.471916714178851 0.0404618619246034 12.395596220967043 1.4695250675765466 -0.2483487678858755 -2.48772382842729
Ni 7.747781787715645 2.55905823869228 1.2748041185039412 -0.6363205216144331 -0.5623858791084959 1.2929049356842248
Ni 5.7427885676095825 8.096483893279652 8.444827512272136 -0.27136168384128107 1.6735953252600209 0.39754577057023793
Ni 6.185907535915927 4.693928926218742 2.5662732429114303 -3.0649102628837284 -0.7850796654304285 0.64397212462242
Ni 2.035381424583953 6.697175910190321 4.110323874991386 1.3311878904248233 0.13827598489648446 1.3700174616975116
Ni 4.979720334218157 8.261027381740197 6.3552841255508055 -2.776647432411734 1.68534243849362 0.6587348847538914
Ni 3.1498958488935767 1.8308408132335388 8.404934793976551 0.14287388867981202 2.053808518089082 -1.646804944540054
Ni 6.4215293025912485 6.112778123193977 9.03786593436356 1.8543672745371869 -0.9646326546988291 -0.445857056081116
Ni 4.6873320341551326 6.108380195151571 12.307388197813985 -1.5786529701541652 0.7913397874075274 1.2814025914715803
Ni 3.614681080350014 6.44722391999867 7.656142271968155 0.38186358394829073 0.49059682219065187 1.1435955757917144
Ni 1.2938963002409767 0.8475666596767818 6.314594051813917 -0.7629645786989441 0.1824645064882406 2.282931604976126
Ni 1.5808056689402459 5.1252030547133955 2.1581843258235307 0.8777666488432044 0.7839465802672498 0.016468687078984544
Ni 7.602040365570852 8.933420686963181 3.0688446220885184 -0.8522618197038805 0.5318010643431036 -0.6509518983743627
Ni 0.9144622865789593 7.80045529143363 7.46609357266504 1.741828803616123 -0.6408688031067479 0.27983141187518906
Ni 2.2361431439819635 5.4897321576232905 11.086894794895915 -0.10407157110063368 0.6893222706224451 -1.2245624425540846
Ni 2.1441562288765015 7.553422934144081 9.656029830233392 -3.1127872890706647 -1.3743124895284395 0.1657011709869727
Ni 6.244309433302591 1.6309937889535917 5.493738337453516 -2.793947871363395 0.7853570874615313 0.36396793461479254
P 6.558502586685109 0.5723727799644277 1.338241458712268 -0.08379945111515891 0.40611885695122957 0.042575925688997644
Ni 6.274845467294511 6.511760742217599 6.63785469801328 1.1175708695931785 -0.49610566782402304 0.4771941756315008
P 0.7469797625925966 3.219699097549841 2.153992435166304 -0.9949855559590735 -1.9554656219421098 0.5543249564772325
Ni 8.382497045550112 2.4068492753086534 5.65008745116446 1.9715388733548884 1.440823585876796 0.4059422221640493
P 2.649400550454154 7.898521695303594 5.933091348889937 0.7029676293200215 -0.17984532369783865 0.6988849746102157
P 7.71353153718371 3.432647512510739 7.5852423131046764 0.025523341082085076 0.6552404984473876 -0.1479073373386614
P 8.959281612573887 5.29813586809517 5.1573199405709795 2.241569754199888 1.1331358139109713 -0.2097128006812324
Ni 6.734890914957346 8.642372091871058 5.130260671962164 -0.29082133522778947 0.6913385297215255 0.15220287939022173
Ni 8.572541125180914 6.26329628651088 10.213084700740874 0.560832675688763 -0.19056888076292985 0.2193593226320609
Ni 8.409254187589628 5.7509376695705114 7.772288225404047 0.48003087374934744 -1.505796391203755 -0.9345373779753454
Ni 7.182832821158936 2.5350636606962085 3.780071816712845 0.2460694849333956 0.5925685733394632 -2.811484337585261
Ni 8.107423277317908 7.924918502902662 8.47836356146441 -0.7622076459282615 0.7631319575147438 0.4751357504405752
Ni 5.946331329740291 3.6111516507025363 8.881056701290198 0.4546155190000364 -0.22156147248970226 0.23818365442741563
Ni 0.21591516852059675 0.8141590373748201 2.1287052728569287 0.5286347507999799 0.6266819700834045 0.9855856028014124
Ni 7.864271444771659 3.076960462408792 12.561574579648147 0.6165369112296026 1.5214598087726248 0.8109184808704034
Ni 8.270488470638147 0.08760007427660808 12.998060622446838 -1.1556923590552484 0.4199156536250058 0.14943482972678135
Ni 3.892480455247155 5.33410463672771 2.8737124353716816 -0.6462182403441193 -0.5158782224652599 0.38012808931442277
Ni 4.203144178982195 8.505740663528393 4.13739607868268 0.15826194110010808 -1.0632576008625947 0.4899661305851885
Ni 4.225826770041246 6.282855979086038 5.246772503445281 -0.200662517553506 -1.4124614897943353 -0.3490545078380698
Ni 5.296509743440835 1.2200924153612627 7.517088287464315 -0.0365924544120531 -0.2258881248895142 0.6151963380413082
Ni 3.6415768125589327 8.789739638670188 0.8198412343203665 -0.3499788194245521 -0.7421694963304638 1.1414605317265825
Ni 2.12702648393822 4.467583461548833 4.450231048405043 -0.5110435200807779 -1.0645716916883279 -0.579193437584138
Ni 6.290931166289952 5.16718663669805 0.3109141099744301 1.2097716573981552 0.40122964717972837 -0.13671352550537097
Ni 3.6444502487379005 2.152314570182058 12.446130816403898 0.029326773988575295 -0.3030394745605361 1.6794067897354754
Ni 5.034167792104505 7.185493752411484 2.1879886037209997 0.6519268606931224 0.48351754674636727 -1.0330216847961886
Ni 3.471286451740454 1.6385608122030266 5.728046269322893 1.440195465374494 -0.5004171507151832 -0.42441045617156586
Ni 0.4006503207287785 0.49390487391705223 8.710427256523912 1.1178765737590555 -0.15229363933181514 0.8767634043896707
Ni 3.9836912654039573 4.271404457085767 0.5582097885858457 -0.32608170109198037 -0.19594222925970126 -0.21088599505372713
Ni 7.682025372005966 0.6474128891552217 6.892460546093504 0.8115558573440863 -1.9731622678909246 1.3635431668270774
Ni 5.24094432485463 1.2613738071542726 3.302679499512997 1.2518151076224506 -1.8477155735486244 0.31072321635803907
Ni 1.9020761603069734 3.0103263089595553 10.12191454370043 -0.6375045146202053 0.7321751041219132 0.07307255161595802
Ni 7.6298045961747 1.679010662979615 8.910860979187667 -0.6556243641493678 -0.02771906318182323 0.7220938086265113
P 3.380907182600073 6.26947740806628 0.6930996004663397 0.24296667763835575 1.8158837737500082 0.7281263879738363
Ni 8.806934059020858 7.756494489698817 1.298683204692176 -2.0904194844438964 -0.09323437127581362 -2.3543558223553838
P 1.9541491066242078 0.8494634971286854 12.117204604079317 -1.828809994893373 0.2955048567463878 1.8395728898368318
Ni 4.827308105252737 4.460764825214177 6.9992627503082065 0.08898253797799514 0.4403510386612222 0.5515862173898306
P 6.680258670178459 0.21760042498054416 11.521204048100508 -0.55502378231647 0.6514054409720136 -0.11788045195926795
P 7.52443911004948 6.315461626274384 2.134790305228208 -1.1989683961350641 0.9724971450485703 -0.7636652043103944
P 3.2128527431813048 0.4542773248122583 2.7557943756363485 -0.7434025974066165 1.4762477310123607 -1.0115005228949612
Ni 2.10204329606707 3.8393080269193187 12.661629290481823 -0.43076853717910973 -0.5380930679994024 0.6701765509319297
