# total energy = -381175.2088697202 ev
CRYSTAL
PRIMVEC
9.15221239367674 0.00000000000000 0.00000000000000
0.00000000000000 9.15221239367674 0.00000000000000
0.00000000000000 0.00000000000000 13.39518795794815
PRIMCOORD
 96 1
Ni 0.981776131199458 4.615387507968873 4.531966922162169 1.9997127646859432 0.3673358226457609 1.1196161821579813
Ni 2.091152408021099 5.384777397645711 10.701790899279285 0.10863682187381292 2.154721488956076 0.9110701480913406
Ni 8.473859591795485 8.482920282095726 -0.00752220339168501 0.4520277036682021 -1.2636892333522174 0.13298156926676455
Ni 5.719482958221586 5.7460792875271425 5.972352180961437 1.9230841202876108 0.3818363302547811 0.7528107780943938
Ni 3.8859012644627957 3.1199343022327164 8.14501144717128 0.9108994268414311 -0.7203747690528756 -1.450942676588669
Ni 2.6469205074980087 2.1003869903574053 0.11141537317072228 0.24488472059667502 0.18087067963855946 0.2861763802566104
Ni 4.15421667611145 1.348102585701933 6.139215317884664 0.3840330807957838 0.02253134833329668 0.46414659841892325
Ni 4.609978550426002 1.0210940357750495 3.6685270671688297 -1.1774487768957336 -0.9612863639344155 1.8878648920740002
Ni 6.051278115246476 1.1827678682535938 10.525925646215331 1.3610196290742753 0.5785992556435647 -1.2597785854439012
Ni 0.7936972506550289 5.24688101304598 7.424081607060854 1.5014041756733305 1.7442623527582797 -0.53598527762778
Ni 2.5058208485497087 2.371036216174304 4.527573860198416 -0.24898048793260344 0.23379375288983606 -1.5150629041073453
Ni 3.768405161357245 7.760124305871948 3.4459791241913016 -0.08751572362448154 -1.2288417866557289 -1.3980743678347276
Ni 6.404352166158295 4.133230653022104 1.723089778821699 0.5685066472942533 1.0843272770487005 0.08064959263226756
Ni 4.08719502452694 5.308997078770966 9.317277151667778 0.03433039785075377 -0.13312195149937073 1.316430786720307
Ni 0.3581086829665291 1.7808191891316292 12.895547845570054 -1.4454600562075428 -2.927310992339294 -0.8428235571091164
Ni 8.47698964844466 4.022314990649759 0.2512813138842016 0.11177768149563976 -0.31567927481173375 -0.7186197340349817
Ni 7.327215505981337 6.086605655204992 0.14575538940863605 0.3369086165041552 1.5126211274350723 1.4794919489812715
Ni 3.517524714377236 6.4616541681480015 1.0079569500609424 -0.5602873447082545 0.11710423591487573 -1.0506558529381842
Ni 5.112718731115441 0.6602891110282668 8.45347578428367 -0.31091630620545163 -0.18307745748189114 -1.0469210684861001
Ni 2.4002775348705367 1.3548020051966565 8.944462693777583 0.33416396387948255 -1.0484935551795427 -0.8888491319096111
Ni 7.460096478172448 8.124565404614978 9.038215212190291 -1.0484781285605749 1.2084184858043705e-05 0.014308960423504389
Ni 1.0479191703912178 3.441277632668843 11.737238349799654 1.157865455447167 2.655623806837794 0.09542880782397113
Ni 4.679187580779965 3.2419424460635393 3.2697386304179457 -0.6264318017458115 -0.33694538327936163 -0.34207859074086894
Ni 6.739185857708114 0.3225294571663399 12.472031961290693 -0.35157470315676226 0.67568745344783 -0.26355864285709446
P 7.8468232141691034 6.83761790233346 2.311473617715749 0.0930101710801495 0.950478217575318 0.3185234291287482
Ni 2.797172378870795 0.9058905618818325 2.3327451898327394 -1.354728910969557 -0.24496493901530716 -0.5459066505065502
P 0.9625656373204619 0.9597467558937202 3.597451900701514 -0.33325816423576154 -0.1413844486184791 0.43678800390031225
Ni 2.2325357855545582 1.1156363901199895 11.306771360183898 0.22227546783759142 0.47452254233660857 0.157827938886483
P 3.9632649160869757 8.606328714427494 0.649070329038332 -1.2523650665886497 0.2966063173406827 1.746987722109243
P 2.6699383217455908 3.353773329678333 2.1355278251824616 -1.2941130970597132 -0.8517224022606428 1.0739361636223634
P 3.225404398212493 5.990113879613637 4.751032448312181 0.8053078195518454 -0.29891799619299486 -0.18190092067528674
Ni 6.37106556957044 0.6684400714135141 5.1792626372113935 0.944879897551934 -1.244520116622934 0.4165683344193277
Ni 8.295428058367706 0.8286577868953229 6.871329161577812 -0.7040490353096585 0.31655062167309356 0.979332937023481
Ni 2.629293346368449 3.4398681919554726 9.878629931166106 -1.2208029755116523 -0.5851859077221471 0.9613066756493895
Ni 1.3829084495522532 6.941678557599865 5.391348686166491 1.1441092822033392 -0.9734708218157492 0.163446313514525
Ni 7.831960021191738 2.9000523987344415 11.561051854079603 -1.0190176572076128 -0.010770865363258868 -0.05030800422593272
Ni 7.553604632513422 7.466951485278389 11.425211056390411 -0.28735497394574383 -2.0089836484649077 -0.10197972156861147
Ni 0.5095622398306501 9.00399234427141 9.37171542638986 0.9316451440292148 -0.7412811801882394 -1.6338411852905343
Ni 2.5791209178574173 7.373351808813171 12.38861961247517 2.7685047486999417 -1.6292124282692715 -0.8083869726978012
Ni 0.5742885165390997 2.277939911392433 1.5592001957151864 1.8100481409048377 1.7616291261715014 1.931158926875945
Ni 5.3112302186025415 7.389011244271466 12.818525571469307 0.2758814260885055 -0.9905740571549391 -0.5557087241986366
Ni 4.300194464282002 3.818916221727983 0.9883602328176331 -0.4072182606629955 2.3175291404453375 -0.9784333080273472
Ni 4.310509007684398 0.3573161013705686 12.193452343407976 -0.4624100753437907 0.6575568052853902 -0.41325006867937214
Ni 7.131550356558252 2.1223523001761717 0.6998184317108642 1.3709451157181034 -1.11408676769932 0.5206905562522388
Ni 5.7386202344011865 3.644182182119697 10.484922819332393 -0.42284439723602657 0.08008137883362337 -1.3514651526166208
Ni 0.9552713240181465 6.850495065214712 1.074706780936446 -0.7455641238343095 0.014589210668084551 0.6869799956425137
Ni -0.13056820811144407 4.970264544728316 2.3685504752798137 -0.7093840743693267 0.010577775515846299 0.10512006696980607
Ni 0.9563329806593869 7.7327408862978855 3.3939250008057957 0.7474086332422161 -0.39157181237499017 -2.427422203323755
Ni 7.808109355613527 2.6475062490931762 2.9377119224187163 -0.42272021295333645 -0.37593564849962996 -0.2697673427709677
Ni 4.870926431072946 1.7207715234145766 1.2976857931191672 0.17003579380658457 -2.1787350782618544 -0.11277424108095416
Ni 5.856830210075847 4.127510520256801 7.885840926177171 0.8158891946121173 1.3001683021148576 -0.49384104015956237
Ni 7.53403720234987 2.607657516196964 8.920163569790573 -0.433948220458672 -0.4437461803857003 -0.6248258907112724
Ni 4.3135749988466 3.6636214813093053 5.589664316307707 -0.5411010015877906 1.3816306204564075 0.499494638900914
Ni 6.14627808021264 7.8502919026779825 3.8280364014089834 1.2989562840846276 0.033099867877762354 -0.5072123192601459
Ni 8.899172055373771 2.295045396413797 5.034018856477286 1.5971073202046107 -1.69719111030209 -0.05454672489762864
Ni 8.799568527558092 0.27705852017776633 1.976459627581168 -1.2508288324497814 -1.0495109407004635 1.2225567249779654
P 0.46574053152096884 2.3911070180212017 7.927915477135018 -0.20094251068777005 0.8828934285468086 0.529696616405591
Ni 5.218262044794613 5.3215905230670595 3.803255871048445 -0.46338992275855684 0.9101849172729098 0.20067151641457054
P 8.040182006061219 0.24364562305845297 10.767668524310736 0.9583133973490204 1.254623266495207 -0.3438045722930401
Ni 9.24016518588527 6.498180647934125 9.715074403813087 0.41250856252765733 1.1411633122011378 -0.03193130149095791
P 1.985892812927086 7.202736264795903 8.431360378181141 -1.0194154068666639 -2.1094093952828383 -1.1537897427158967
P 4.3030682589832905 6.085004018030706 11.511905388581356 -1.0926998173831117 -1.0494240374136121 -1.3554192521683626
P 7.800659454699995 5.0524514123002 11.631818590988212 0.21482081133175907 0.38128739972984654 -0.5660088205730639
Ni 0.15770451795004492 4.298052846574672 9.308798542077733 -0.22890480022865095 -2.2040900120868754 1.4135920038543526
Ni 3.123842296937972 8.635762229584643 7.290397985840114 -0.33686285086788437 -0.3791397572592244 0.8778543234610043
Ni 3.6912977716809507 5.657220457097808 6.975249787994123 -2.618928765409606 -1.0691878503041006 -0.7581681857515652
Ni 1.6779940825425295 8.903116658928726 0.28548130127202076 0.3187399160149285 2.192005827228831 1.310962050296252
Ni 5.505522536161953 6.576907979209553 1.9070465028901393 1.5507708990319164 -0.742955739677185 -0.3850008440256918
Ni 3.704339674385843 3.7639480339065203 12.122336907205993 -1.9292205722026516 0.5686115483032337 -1.4875875815052122
Ni 6.693022098239006 8.162611151663567 6.887269569957539 0.28249430341933285 -0.7081324613504127 -1.176812428863315
Ni 5.5749054585519815 2.4411238589210176 12.504046400351545 -0.6561696951298764 -0.7973479412748202 0.4274973226270057
Ni 1.639188701862709 4.5064670279050665 0.5086918644290814 0.5887959936709085 -0.14066685372616416 -0.33239093113945983
Ni 4.6115069699008915 7.8921815789448555 5.695727475652591 -0.10639250592432646 0.02177030179755605 -0.19879512532746407
Ni 8.31167323542117 3.941226388568813 6.576956485935403 -1.2082187110887386 0.18130596740376517 0.8639685666178476
Ni 6.17691968740982 8.678365778420623 1.078414342189605 0.9450580750010109 0.7021996408057456 2.598156565859261
Ni 8.708476557297182 8.796978451441962 4.7406236371218125 -0.9788819655289915 0.9271439137247517 1.3101590947789823
Ni 2.9146684819763458 8.02351582723623 9.995489040286914 0.4559812889993115 0.7998269989429322 1.1272222766400135
Ni 0.4444488245366447 6.240115714200894 12.375506322513367 -0.7595874346965951 -1.5146623262348173 -1.1223634058858156
Ni 0.8125544691344397 8.385046522428274 11.563851515860254 -1.129870512896138 0.7692444981703849 -0.8009099475944659
Ni 9.43474122202984 7.590250091061064 7.158348034537146 -1.6596265217847546 1.583571490501705 0.744483489175621
Ni 2.622593926873725 9.14880780146405 4.8346315022611615 -1.0383196999703341 -0.2805135255438782 0.12671579086271081
Ni 0.3137890943009558 1.9774636252841344 10.210495560226667 0.025667322859117082 -0.32847719790735047 -1.0217309423737178
Ni 6.36810940495733 2.858949812736075 5.083580832419605 1.132447529594695 2.269344867430627 -1.2706993461214633
Ni 4.877232305433417 7.085231009477928 8.127945316663341 1.6029169849078524 1.7993178989715268 0.7847117405680486
Ni 1.5642046254688955 1.0687221492320744 6.667294313892534 -0.1738993905270489 0.1592279045578032 -0.5367740920776627
Ni 5.723271974165323 4.665376892231416 12.636363596257306 0.8161496473623557 1.9646467742207454 0.3804348219215642
Ni 2.2535950263433002 5.559639568227939 2.564213794260414 0.1948651941454386 -0.6108545161328447 2.3086274670803335
Ni 5.268516843217466 8.120410300174262 10.490320794220354 0.43836820390323855 -1.4854790198026415 -0.6716559636909335
P 6.262163393931482 2.169971261420772 7.050958719611955 -0.41481638472522747 -1.2929612428434574 1.2723800762579958
Ni 8.032018232578576 6.347828102224669 4.859251868904272 0.14173771819283976 -0.3018919912196543 0.04703447568098351
P 7.622447574370405 6.242733246954297 7.581153707132367 -0.21350157829970326 -0.6756596855336879 0.022466556533632276
Ni 2.1653127852967087 3.4542463176743397 6.53690548914461 -1.1721610461342329 0.2807181853555165 0.8857627796748035
P 4.1637532814577645 1.9697849190599908 10.435775438612902 -1.702227901395049 0.39045492516172753 -0.32640617431093466
P 6.405258235188319 0.9458903062830484 2.793459326290181 2.145821101142653 -0.23062101158880927 -0.6431357447640537
P 8.148754702052894 4.190596720498783 4.374225795362426 -1.7824414349311626 0.6883786757622532 -0.4060185839279395
Ni 6.597363173978279 5.7085460643743255 9.621696210888544 0.9545652431604981 0.8397922264819601 0.02023072522457806
