# total energy = -381176.4433465309 ev
CRYSTAL
PRIMVEC
9.18001070511249 0.00000000000000 0.00000000000000
0.00000000000000 9.18001070511249 0.00000000000000
0.00000000000000 0.00000000000000 13.43587359664154
PRIMCOORD
 96 1
Ni 3.4417512262848833 8.021502470617463 9.120029360946823 3.640107691934595 -0.0462474610033139 -0.34961012323122365
Ni 1.7028093522178431 1.818459126165045 11.04740472326019 -0.4665631782802158 1.5321419710768192 1.2321533675274652
Ni 1.6371906362173196 1.1025284569640317 5.641897752525667 0.5148572373999132 -1.1442329522653971 0.020988172215892886
Ni 0.2016820795910333 6.811053808658725 4.1116863702132305 0.7059647642751326 0.0726478053737136 -1.0254207325204792
Ni 8.213915493472943 4.698265181597095 6.685717287492196 0.12166845824679044 0.3986942823523843 -0.2263609507608747
Ni 2.114670529241276 5.5847329083165365 5.08786942284223 -1.0109497925978137 -0.3355492742627834 -0.7386416856828634
Ni 5.309185709173879 7.932639967695656 7.175092638293639 1.5532885232474474 -0.243420991566955 -0.3688052081024358
Ni -0.15625846898076587 9.134743999989526 4.594397033295538 -0.21099552404839791 -0.674845931383141 1.2101506380041287
Ni 8.442993478794302 5.281948617627494 13.11988851364019 0.3929563514273426 0.7941055230781227 -0.09560389994925471
Ni 3.0878801764264354 3.7215579503609835 11.348933188494717 -0.1973275396430021 2.0892390909825505 0.6217063712456841
Ni 4.338775965231607 6.7265426307766845 11.66169339673801 -0.4811572740443069 1.2088869408003566 -1.4926876217359388
Ni 8.333228091662479 0.6492718579958366 0.7688515944947765 1.0715193266507546 0.8286734908609792 1.8465058695112393
Ni 8.275136984380538 8.062206637761603 10.389436641192264 0.14123558174544065 0.1572422415863421 0.32990544571344477
Ni 5.8480890533393435 9.390141075794027 2.395078544013799 0.13601418544550123 0.07668623710914535 0.6904939223330431
Ni 1.6310033090510698 8.749385513661885 10.786547377131528 0.00899166197564903 -0.6090431739557188 1.4514540690074489
Ni 4.853691941614563 7.658231089871418 0.9398944705990515 -0.8840789642144773 -0.011915263380347221 -1.2489848372625072
Ni 6.907609160490496 3.4763598663690995 12.747741898614724 1.4195477072171554 0.6416036243902433 -0.75170726061757
Ni 1.4558395261739026 2.1690161921851905 1.1283986449272487 -1.071749697494006 0.7189724893887101 -0.7191375542116647
Ni 3.4384280624359485 3.208147495721743 1.487862157262966 0.4144181208455443 1.8462672711378718 -2.292011712900524
Ni 3.822161686881652 5.509906641651698 13.405938562947398 0.29699223992519175 0.0005057359918249354 1.149891178992439
Ni 5.872847542014974 6.791876766447604 9.427455065011616 0.5338484337904355 1.000894722354657 0.7477171656215704
Ni 0.8110814794060257 7.142700052776089 6.421944369986677 -1.4397555496235976 1.0844614886337194 0.33408117435768914
Ni 2.901039420024832 3.836794623829727 7.380473344168474 2.000376109301555 -0.3956660370490218 -0.8447966216750871
Ni 3.6611626604103056 0.872890490994096 10.34031532229926 0.25608907395292674 -0.5247726967414124 1.1142631453761842
P 2.1992184271658455 6.445239564967501 2.974016832548302 -0.651608043901123 0.4664312806880419 -0.022778431347096253
Ni 7.420588154630014 2.5394296212032557 7.6776881224068285 1.003313873319111 0.04144541162898024 0.22554539683811478
P 2.083247352846509 1.631948850146209 3.141253676244377 1.7144658382221376 0.3123684652709459 1.104286750889763
Ni 4.283493941203186 2.7164202261962744 3.396266109603379 0.49071689270828395 -0.7419136715659158 2.084761257716855
P 5.146984101309685 2.8396067888726915 7.767587048529034 1.1736697694692755 0.6117335763036883 -1.39502786769892
P 7.3557313795119805 5.356049663452373 11.106792048043431 0.894897137875904 -0.9791200496817265 -1.0870477613036569
P 2.7139783433680513 6.302628099792887 10.190639838943 -0.9363906291340003 -0.5720835660122341 0.1600617133130082
Ni 2.37076528585384 7.965908326227539 4.729440497704786 -1.067467268068568 0.6193255297183334 1.809675330946451
Ni 5.639675271951558 1.7711178113336654 12.039725316579919 -0.41011537970513234 -0.7912292299715922 -0.5559226399816555
Ni 1.581045691189451 5.529790544681515 7.864581204869036 -1.1281794983469604 0.17094519299473143 1.231271222032828
Ni 8.328500386186784 1.0121512522878766 12.058535158365743 0.10975396619739161 0.893651695504577 -1.9956056844961052
Ni 8.409211039667003 5.116276965744247 2.4577440505938744 0.06007588224597395 1.1311213545841035 0.5242487059171422
Ni 3.999703092512616 9.124251247836671 12.369776992850433 0.7799330882324826 -1.2121144465987188 0.47352418297908117
Ni 1.554377760302277 4.317818000957796 2.642634972737152 -0.3044931762879272 0.2595292099827272 0.5269416793682731
Ni 4.721297828273832 9.609267929589842 4.700164525796941 0.38177462377891025 -0.9107492744168121 -0.4140203711864934
Ni 6.50317461206869 4.384510778202313 8.925437003567206 0.8436895046538372 -0.05327814259785017 -0.5963084999978697
Ni 5.8032538814106145 9.053877286328555 10.48303143959508 -0.7099438035275386 -1.2010481614822284 1.9026083689317623
Ni 2.0863318364190016 3.281449880621601 5.113854360938352 -0.8778545805713203 -0.3203383708502999 -1.0694673292177324
Ni 7.074125373351927 9.114272576279234 8.711511543795718 1.1329969743402615 -0.6161173071936809 -1.4602217878977497
Ni 7.05644467287389 3.228361879134328 3.2504471487137994 0.32308456613686937 -0.9506173142563433 0.35875887961002734
Ni 7.336857277651729 5.800169397838122 4.528507506981358 -0.25611169966074604 -0.9775131102059229 1.447661691844552
Ni 5.711306894916316 5.53489463059314 6.821030644214036 0.9427340548535248 0.1399960529113847 0.29588640845552266
Ni 1.4565188469607013 0.4326502291016064 13.031399637151123 -0.6667410428878194 -0.031185681574185005 -0.062031206200131875
Ni 6.486255852473144 -0.1395040315755398 13.235652119719234 -0.726362096984562 0.08437666377486759 -0.0629038386130723
Ni 4.006927760880329 5.23773768642177 2.448526401917863 -0.8774887125914694 0.9035105905765278 0.6745816219781609
Ni 3.875222148337028 1.9278022328077755 6.073942100925533 -0.01615526960362379 0.826017798405687 1.4691635704720698
Ni 6.160668415373176 4.82497686835636 1.375054514607561 0.05911069011922723 -0.5630047436394175 -0.7156799346803674
Ni 3.4078678070406285 2.071983479800532 12.837829014954895 -0.4933995817467696 0.10896669440940587 0.2323955869907288
Ni 8.054550508894167 8.402739132171147 2.5741254713884794 -0.6111699904907345 -0.8225336965118286 -0.27191807056538336
Ni 8.347328587993873 3.2354488473425547 1.3148171208397605 0.15824728581208877 -1.3426444690011974 -1.1319747037233345
Ni 4.764645838480109 0.6983821608760832 8.304968346931645 -0.02716576178151451 0.7699500088778417 -0.696512103502665
Ni 3.6065140571155214 0.9321841796688836 1.5154728752420896 0.15027815156368313 -1.2885857394835807 0.08028501020399723
P 6.867722014292641 1.170047435165466 4.2266035793119645 -0.6714798431243855 -1.001844744972752 -0.8519797696870874
Ni 6.4972076051576195 1.9545711438119062 9.69825528065625 -0.4265953796380266 0.5579586965750778 0.948742465831134
P 4.823269386378731 3.745572858175389 12.970387450485948 -0.06185354297168703 -0.7744777215448662 0.3736049434839243
Ni 6.943539722105782 0.627989839346702 6.484810918799601 -1.600488577972018 -0.950432194828731 -1.2879054255871043
P 7.581669801197052 7.31168568849764 6.555658568856351 0.08386347158387492 -0.1711979324354858 0.17983478217487736
P 2.6903489960002074 8.079712918037625 0.2667977310089005 0.4173491784494103 -0.8495248803886918 1.4155241878800588
P 9.149780857405426 4.308564550240319 4.670013698875828 0.5311356628449627 0.08745196026608165 -0.6888820977612329
Ni -0.09797458147554412 0.3975036403943309 7.2279355334970266 0.7967283054129504 -0.11126526063559547 0.2971498485489786
Ni 3.852308841798513 2.812479857453896 9.374222019356349 0.8597504147714419 0.8889864288184238 0.05301948961982482
Ni 6.555950493194461 6.941336519554001 12.138613309113389 0.5657517102569354 0.7067960019271763 0.7732903861049844
Ni 4.148575324938538 4.494358785429826 5.3904994893526474 0.18504615117248777 -0.705909742667481 -0.4073840968168984
Ni 0.4730477838906249 5.68224298125408 10.5129399142355 -0.4645284072383742 0.20798116270210631 -0.08519633146268553
Ni 5.327518190406818 4.540488338857727 10.854224251515841 -0.04504392761351597 -0.4117477731022329 1.3868257915041018
Ni 4.683108984042972 6.784734718175582 4.810391667463574 -0.18526880870625512 -0.18610107479956337 -0.5101842574042762
Ni 1.9092494313196589 6.665027379528852 12.22374230171099 0.0010816630999529759 0.14854239981949902 0.4884944311356684
Ni 1.6797124454666796 3.5798369462177146 9.464834232304696 -0.773105780898004 0.13076296434889093 0.05303183091499899
Ni 4.202737387669805 5.374574924908592 8.91073888854364 -1.416026067217142 -0.40229279833692005 -0.6236107873572486
Ni 8.62138862541408 3.118660752076933 10.579084644845262 -0.5127954697748781 0.7869370303541414 0.6489736916020694
Ni 1.3998781813586822 7.805836480830066 8.845090796509094 -4.0871150595700705 -0.820301207636884 -1.9524954835701924
Ni 8.038513030319333 6.396906808987819 8.715743528697262 0.7621096868978166 0.3328462735093235 -1.439143627071212
Ni 6.6354402052605685 8.066851723141607 4.616552988956879 0.7294623331764405 1.050857427426029 0.9830888045214874
Ni 5.937052536378106 6.756350125300146 2.7835371199320087 0.39233003069725336 0.2876557930156143 0.21095258662560445
Ni 0.3988870679966363 6.930173626624981 1.3596697347886917 0.5742682323683788 -1.1079410598128983 -0.1704163170744549
Ni 3.4259707880077572 6.56836186756949 6.7192133102877625 -0.7145679325631114 -0.3305096549563469 1.4300925726125369
Ni 9.323953199134293 1.0329164363384062 9.611606996298983 -1.7748463961927239 -0.6633752117393802 -1.003410032577343
Ni 6.190402469811578 3.0720079380429848 5.615200445604469 -1.921790855397484 0.3856868143491229 0.33367134051378017
Ni 8.971220470594265 7.8463754077828245 12.594667057321281 -0.43894593078357946 -0.13716089745543475 0.4565628725343943
Ni 9.155500004029424 1.6637667669981697 3.078279721307053 -1.0979579804582575 0.8154369375660472 -0.4000618521238723
Ni 1.7372619321213079 4.645489300471324 0.043271816118028626 -1.4520083988490218 -1.3551711407132985 0.42955137694255696
Ni 3.59523182404828 8.270482718989904 2.9909732301874414 1.3151439495880834 -0.994750814240448 -1.7653353713784954
Ni 1.2115043631814655 8.954145650817967 2.1549395638814404 0.9790943386501137 0.04107440144280668 0.3462592044811198
Ni 8.263974091451518 2.2486160643788864 5.378622391596425 3.2410999921068506 1.05802129216432 0.23909691027030433
P 8.956183613178363 4.402861619456516 8.74758623157793 -0.12061687705382453 -0.7766276780083334 -0.5575498911724334
Ni 0.8631293856886458 2.7945145766462542 7.332130490177097 -1.421884582880448 -0.32179592923243294 -0.34606020109643626
P 5.626116396247477 4.657083653900067 3.8025265621399735 -0.985167027206755 0.6210939344726659 0.10099781727131638
Ni 5.912229787628048 2.262762460763443 1.2158621142286743 -0.25122351833050927 0.18427919109947616 -0.35061953833234455
P 0.1897150177306132 3.0669038521313605 12.828827096528745 -0.0009065709746694064 -0.1680688998882009 -0.506738722057837
P 7.1400745697352175 6.908811741883343 0.9941878074823611 0.8459698160475817 0.2935952984285008 -0.9951969006389313
P 3.318885963980602 8.701263897926749 6.646982232628708 -0.3293079213387619 1.799517930797475 0.07463398256580694
Ni 2.156990378256723 1.0740612439929036 8.464533455742208 0.5699469792852054 -0.5756077771154087 -0.9410080733013536
