# total energy = -340872.67921893095 ev
CRYSTAL
PRIMVEC
9.21298854294316 0.00000000000000 0.00000000000000
0.00000000000000 9.21298854294316 0.00000000000000
0.00000000000000 0.00000000000000 13.48413999574932
PRIMCOORD
 96 1
Ni 2.396657596376329 0.8937510859913662 0.558060190578201 -2.036014941551087 -2.4156496361688586 -0.19604790159963012
Ni 1.1878213848873245 5.0419921763706075 0.48702252201401297 -2.8755107198385508 0.4826544274151236 0.7996207964693971
Ni 7.203644863954454 6.852630004890885 0.025695946021370188 0.36641691037591734 -0.7105297579379957 2.526432814961714
Ni 7.529885997138185 8.853083033969869 4.489045194369317 0.850386971278671 -0.6406633719641611 -1.819068599235893
Ni 4.071311715716073 6.514200088018412 8.325337260511425 -1.6601481986161795 -0.010080524164453607 0.23805767037251258
Ni 8.814213435796923 6.589700528176573 8.772390153534326 -0.3931360715383165 0.11940537324422662 0.16725977372334422
Ni 6.48084906991316 1.1037068005500437 11.37422284477463 -1.2923742599917356 -1.2952811492258853 1.1563806433715245
Ni 2.764937595751845 7.406035793715833 0.18647733485165377 -0.7446182149812725 0.37108629082712863 -0.002762393236485565
Ni 4.8589669482825 3.4868765818694416 4.0262159799642525 2.62640321940978 0.7325319732406997 1.011018183941904
Ni 0.11008968390798499 7.062704567000269 4.046860444431172 0.04966111467055318 -0.3603133685813408 -0.5150361861799387
Ni 1.009246030209393 4.020234907877531 7.5201589239571 0.8150103915515899 1.3095325169385768 1.681291151242382
Ni 0.5545712318609471 8.664032511450591 5.809061907596047 -1.3753797544506894 0.5781547119069784 -0.2887071170982641
Ni 6.470401541037094 5.642688234790656 11.706633916307833 -1.197826826331453 -2.3072634968532717 -2.7869125617831676
Ni 1.160477235236388 3.285535932788726 5.340892845098772 -0.8281793248333802 -0.029674644246297278 0.4377835350443621
Ni 2.9845015359409 8.806667998275321 9.280364853828715 1.028115762854139 -0.041663184066741146 0.8485020955511322
Ni 7.3819161900143 6.258410677334922 5.2434968166453215 1.003882087117755 0.8274308767031298 -0.8358671803959411
Ni 4.163386322054165 2.505932852107379 9.716495749071568 0.7856381090370599 0.5245855204312706 -0.037399009473748496
Ni 5.647442136818918 0.26678511237095376 2.648743385712219 0.09745072335000636 1.423373765831465 0.2867150263688998
Ni 2.713409351480387 3.8298761410016393 3.8159847970516116 0.07905113779689611 0.9874946468986671 -2.004127091703555
Ni 3.1397772428872894 9.457961789135712 6.103447290696204 -1.2575512387752796 -0.3528548554207665 1.8849721439072376
Ni 0.4211137241070608 3.6373615348338606 9.970685784964154 -0.3865612465342762 1.5547231988114452 0.12377007797082556
Ni 8.319724707961779 3.071545850597924 1.1739641289944764 1.2639977657315715 2.871424208474003 0.03211076449161567
Ni 7.513136784178143 8.370810728788747 2.027947350441278 0.6216485214245552 -0.07771339282207906 -0.5364218509445664
Ni 6.173264238293832 6.720534176826488 9.336215832270058 0.2490699623226162 -1.3693320055947127 -0.6223316635345089
P 8.379553854805843 5.374000640309555 10.517589046557418 -0.9204459328792858 -0.020423300851358375 -1.6637852811481348
P 8.467970904738468 2.7198676563676196 7.861563714792608 -0.03917281354471964 -0.6587940201266009 0.0748530405551485
P 2.4163273266676866 8.654137761880138 2.1442613293304533 -0.36580344516163454 -0.9355025701020921 0.33314966368235527
P 7.766125446379865 1.7126945485542713 2.7529763728772454 -1.078350233529659 -1.7188662812826783 0.35358556293920396
P 3.2075019208131765 7.829114648254344 11.552684879694912 0.26274180338275394 0.6803090113802412 0.007175948923148932
P 1.8531373441334067 6.153806406736293 8.39821936935867 -0.6049741460926678 0.31869903547466405 -1.0072420047289234
P 2.968452510101301 3.05759738611965 7.841579821595893 0.03310526719440105 -1.467392080393944 -0.30684265035671027
P 1.4658048846911331 1.1694230469988742 4.89776284254803 0.5170863838407482 0.38662012479666963 -0.39223901364534386
Ni 2.343526292118596 8.186099523818523 4.377382853336866 -0.5200945745394526 -1.389307420275375 -1.515563240782532
Ni 1.1421894532090604 8.313155847213423 7.987505266587856 0.3695796243746151 -0.6659956800813627 -0.7228304296822197
Ni 6.6980544850649375 1.6187128536118174 0.6383071623738837 -1.280824093260291 -1.044905323607652 -0.2453616602330936
Ni 8.445491212976918 4.800667157517296 12.506822498330168 1.7985920765490961 -1.2804649101486592 1.1570267615959557
Ni 7.3352431906438 4.415094378864554 8.628352449871027 -0.002374156659131395 0.6019960373009504 0.40474100276709646
Ni 4.868668225095989 6.218757975145694 13.203507761870883 0.19733705272469887 1.0204284215122101 1.6084222309967975
Ni 1.8116881092009394 1.7899823084672446 9.725476570190075 0.404793967492219 -0.4153509170724589 -0.09488476239504305
Ni 0.4696947333807646 2.551297607121264 3.0895268401106373 1.4224376271704406 0.9588656703080647 0.5609720294801048
Ni 6.411705591769534 4.197391462337726 0.11054204163974407 -0.2871626554292796 0.1814229525976037 0.8584913455533603
Ni 3.591950714877841 2.4692927971337353 5.715252495537176 -0.4731202626724432 0.5889865124151598 0.6849776205005041
Ni 4.944951769270435 4.104460048075935 7.777261185491418 0.5093293656031487 -0.011143418211329196 0.18257634947575652
Ni 5.026624911674596 2.979931893681175 1.7862436777636228 -1.0046603600446764 0.06887368304326204 -0.9044842673437069
Ni 0.6289126780750091 6.302485613969046 6.4896603720446135 -0.01577783165954702 -0.554937907470883 -0.5803046683704458
Ni 8.599560018439387 1.6128441799839042 10.313397898857431 0.6944791322330363 -1.7106171539000086 0.3981247830021595
Ni 2.150302285841949 6.194841057189551 2.5669624513434632 0.03134406152892021 -0.04454230538674909 1.0763681701026235
Ni 3.435753709088766 1.0704110603753523 3.4140893668029917 -1.1296753661661962 0.9625842568102324 -0.10587185753416606
Ni 4.650007157772767 8.471241515630007 4.692224755940035 1.9129341763378025 -0.7737824952500545 -1.1654705214879348
Ni 4.8305633049624745 3.2241037259583876 12.073779796808001 -0.7182834337414855 -0.09419262142402487 0.3545623250301765
Ni 1.186697400299247 0.30193082062175974 11.872151702488367 0.31484598027716104 -0.41875634320958205 0.09928134880084191
Ni 5.126963568631587 8.966402791620311 -0.024087358242039492 -0.5024439513372251 -0.30540488946891914 0.9788775946536175
Ni 8.24218819736128 4.2198343021455695 6.232464138028341 0.22499620920286412 0.25291581843126765 0.015339715680863904
Ni 8.265764234745628 0.3807580709008625 7.5393735326201705 -0.47808531998720244 -0.6935193394229282 0.6284277491299177
Ni 3.221063439777522 4.7327582198228715 0.07676814736569834 1.6326132264207045 -1.8512205013780891 -1.0351209905273784
Ni 1.2388613407721587 2.7870487679763216 12.899791464091997 -0.881684752950688 -0.02843357275034458 -1.273802153416503
P 0.6204975344459103 8.990596099229261 9.86143724689954 -0.9208213139408334 0.8044238742849952 0.544576875951533
P 1.892053007248486 4.251444065438144 11.50495146535648 0.35657087081977296 0.20997171076957385 0.49910408833071457
P 5.085145814162044 0.519884330433799 9.639150868630347 0.21968148185817005 -0.9884770654165944 -0.44003916384775826
P 3.9095592779055974 5.195710888272856 2.0084222640682223 1.355056469512305 -1.1422578308168974 0.53544534596391
P 6.10875489332892 4.527216448019506 5.82307209909678 -0.6591084660432261 -0.2655255367754782 -1.2570462741144028
P 8.187011609672783 5.2476445040350965 1.5204581746369836 -0.15736025522144514 0.6819817710969738 -0.12553976827673863
P 4.126930526849059 1.7033157263357221 13.609811607081758 3.304947682690431 2.2160775234660544 -0.8124837684749942
P 6.161582168968567 7.143447197573317 3.4691185466766585 0.3268890274846241 1.6657578314934731 0.4399879988948487
Ni 3.784059949554838 0.6190557017571059 11.458377044962148 0.3011921369391522 1.237135908343721 0.5094720618285999
Ni 6.128120595002192 5.19711126251374 2.566476926853367 -0.26544171881242024 0.036092631957499136 -0.7656241278089781
Ni 7.616239337663194 3.6496332354184453 3.9164551997431065 -0.45580851086687313 0.07529527029888969 -0.20923123305912356
Ni 6.952563290357093 3.254617143628166 10.853910110378983 -0.5457816948929116 2.7975731268208075 -0.9220482443693991
Ni 2.296199170569789 2.9165465333043414 1.4658205467714587 0.4355919267096821 0.8996829893003214 1.3420891107183597
Ni 4.742634543416472 1.1812433111505425 7.539508042251202 -0.8053548707396969 0.8069206725649198 1.1493525328801497
Ni 3.116625002970576 5.027942369019638 6.279604235912083 -1.1714984728495694 -0.21382450885676077 0.6159761536301261
Ni 1.3607399646711604 6.788415475555633 10.629979213675593 -0.07708475809914465 0.373598258615705 -0.21652262451421422
Ni 5.872266693399714 7.751052997313514 11.576592584662627 -1.5858381750486945 1.785727561881602 -0.6211628400373882
Ni 0.41171831850934354 7.330830169187331 1.5329850750009928 -0.4803728304697985 0.3348087965523331 -0.34413033106357505
Ni 0.5410069490000733 0.22843973323949743 3.105478208272912 -0.4237846496621089 -0.8126663167994456 -0.20190101794629747
Ni 3.5423479851875976 5.788769379287033 11.316982547678515 0.49903723964852115 -0.09412345874898628 0.9018481152724404
Ni 6.260815267314333 9.237587105965094 6.249588319617356 -0.34659396211271926 -0.3266326884994439 1.2016641977996725
Ni 9.225702350894437 1.0540856448829468 0.5110896116815133 -0.7603353686062131 -1.6110756094592444 0.11349826373117226
Ni 8.180709925588808 7.3564146380487365 11.464606867736393 2.453187742323633 0.5408639458763201 -0.1938586072577952
Ni 6.7129150353974705 1.9118701453546736 8.833905277260506 -0.6228849649348176 0.009463716516061121 -0.20767211610211975
Ni 2.8472740733227404 4.566887576185588 9.550748559479203 -0.8731636028535542 -0.7128949157360626 -1.3348491413264945
Ni 4.078027984279258 6.1193037650776825 4.432614718955924 0.8059014872717862 -0.6827675002230629 -1.5814793838593666
Ni 5.571020397818071 6.440929191059552 6.593555242534374 -0.6683215000010619 0.7729988230064946 0.604094828811508
Ni 6.504028948795153 2.469062472423064 6.246999469869407 -2.312726833960688 0.13010630460149852 0.756174038139672
Ni 7.214267439610631 8.647384641363246 9.799019250307527 0.7073649870567689 1.6511215696375372 -1.4688524669895544
Ni 4.270726850215573 7.5273984902629305 2.0237001627764934 1.2030135127387152 -0.7077663362602457 0.7689524208512628
Ni 8.413798532788501 1.7652914994832454 5.559308846929839 2.01679028899352 -0.7976060800322134 -1.3862454935205997
Ni 1.0522522601860007 1.6152856219170237 7.228995322909817 1.7347916942636834 -0.29352356465030094 0.02959468293798129
P 5.324047817059091 1.3966153416053741 4.600734253068206 0.07824946783120716 -0.4225186384654917 0.28745524696903396
P 7.350380130629139 8.938809891281851 13.233038153675516 0.21768039226774125 0.04861467568390983 -0.3379748529851405
P 7.35631329517604 7.526864136934173 7.3402799314167675 0.28511091510657344 0.146223007657703 0.14218509014290354
P 8.00136067988302 2.449134778455754 12.44789714565078 1.2026823546515417 -0.20521465570056271 1.1729367479579929
P 0.7105102739740702 7.0052155192166286 12.93265235121294 -0.6095195993715052 -0.10403866098016921 -0.6464432118707318
P 1.2190994805965323 5.2432038436133475 4.382750340394358 -0.4247205312128169 0.6509511270434144 0.9810943997992779
P 3.5577152498836093 7.295636553396705 6.1960028150301785 -0.3525211262304316 -0.03349350377175522 0.5520981240292427
P 5.0493809930889535 4.8323137727635785 10.018864186643603 1.2025900520480515 -0.5705108222084755 -0.38687852066437883
