# total energy = -381172.78654797544 ev
CRYSTAL
PRIMVEC
9.22181742722634 0.00000000000000 0.00000000000000

0.00000000000000 9.22181742722634 0.00000000000000

0.00000000000000 0.00000000000000 13.49706196033127

PRIMCOORD
 96 1
Ni 1.8722686627878402 6.840725569723553 12.238217378793353 1.3467379223442806 -1.3432047123800417 -1.0939650572487805
Ni 4.7777958359244215 6.23215018596306 1.682543606224318 -0.0016966709761325617 0.023815614362358985 1.9531994516157525
Ni 6.184648605465881 0.5152588931355663 7.258503399577907 -1.428430868639398 -0.3077139972180701 1.288625848692897
Ni 8.463516411274707 1.6322616478354874 10.103508708485226 -1.9049038498341584 -0.028875031163137367 0.8782806123651454
Ni 6.487068879359198 8.008345956959092 2.2185257670153415 -0.0014593581543458738 0.07087348708211019 -0.25983979924461054
Ni 1.2422894412610972 4.220632083162136 4.335809813687395 -0.08429438847370645 0.545574463978112 1.1936930066687377
Ni 4.206633364623072 3.7341904466555027 8.213853231511912 -1.1328946444344423 -1.040036425551125 1.4992418779146888
Ni 4.451223622733472 0.8411689798501625 10.455107089246209 1.3166575580191324 -1.0352744853861073 0.08736994207523661
Ni 4.120833577213686 6.588877741461479 13.009129021975722 -0.13136383115768344 -1.0885467144466865 -1.3845220830715899
Ni 0.044075675400167866 5.582842035544435 6.026708386312498 0.912754220661983 -1.3401708106497243 0.3965103873271881
Ni 4.770031065825679 7.728463804350012 8.88711320779451 2.9054653572191125 0.8092536915734709 -0.4805270966594756
Ni 3.200394778727201 0.8337666271681425 2.493002090370403 0.24436921441283718 0.14239874881560638 -0.6178785128591617
Ni 7.963417263466129 5.1320427225908185 3.55943147725736 0.3205810829887253 0.19251700562823618 1.0473198465864157
Ni 1.4048147479359707 7.677992798708185 2.619401850269962 1.0403701547414599 0.5436049989565671 1.0723001706808373
Ni 0.08652646660627578 1.815526821436813 12.389330686659209 -0.7748633870190591 -0.8029539746076881 0.027326712839411002
Ni 9.329712480876626 3.0345588396705594 6.1297575828307895 0.5072704261915909 -0.3170722985045184 0.28330188692229274
Ni 8.444842231405403 7.554660215215801 3.8961154130293925 -0.5940461863262543 0.490541029252052 0.2329990249026826
Ni 5.113645197238097 7.910576250798911 11.206002778153849 1.776585747481334 -1.0550470400273444 0.10838382532274236
Ni 8.04086208447473 4.088363558784145 10.120272127826668 0.08138389969513081 -0.029353256351136545 -1.65532660885782
Ni 9.023594258278326 6.842403940457485 12.820737440182128 -2.2086421502339317 -0.48847231964848137 -0.3973691357830576
Ni 5.84998885857351 2.4024862656350106 3.882538131537256 0.03300910793616896 -1.7478487845579576 0.464447931709426
Ni 3.004440384631968 3.891865077472967 12.023506730655564 0.9243681507518273 0.6841060165288283 -0.9295823479629152
Ni 1.8237250169448682 4.171581237372097 7.461216463513246 -0.5047751705735629 0.9042837212971265 0.12304888353408487
Ni 3.3205273916444487 1.9124850076816848 0.015024184613862011 -0.7795453658757607 -0.34245474313336505 0.2271165979799766
P 7.040221141631039 5.70926392780532 1.4853249009883038 -0.004717717190643489 0.5092334634552327 -0.31596081060789455
Ni 0.12707571910174142 0.4635263428981227 4.726319652205678 1.1563171371234409 -0.26762587094793266 0.0074263743710581785
P 3.9282082591346597 2.8409375653318367 10.339747688921728 -1.564230109860616 0.6671814728593477 -1.514854130530649
Ni 0.9666124373040684 8.52110665980992 0.4012274344906797 1.1804939914799604 0.6923014078554272 -0.48593566926955667
P 9.231131254801136 5.334129625136959 11.346237108245967 0.5776294355311278 0.044295736593581776 -0.05976889252851643
P 9.054219913263985 2.8541708730416895 8.392621847037052 0.4601971268528719 0.2519542258489467 -0.7262212005313234
P 3.674506845611484 1.281851037132364 6.262299072998475 -1.380373351010539 -0.2737371260519931 0.01137970259185137
Ni 2.7427713210312223 8.156476006954467 9.74871127933083 -1.2291683167572123 0.2572522410230924 1.9989614883422155
Ni 2.9608304110013806 8.223795272656156 7.503408121655488 -0.839877844217231 0.8428415548312452 -1.7636181315770723
Ni 1.8507357195805187 5.6924156677454585 10.058509929181396 -0.7577550094735466 -0.12095651978143038 0.18615198264215682
Ni 7.358973253819931 4.223269522886887 7.2684509738124845 0.17089634203466697 -2.4283375160491727 -1.11846998436868
Ni 6.492989286014058 7.200238114022234 13.41817102437813 0.42222244738131154 -1.1684337178813167 -0.8541004155745161
Ni 7.307663062811136 8.420026321267972 5.83977385163957 0.7485319482133818 -0.03261752892470512 -0.654037479278222
Ni 7.22888107830572 6.712385539481031 10.33752062006324 -0.03248306022936987 -1.4879542208160115 0.667413900585128
Ni 2.8985278138670494 5.895258759303591 5.571573897084038 0.049879144218630225 -0.8925039550533791 0.9927713219165741
Ni 0.6199255963941426 7.822129801847555 6.351852140016162 -1.5112574143183264 -0.7282685699786554 0.8570805812487626
Ni 7.5170167573261715 0.5686052613864065 3.5217880193677304 -2.9213856279937946 -0.045610084529631126 -0.850215221587497
Ni 5.591261554665755 3.686578204351691 11.338463116330004 0.25603173835243004 -1.9020260140657308 -0.9889079823064261
Ni 1.3055326637518077 2.9175339791562527 2.560973338549505 2.714097634703971 -0.7120662491871801 -3.17999181194162
Ni 2.4906468382525655 7.976954891144222 5.104427068745576 -0.4243137826927015 2.1595147965796615 -0.5786743318558742
Ni 8.659839678058717 0.42032858449724264 7.975792019992854 -0.9783875423910763 -0.09815623405746322 -0.9999053618581941
Ni 1.261830471949026 3.552271658368211 13.39267546631163 -0.7197260797252831 0.5867838483368862 0.7073655012774012
Ni 4.001512484211746 3.2072926980073193 2.8554112074577 -1.3961550393248279 -0.2225570036337522 -0.06814914617241168
Ni 5.515255337143382 4.666737491151072 0.1451431033980086 1.4117886320970268 -0.2915666980342463 -1.2190535969207135
Ni 7.575031209453476 1.5921006338449588 5.700619396343845 -0.7801274636314757 1.0268777766819799 0.023737452826255893
Ni 5.328356767557609 2.605255582655387 6.458465568889755 1.2857899219059987 -0.01997541468066237 -0.14157213914925296
Ni 3.553811701843852 6.138115315776741 8.041522366587639 -1.1133881989703986 -2.2932471279695212 -0.5852666403614114
Ni 0.8705893433252448 8.809758760594658 11.541728567116786 -0.49333941793279557 0.17257038730298022 -0.6698438501828593
Ni 6.785523771848168 8.856762362961987 9.642583840224699 0.2234787441170732 1.8587443205589602 -0.5452538474138997
Ni 3.2869415333313596 1.1916801083609776 8.419480389688584 0.707453175895201 0.630215694268276 -0.345897707376643
Ni 4.971573881155874 9.092822440144433 0.16080267121828792 0.7156645080613997 0.5653089662925619 1.6212042132528144
Ni 5.169068318726748 5.124139625233785 6.684447122033108 -0.18876268079212652 0.17302135879746974 -0.4537786249210379
P 5.748982294569317 1.2386099361905527 1.9199970999886158 0.04350949324686055 0.05226461373167128 -0.28443548630610366
Ni 4.869820349956909 0.3012417256526757 4.749886006109878 0.09854858439987545 1.093212238243156 -0.5633883522310813
P 3.159993997488968 7.875090698138624 0.9262614538788202 -0.11279121036181866 1.1655332564050702 1.3249161984834987
Ni 0.188445068333468 7.364534009603234 9.759171586602806 0.33247603465409836 1.4705452813109448 0.4777947853299771
P 1.1764917754006101 1.5556560121938525 0.76408934280345 0.4447872200557049 0.17896163554130468 0.05455186710395121
P 6.76846340999226 3.8433767625333113 5.042920314437279 1.140365498890191 1.1217597108635455 0.9031681196354446
P 5.768753870687731 7.39255911213302 4.034528434220676 0.21925030785802244 -0.8867043176524664 1.3610065164481528
Ni 4.917607806787889 7.59760621800659 5.9646215797011015 -0.4360189869447717 -1.2452407968390427 1.629637431621832
Ni 5.6898243371068045 2.241971315113968 13.296873695946072 0.7304023284922067 -0.4696716420022105 0.737247119328182
Ni 2.9705409845334185 5.377758042401986 3.24273675249012 -0.9569910789931713 0.273817087360309 -0.9950773443419315
Ni 7.9757099458196015 2.725148428324931 1.0177298923329776 0.35923967590118777 -1.1143392500297582 0.3694186733167186
Ni 6.286854005708598 3.958833914120319 2.294622358346465 -0.42953389344106024 -0.5548602601554122 -0.23876755195534358
Ni 1.7791744179579008 3.389340591735683 9.875570285727914 -0.45976698129398885 -0.8289802234681207 -0.4475089898622422
Ni 8.686933377049343 2.6763650152342544 3.516861724609122 -2.6055418025797383 -0.011652496637263804 1.7010475079337029
Ni 8.417914525124727 5.911645928502482 8.223327726523133 -0.16680186025031918 0.9944409963095131 0.3998422799138985
Ni 2.2181974703223304 1.8958027403317732 4.572386312634127 0.15268753233612414 -0.4284838549099911 0.0014282478060943145
Ni 3.3622745581967157 4.253083657957238 0.8578540137452402 0.2666002578968957 -0.8052882791678195 0.545966300099892
Ni 3.346422254396551 8.689838249473455 12.256776285947415 -2.8631565691485723 1.0820665060389818 -0.22679341031260297
Ni 7.696233553168176 8.59324893591736 11.792760264554943 0.14185161806288474 0.9990335007762019 0.13918641252589578
Ni 6.547287345801942 2.436994305670041 8.71754981021778 -0.14530255272596268 0.13554007402256013 0.3546237743957312
Ni 6.063529258106157 5.110426783028522 8.98399485295646 -0.23597250570870973 0.15221290669255078 0.048696693874754844
Ni 3.713847117869485 7.8508373188515765 3.265911179162496 1.3809202246529444 -0.48432795846280463 -1.2336052694826432
Ni 3.4569918428572715 3.6590971890378508 5.585380801824938 -0.5192245132296736 -0.5908716452530147 -0.13564626058312124
Ni 2.069006911346723 6.027490396412704 1.0479811415395286 -1.1679999727780077 0.06763184021636094 -0.5708131839402428
Ni 7.425702323219578 0.15004818797701253 0.6075416180501976 0.68998407257616 1.1186731015184217 -0.1227982009758595
Ni 2.2571596480743357 1.3452879177846824 11.252432783490132 1.1417484952806465 1.4609265272742582 1.0431700860841002
Ni 1.1551063812687994 1.0038040261499472 9.399313224158398 1.408378063753581 -1.253937553282092 -1.5442901764035792
Ni 8.70818966574008 7.035508793031922 1.5661319965551017 -0.7110722607050269 0.7833680820559605 0.0703114439310531
Ni 4.115706246839695 5.588725554930418 10.234403182097525 0.5816799514514176 -0.09988170138900218 1.1752749091728665
Ni 7.075402374323087 6.1090850351700405 5.7744345100948875 -0.6904270736508497 0.06491598394709465 -0.8020368621100574
Ni 1.4197079827453172 0.6563038209612694 6.5153153055022495 1.2057016010938395 2.065120600667792 1.439070607741431
Ni 7.713635122261201 3.7214735607099367 12.391463692982057 0.6028959234074004 0.2774737102762898 0.6450782132024051
P 7.071105007498843 1.5074166863191212 11.71368133753506 -0.41693317395791424 0.28521401634334104 0.6725285961038739
Ni 0.1573703108492237 0.44023756569222594 2.2534155902832556 0.1067663443239774 0.6763600540348224 0.46479065976082534
P 1.39732663235381 6.5631765368709845 8.083835752717178 -0.07737863519047965 0.043783572843853626 -0.8692131028462385
Ni 4.949155643495489 5.090378552393527 4.308748391057038 1.5872335127343244 0.5203010341233039 -0.26410705916139676
P 0.9333032335075613 6.387657689733962 4.275396766901322 1.348433821989465 -0.2875537202201112 0.05877413271541491
P 5.782927803753963 5.657031555074584 11.665780452352283 0.4024113261926554 2.551768979733657 0.32132541735391756
P 6.933819814553493 7.580047878020834 7.901827512802858 -0.24426688450701806 -0.07713206639731232 -0.43525279820270846
Ni 9.10553932609 4.738676887279685 1.5154230680290126 0.24564808112526085 -0.3884013850668085 -0.22329233913787996
