# total energy = -340860.46599432797 ev
CRYSTAL
PRIMVEC
9.35332239506508 0.00000000000000 0.00000000000000

0.00000000000000 9.35332239506508 0.00000000000000

0.00000000000000 0.00000000000000 13.68953277349723

PRIMCOORD
 96 1
Ni 1.3010752222603394 5.878460316191444 0.3079300839468228 -1.6510860884139111 1.6033777265943547 -0.5737802369883666
Ni 0.07381922731102332 4.642035259177458 5.900216144368964 -0.8113211156254608 0.3074849119263995 1.3785964616157742
Ni 1.7946032849373976 4.72393295114752 12.110226489862644 0.18200427902237043 -0.5974037899445775 -0.7195790126244574
Ni 3.4781171583251806 4.724316437370769 0.2509346778494302 0.9630750804037219 -0.5524531933758163 1.390867051453011
Ni 1.544878927021833 1.8385451941282782 1.876259661186488 0.9373859031677341 -1.1761894505673356 -1.0827504194798836
Ni 5.491101817419386 6.46261272074812 5.635022326340416 -0.45578048584241504 0.43060758612121325 0.15267416259968547
Ni 6.513307728797199 9.061395969162218 9.953317580518402 -1.4881632515030243 -0.3302173205269087 2.5030126362655603
Ni 4.484525307969618 2.730075836603198 7.549462250046524 -2.646711334839513 -2.702204482810811 0.02066498454851925
Ni 4.567573458609429 1.415494416626462 1.9395601419934532 -0.3239566843291776 1.2738255504552707 -0.09455951784514037
Ni 5.2175077804371695 3.5189631177625103 11.340080461033212 1.2195971281290094 -0.007411719083038848 -0.9565046262750557
Ni 2.4675374268375894 8.615055418589884 10.071444431930772 -1.2644137702230676 0.9487689481936951 1.211786888055971
Ni 3.112486427763087 7.8132886123229 12.415214953877468 0.09582012972511886 -0.24192795196119626 -0.7270442106532511
Ni 7.272011838190021 4.5407200696594465 4.721355175461482 0.09369716984484508 -0.6356816024788536 -0.34909230305454075
Ni 2.3450369618156732 8.294573175823528 7.713284758621951 -0.9225858620404239 -0.3803615454814675 -1.0313594666024175
Ni 5.487790741247915 6.605578255440034 3.221256215328168 -0.8658254173209281 0.5561427264122616 0.022973578077037853
Ni 8.210692579479591 7.480993123215957 2.548867372130792 -0.8509163614195797 0.031690646235061556 0.9431924825471819
Ni 4.126667188420216 5.7662297992945994 12.021517708434772 -1.5992662755291427 -0.24718714347760656 -1.2518469893016506
Ni 7.3680891670977955 5.8077585512757635 6.754498115247085 0.9667517579243609 -1.1254392165976617 1.9940990180435916
Ni 0.5700878134859375 7.203826117031758 9.567176884338224 0.4339392215976075 -0.5953731326677939 -0.03224291919410576
Ni 1.7593506123659992 5.718565267741443 8.42396329821241 2.9071831112411672 -0.39024872268819244 -2.125130405562521
Ni 9.247957340111837 1.925372087065474 6.48835961164419 0.14686064124170192 -1.559321616815405 1.2595322737610501
Ni 3.529223712565064 9.247433554050813 0.5371744068763611 1.129512615336087 0.061882853547725686 -1.0455103041815026
Ni 1.0990247492204492 2.759660395728518 4.841727759610491 -1.7796782703637286 -0.7248577445248935 -2.3254769345375044
Ni 3.7278415162407454 4.985133835793015 7.030479120135966 -0.27479770610602355 0.08816287029017719 -0.580495187114697
P 6.5197241080447395 6.9689922485652955 10.170802906377958 1.4484296803588281 0.489539327460415 1.4015849520911476
P 3.9558287526238267 8.383775812680367 3.391732677543099 0.5230693408970604 0.11853865436855712 -0.23357803733460414
P 3.6937018890490223 2.0571791079930795 9.852452285813518 0.932885187083903 -1.022028933230111 -0.4442105216166285
P 6.937770857999276 0.39974603911526924 3.058091245325776 1.9410921268292567 -0.21336351005994222 -0.9432829853784592
P 1.1755536340650183 6.80563647078353 3.149866045875142 -0.5420008876942407 1.2168838429629043 -0.23171887263867835
P 5.672808813982016 4.233828204512152 7.893001368152692 2.2075283483444625 3.1670221391548297 0.27662987421875584
P 0.48306450077585794 0.6724290624842046 10.073100905348758 0.21056332160698576 -1.5789442761423387 1.764657114364548
P 5.965474275579006 2.550969063700649 5.951647258900232 0.7480568083491762 -0.5577694633824071 -2.0499482638027278
Ni 4.451947685638448 0.041473567378306514 8.252214784134994 -0.1002668526425628 0.9162439789827963 1.2825143364785203
Ni 1.7333951423777714 2.4992919567871508 10.880782752776302 1.57375604707318 -2.0292400847210987 -1.1879964705045925
Ni 8.675150515769834 8.262940239066705 10.863972026214197 -2.0512353580452674 3.061860677424127 0.27154114684193875
Ni 9.18941489446992 2.898164395579213 11.781841624900595 -0.5413069469510097 -2.6392078273736157 2.164132497857331
Ni 5.951247872028702 7.364085945059972 8.007569280346853 -0.2870515837727121 0.12086241740572731 1.2588115935449415
Ni 2.9410026127129365 1.2931997246999474 6.496600824115047 -0.8776470925462045 -0.5519104334984688 -1.1818692745609323
Ni 7.417512123284389 0.915064537263165 5.095216829839663 0.8196712873623689 0.6137264383640011 0.6195700416289718
Ni 4.694806704825596 9.006089773111627 5.940367151943186 0.1261411493061634 -0.8968131239516941 -0.09577487830948021
Ni 3.024574549413771 6.3803408958773264 2.0073642475929705 1.5542182341505684 1.002109054377732 0.3714200200174636
Ni 8.519595408968316 2.084762056099488 9.301407836974802 0.7106171754454794 0.6536602984444614 -0.29056731023545446
Ni 7.424386815335325 8.228576132134544 6.459324092550692 0.44990140135381873 0.8907226947832401 -0.735431663385998
Ni 3.5374265764135955 2.842699193045811 12.44942566632033 -1.854852955924354 -0.6915701861163573 1.287227168573157
Ni 6.250180059712939 5.601508436425166 12.139220854337061 2.1477653693532175 1.3834926133658108 -0.843822944907908
Ni 2.651124441226395 0.7350804227084015 3.9917174511264677 0.5419360958945764 -0.2889891671150571 -0.2754952463936804
Ni 1.7197112315335275 4.475415171836814 1.9322505204454172 -0.18376368491563835 -2.409440936254986 1.0559993766382845
Ni 7.011128966510148 1.7032213239337994 11.43259417406152 -0.0073294437818776995 -1.7973078105200337 1.249720686987267
Ni 8.01620894435699 5.127837477454417 9.174355109883237 -0.4477948965337772 0.5758168078024212 -0.5690481216200199
Ni 6.179394114894594 2.104413386710395 9.15624427149109 -1.5923358669578964 0.40657702753457076 0.30558563802115757
Ni 3.152453174883698 4.141520264579245 9.765031456896413 1.3890125147427757 0.6862374610495343 -0.09454743366028233
Ni 0.2350284175748428 9.177264928518674 3.770781684589918 -0.8592194819686364 0.06593774034338966 -0.931743360169976
Ni 6.71938013051995 1.8164619996626186 0.2841212014765404 0.6213140209032719 -3.184152371077213 1.3299355060749611
Ni 2.271828506465093 0.662582819869211 12.330915328684712 -1.7130270488930819 0.17198469000283928 0.6122652804374423
Ni 5.317990524251055 1.0064549162570295 4.185054368908329 -2.4056596148356832 0.9180252392529351 0.15318041281214265
Ni 4.906921352895155 4.2743374443388245 4.676713637746235 -0.8429757664162645 -0.6860099184197606 0.2753286389088291
P 7.598975933461545 6.733541060812627 4.830433622669667 -0.3374326073284253 -0.0009106847397274639 -2.0268039644757803
P 9.292432388686258 2.482371796351582 2.953817599895232 -1.4917126594171792 0.44390430323011937 2.203089081626186
P 4.991288322010043 2.9527784457634514 0.41547084493300196 -0.9317754989594922 0.7843558998905266 -0.19637880257648763
P 7.3144852757455325 3.658748522798209 10.702969544378032 -0.7680317088092062 -0.1523507178219957 -0.7461778461589085
P 7.118383515827268 0.4255509206109526 8.248860682679938 1.3620257017412865 0.32302285966099853 -3.574242456700354
P 1.259340697183773 0.07742119181281305 5.54265920180465 0.1968583133160674 0.4590732976610739 2.1183630049317004
P 2.915224855852556 3.267012669087595 5.4160993948098 2.901079826556907 1.1505393540993993 1.286179186924617
P 9.361366375645986 6.44352258948831 7.5842472564920085 -1.5519826599518305 0.44277044673599225 -0.46413605689596193
Ni 8.6209480117764 6.979748569461318 12.575930288712323 1.057655681294785 -0.6151801400913921 2.1717547902892793
Ni 3.1529582542996852 7.082270337584188 5.087290824337672 1.4218588718488352 0.004958629556855976 -0.826923598049408
Ni 0.9019175071314701 4.3096462368453325 9.843389851625558 -1.9086777150542935 -0.23301033775659225 -0.4367298969688672
Ni 6.259580148843811 8.458480799633874 12.42622194381698 -0.030203520166573787 0.7471211839087842 -0.7940155344674777
Ni 6.86693814656834 7.037561455946808 0.3769463801447092 0.6661825992811882 -1.2813115744196706 2.1898214179830027
Ni 8.952813248047503 3.185610703211002 1.0162684222432092 -0.26428343683826094 -0.11124957690631163 -0.35279777693058595
Ni 6.929549287505707 5.097757192235627 2.239114325625156 -1.3467836879805515 -0.24072673256424346 -0.45105891199702963
Ni 7.518537359804334 3.239476487593778 7.3811089920432424 0.1771775470576884 0.648167136540374 -0.8525019607391447
Ni 1.0439243262652602 7.224880446020407 5.755709182126037 -2.0634707237691945 0.40561389229035305 0.3062492397470855
Ni 9.039471781179369 5.254743357382443 2.9725588522251103 0.4617264190132048 -1.0299044793234458 0.47455005314043436
Ni 4.384313810508764 7.611069779477681 10.129295667038585 1.2015207302432724 -1.1815825965584488 0.3804911290807963
Ni 7.213085906324855 3.7496066977407834 13.157872503157929 -0.6492002057905787 0.7635770154719623 -1.0984482898311145
Ni 8.727454295292057 4.951209335019212 11.48913220268777 -0.2854942665879212 3.4308646318009304 0.6280737082246087
Ni 3.2489514033047957 2.9096689822766977 3.09861170913947 -0.1555147173722741 0.861190232541762 1.5274057419434148
Ni 6.590294926445164 2.803910964562503 2.7660795809728143 0.4710595234886726 -0.8552419853781271 0.0175259246989053
Ni 9.213368753439237 8.923116449051962 7.991223413913908 -0.014488423424162145 0.381192268912879 -0.3699339223902403
Ni 5.748673612927787 8.972024972500051 1.4593315686051378 0.9074310086768566 -1.9709973990291214 -0.18811913367085667
Ni 5.434140083283059 5.278332436773547 9.698692081603259 -0.3299766652710123 -0.6490263992168758 0.0413173706915482
Ni 1.706607226685417 5.180973702680768 4.435545699270392 1.4614322632660832 -0.8017118746704709 -0.1467146025821409
Ni 4.405246546304675 0.7461276319347423 11.466832011139685 0.9718942213572488 -0.313616221635118 -0.7788149154676394
Ni 9.092448999922908 9.256412743668362 1.2276815711238978 -0.678009159602471 0.37068571295460034 -0.23730073760183
Ni 1.8597304696321832 1.0039295191770938 8.60085988100389 0.8321223686415283 2.3146919281068588 -0.5294497905021075
Ni 1.6192939609772707 3.4485513058448967 7.500043035188939 0.6453409799454886 -0.3631428676103358 -0.2267137061146031
Ni 1.8917094793221834 8.631592092802205 1.8261567184528162 -0.4829022817598716 -0.8983609280547884 1.3003822178978766
P 3.9883970216324784 7.128447690856937 7.210838302923713 0.15078748709993386 0.15439705882806312 -0.27205433903293147
P 8.23980011915648 5.224831431968983 0.566044372161285 1.081355853125202 1.9452262036022887 -0.3980029127123145
P 8.417681606809133 0.591193585748437 13.04598805919426 -1.2443619937785149 0.4079957622589683 -1.6389782494067837
P 2.351733940738762 6.269186011070085 10.540611766108968 0.670095046961717 0.3286787723951952 0.15929603879157725
P 4.424056077888936 4.6025268248602424 2.5763839116473206 0.7193735814818708 0.9116383618899847 -1.1476890291347974
P 1.453843038951411 2.7928459840233772 13.544095508576268 0.9200098737831316 0.32118503512131136 -1.0219317455306143
P 4.80170582788702 7.141355275932164 0.11809972677706575 -1.3130251034728675 0.20650637792879276 -0.34787694259020085
P 1.1696423342334652 7.94643315837062 13.343530343152281 -0.21047641832013425 0.9428091310658342 0.766199540696474
