# total energy = -381178.76241753675 ev
CRYSTAL
PRIMVEC
9.13076441184511 0.00000000000000 0.00000000000000
0.00000000000000 9.13076441184511 0.00000000000000
0.00000000000000 0.00000000000000 13.36379666855320
PRIMCOORD
 96 1
Ni 3.7398880288002485 4.979352765312481 12.929299271229867 1.4872816202290193 -0.5193767225368217 -0.02152476144565325
Ni 7.164691641650383 2.260494197645581 0.3260166800980525 -1.5267786498823772 -0.6844181484526083 0.20894378372569175
Ni 4.8039233899893805 5.175235052764023 8.27761585436153 0.29319677743850153 -1.1253751961289458 0.6664967880874973
Ni 8.426462835452698 2.4536098635011765 5.910433240749534 0.5368877348373914 -0.15669125417887855 0.6630764495520387
Ni 4.606370172663061 0.9843694422959852 5.345131184895232 0.4722118919255609 -1.3676834142476963 0.40363568551805973
Ni -0.04916186137587232 0.9789640298048972 4.250756119946999 1.158938891017004 -0.0689623861023264 -0.027199700343243483
Ni 8.564985661301172 3.4952474597567975 3.1581588148163577 -0.7157758368282834 -0.1148421793535764 0.8439628129198821
Ni 1.9610142579577465 2.0070972255971413 6.248443179812187 -0.8014372808528456 0.11416109412615179 -0.3597194437510837
Ni 5.57592038443027 3.0329659918323078 9.273499190494109 0.29885808948933695 -0.252008733235966 0.4012134492298122
Ni 3.816285134058583 8.465588160662685 2.2389035922799945 -0.5769388372220065 0.3631747492895358 -0.2481181399323082
Ni 7.204885266288507 5.169300055941037 9.914120008337829 -0.9287955903955617 -0.08077480535622217 0.8575855459096392
Ni 7.146996220353544 0.026546784250995728 5.40489386367339 -0.2276534443200531 -0.8553391730776237 -0.9810458059495297
Ni 0.8278608368445621 0.4642966276150022 1.9355056416125562 -1.4234832948261356 1.7542045515726563 -0.0507782589941319
Ni 4.536702440725557 7.1859663225696995 0.22255964163264275 -0.9609744891209515 0.7816526420267506 0.503781696312042
Ni 6.626780052672375 1.6657709929250897 7.393119625526307 0.026980642353901917 0.613162338330415 -0.6474464563242657
Ni 3.417471609082662 1.687420035182471 9.521383920108645 1.4527295932857627 -1.537809710885558 0.11818332791166744
Ni 8.719286447934445 0.6635125571281927 10.945270008669016 0.0440414544909306 0.3400067958135048 -0.4300157181734852
Ni 2.0723639291212925 8.244924978784093 0.5771419179779402 0.957616628392312 0.2628402766338312 -0.5076388652746031
Ni 5.055466816876181 6.507011816784534 3.114299188294497 -1.3564469221019284 -0.7669433608410341 -2.164536675274285
Ni 1.033374254525157 1.1268824121623748 13.005339363602388 -0.21520879079879712 -0.9217237711504449 -0.9378569292668816
Ni 6.527848221015383 5.99273064592635 6.967669834808828 0.9021319650614463 0.2248311443799096 -1.0394931514531454
Ni 6.594301923904132 6.896511962130539 4.642208422709549 0.8340000452802153 -0.30398692607547 0.8933164236523454
Ni 0.37196633857803835 4.228813067077771 9.721360442291612 -0.6863711584139212 0.30465746977993335 0.24993539564670506
Ni 0.479937626934654 4.817062559879036 7.158852517853 -0.6446696649100768 0.05316732805159875 0.8430120189708386
P 1.6745182651657355 8.41962389295975 5.225564738899371 -1.935871758970582 1.3717118186807988 -1.7873080189948445
Ni 6.4856275666931005 1.9043487344447523 4.459646094281655 0.6290970072828004 1.5037184256288039 -1.1758636917968006
P 6.250409946451682 3.679679768722149 1.687593519704989 -0.7276905859879984 -0.038482729456230505 0.5480064704583724
Ni 7.268471909173537 8.550878630391153 7.542580193981326 0.6070567396533094 -1.2476614904653933 1.1644341098036204
P 5.9259482355212505 3.262047738435194 6.0150845831910145 0.3059059974750538 1.1520336792567387 0.4803471194381856
P 8.173394570920607 6.077948069540074 8.31392525184812 1.1489015613856601 1.0471259854080548 0.04715763152240911
P 3.5774791234303436 2.81634773855769 11.36572161898511 0.002231460433680028 0.4973796494404402 0.7672017567087432
Ni 7.187765083145281 5.5276916871702575 2.5429699148973453 0.4187619996365368 0.2538334451495306 0.9782571874607993
Ni 6.838449431673057 7.489436406275448 1.0932665901569867 -1.1843645301789603 1.2705499650277925 0.34331631980271193
Ni 2.0560746455332835 2.9968903419129003 8.494215846107462 -1.135454948962451 1.3389333386981974 -1.2623581732456195
Ni 6.110946651875873 5.511210657531044 0.3327287049666316 -1.232245155910323 -2.0118828243895734 0.6552782936638586
Ni 9.03586830923682 7.027319292109133 5.756749693785851 -0.86592491901327 -0.22548857545825035 -0.40792839935614267
Ni 8.658740349575654 2.870694047927549 12.1090425349302 2.5111828307811783 1.1193662709307044 0.0038931644068191016
Ni 3.397429581349658 0.41494119403505714 12.303392680124977 -0.4454919594322134 0.7615954662655594 0.9123515859069256
Ni 7.623567334474914 1.214674711320841 2.4280282010412417 -0.6344577573740816 0.19279905564502922 -0.5650364293574657
Ni 4.88144357926191 4.915674814784021 10.771981797584363 0.5037292458075519 0.05692268132897294 -0.7241244659032947
Ni 7.7818034805400425 7.766746850138346 9.909108131789926 0.44738172025575856 -0.9419658092289326 0.08082442764723499
Ni 2.2480854889033703 6.6178866882022405 6.133380939866756 0.16131846853824475 -1.981127802594904 0.21949790509245426
Ni 0.0781931266046131 0.26800802115019495 6.571473186893627 1.5318110700999619 -0.1890791835912808 0.6241602321028155
Ni 1.352576645193988 5.042117639406636 2.2051599395738037 -0.7217739633932473 -0.3930985334321617 0.20168427394980104
Ni 0.9305344557293378 7.3742061602661035 8.151528216471862 -0.3946260258202816 0.5441235904641983 -0.6679340347546562
Ni 2.849528936180349 8.719195140291015 6.874804482981362 1.256163100178501 1.1535511443425295 1.0545711288321902
Ni 8.528964795967823 4.798527108262636 0.7185902407219298 -0.22358441645700206 -1.2877329045649821 -1.6033751554911935
Ni 3.6864365343360093 4.174421103886196 1.9379773395202209 0.24683027435882007 0.06978256801077659 0.01067959120103322
Ni 5.613986540976462 7.323740425742044 8.627199037229007 0.31697356814312505 -0.12249661057504065 1.293403215476882
Ni 0.8686790057637516 4.557420145019948 4.848251424722041 1.577862870152702 -0.380992237086931 -1.2765478344824401
Ni 1.8141093904423478 6.142895196312218 13.13105264015399 -0.5397048925712126 -1.2026319610295804 0.37541345744757276
Ni 0.39687506370589015 8.047070446234454 12.094971114001119 0.02503380304017624 -0.6245327849508857 1.0306398148275733
Ni 4.46977393809097 5.519501391554537 5.8339119570961335 -0.029558687493723288 -0.029551745515187813 0.45274041346451066
Ni 5.2934419279492015 0.2604915759429927 0.6715412382150402 0.3360853492719115 1.3145821635473425 0.21646374625182077
Ni 4.131597819117273 2.527678623852032 7.069970005431973 0.45683798057265196 1.1067984615680229 0.9345399490785068
Ni 6.856090068383838 8.842551766565677 12.154720096632762 0.276262206466692 -1.3501693166233326 0.11554074808249779
P 1.5647390854691952 2.8758437990170314 2.9923815704803003 0.8225002721707317 -0.7184487556747562 0.1414345851301242
Ni 5.564516059765794 1.543993988881776 11.913116419809812 0.562929667427108 0.43256342429600336 -2.4565438032800597
P 8.176818607549253 0.02806066497907411 0.6141863419941453 0.3815594224443106 0.19398073465795626 -0.4020158905264496
Ni 4.915336976503329 0.2787037985016486 7.907064784256666 -0.7970124123122725 -0.3360966621258212 -0.003732470459238733
P 7.453187271833523 2.3546962933728706 10.47437001228112 -0.7065746299449895 1.8071849604244297 -0.711891928392845
P 2.9189957913023052 6.442722105045088 1.7621233836551689 1.3324814124252666 -0.020845733100757647 0.062411472357686064
P 0.3545101433069874 5.167008234090931 11.953916327200316 -0.746590765326611 -0.9885539414011167 -0.73837891893978
Ni 8.9562297826367 1.7214869169464064 8.60274319801257 -0.288840814462651 0.36819714220479166 0.06791234757125723
Ni 3.179021698263802 7.08668752186767 11.553442829266828 0.4637709602470593 0.5865182533803255 -0.7827679865781164
Ni 4.5145877294866805 2.6397678869273653 0.07085747053140337 -0.08968959134734876 1.636101699189937 1.267827423890307
Ni 7.866792635045191 4.553859146926157 5.292050399463321 -2.6193126311115855 1.3825839855086126 0.0562307974682709
Ni 0.9816210822287259 6.6037887880565656 10.308244885823592 -0.008148854359379515 -0.7450280488251814 0.5279408100567489
Ni -0.06451889392445515 6.986239983329733 0.9143538282370115 0.797519176745362 1.4456747433215102 1.263674835174514
Ni 4.690053627867153 2.0473730271143533 2.7052464241842755 1.585953103360004 -0.3289860192229689 -0.04796341525315611
Ni 2.0341242880525816 3.319361546216545 0.0066864587284185765 0.1016606476662959 0.5836607293268722 -0.9379926835137974
Ni 1.8137532906329688 8.91305952882274 10.438715290597926 0.44510680817865284 0.29347239969739136 0.18239405826162133
Ni 2.641201416929225 4.798244054568002 10.717324129150407 -1.6265384809815344 -0.9635592191289922 0.4731940533331721
Ni 1.4048867941153456 2.2779430883051575 10.791145445787567 1.199302125325399 0.0492916471462764 0.1573088331582194
Ni 4.569007084971283 8.98743873516126 10.44901844508263 0.8671155968872615 -1.2453852928367066 0.2677950495359453
Ni 2.5909274284563684 5.437634958454714 8.447911000894532 -1.1118259966896014 -0.2295123519056628 -0.5729685397203488
Ni 3.5872399105130683 2.9640104595135623 4.612661269295425 -0.5697957984193219 1.6110907789678963 0.20801355860193854
Ni 7.70920477324842 6.459029650161784 12.32854337050792 -0.2992257572414008 -0.23604372526627737 -1.4878045826120245
Ni 3.032007261576287 5.2840007176184836 4.0383526274931345 0.20210310665477454 0.7586032164064548 -0.5244770198778644
Ni 3.7837065668825653 7.870517986897157 4.517831890057768 -0.17762543322838442 0.058222631087319086 0.9000329164405726
Ni 6.582504976372905 0.6606783678761087 9.666648902348031 0.16171930352108924 -0.4116919801636329 -0.512153208205189
Ni 5.871574533858364 8.861708110157403 3.1802899614310522 -0.1624104160508429 0.3143410156162844 0.5898226351632101
Ni 8.084497449276633 8.00945169714107 3.0660294025949413 0.848929412896538 0.12931620460003534 0.43955399668122364
Ni 2.9654074664580494 1.4638806625358185 1.29731634631339 -1.2354479791183368 -0.40616256570497145 0.29098382894758273
Ni 0.14341600245991773 2.634152466856387 1.1564496532580528 0.8672595786642936 -0.34462089754674846 0.607739881763263
Ni 1.558338419664714 7.917870130780237 3.046638398359597 0.41430010721044136 -2.442679129482825 1.283795774294105
Ni 2.664704004348246 0.9556257961440506 4.005062773774794 -1.5254347342599728 -0.4572087336485094 -1.238687569101557
Ni 5.626824395642797 4.327425321982756 4.086702763918909 0.346857500186751 -0.5836213914485046 -0.7268601196669031
P 2.4135440695638546 4.390454988242858 6.3857698755317225 2.2270203956308037 -1.3521994596794842 0.09789578130722494
Ni 7.541162186278849 3.790079840394017 7.802986853815928 -0.27627917574755645 0.6062938933453559 0.1358900011628111
P 0.030572538249848315 6.207522746332356 3.5665696861932625 -0.9301626459464174 -0.4852854372800674 0.24951604872109934
Ni 6.699177883148452 3.9970194834649972 12.02727014870311 -0.7580964519733653 -0.18165975119875813 -0.3941717118916825
P 1.6898396877333806 0.4903567421265132 8.447496464193357 -0.5189486338604675 0.8295101278296618 -0.44001525258835833
P 5.402919792422422 6.798173630155844 11.612444002298776 1.0520226513787236 0.640710937372645 0.11134419350264696
P 5.291652298137963 7.8736407083024815 6.134997998231912 0.2752900723614098 0.18673408039787193 0.9913253334986668
Ni 3.41916993125047 7.52250803472599 9.14551417977395 -1.5964609448698635 -0.22029828950656252 -0.6733081545823758
