# total energy = -381163.3371233585 ev
CRYSTAL
PRIMVEC
9.37703603099298 0.00000000000000 0.00000000000000
0.00000000000000 9.37703603099298 0.00000000000000
0.00000000000000 0.00000000000000 13.72424007669406
PRIMCOORD
 96 1
Ni 7.303773346117907 0.023890812339503405 13.278449359369704 -0.07843330170723911 0.9702793114616451 0.3588588955230013
Ni 4.982113001060347 0.383214143622807 9.776997537272921 -0.4288268400717066 -0.4853898240684156 -0.3599917235758639
Ni 0.5565720968085237 9.13784657286575 2.69210577874917 -0.6688418912809061 1.761702145501282 0.8477544187518302
Ni 3.565083450738998 3.7904511341394316 12.505088629403863 1.3412817843257159 -0.15348534564707114 1.628343652511073
Ni 3.5547874652029376 5.6367520158408455 3.713916703951115 -0.1611436335232773 0.6522672747516767 -1.721986314968899
Ni 1.6046640408282438 2.031797407998634 11.676940691157931 -0.9279905779957631 1.2166010216151628 -2.675924466068359
Ni 6.428305133364528 4.985263685158814 1.8735918072971793 -0.010730241933310552 0.5051356392367752 0.8515452532528301
Ni 5.128807352359192 1.7327449756525146 13.040649601630736 1.6397619216503436 0.9143099951848771 0.6789085314882888
Ni 7.019227188475144 4.983725851253611 9.166515922754593 1.8195511952992665 0.2872063641830215 0.7056372057323848
Ni 1.5386309532645486 3.9041383186924343 13.631656050065418 -0.0685155283728949 -0.6151834825255018 1.087045961531444
Ni 8.695475522183429 8.486958372488187 4.613074122769839 -0.2626605565228573 0.3061955036910146 0.12705517648000053
Ni 7.814681152977882 6.678240651104196 5.7587463165927515 0.5042748338983767 0.5819812847419203 -0.30349738803356113
Ni 0.15580976800157886 4.392813173179003 11.908426890553155 -0.11778789224546167 -0.03699277517426532 -1.915709167979778
Ni 3.233164507187148 3.0379346175143085 6.667345472967266 0.225559795015818 -0.34816336348236815 0.46913968075814044
Ni 8.069577122765432 1.061189787914774 1.7122908470097018 0.7861618427510138 -0.3612649338613326 0.301445647710855
Ni 9.353518401034592 0.1955927809663238 11.40680610015485 0.8137726624897469 -1.3708371293853294 -0.855683700901236
Ni 3.504282749267399 6.8138513458423615 5.928611323865733 0.22731457292339563 -0.14742756948876545 -0.4098323012470748
Ni 1.738868180165308 7.326203216247467 3.011894588521923 -0.1830946838730718 -2.3260004111411425 -0.7158912793602251
Ni 8.311635930258932 3.0367156028333544 8.587778388231916 -0.4029499723049447 -1.4982126653192263 -0.7484216478877627
Ni 3.026269584721177 9.105758355648627 1.6190071551050724 -0.30648475279665927 0.7480511519222213 0.22924238607372777
Ni 5.640277781379606 3.2232436030913814 6.038295451747202 0.9230625445665265 -1.3209816393157832 -0.14625334667500617
Ni 5.240666014890762 7.059304640370519 2.5525164076330893 -0.28410587088082684 -0.9349729228508672 -0.2093890987932265
Ni 7.15540050537375 1.1357278471371277 4.513023961682312 0.45202076168966665 -0.48337459341059974 0.523240576367602
Ni 5.3247311426965735 4.748268477109279 10.955388085132647 -0.9143495901735607 -2.15072985129818 -0.6487006404463409
P 7.991522675040326 2.5357755852491835 6.2358142759094335 -0.6067924302483292 0.6872355632967454 -0.4504176788686049
Ni 5.74902326795674 7.662051137886392 4.787961470528352 0.535454859045607 -1.041334061316626 0.7184909217666012
P -0.0843323733320213 0.867494919036336 9.208923568097793 -0.2468593278245426 0.725424415661641 0.04842775648408434
Ni 0.7717516305869814 8.794543907600987 0.47209437941838867 0.22992398552178467 -0.10857203007414849 -1.6125388242683325
P 6.748709076699363 5.793742352675749 3.9722615475821654 0.4895601533960214 0.21464134833110132 -0.19979759845004944
P 3.703544764423395 1.4401720751874678 8.360931008549525 0.1730900072518761 0.8563688998937188 -0.31101529367716113
P 7.41816380837146 2.72985209949312 13.02098220630894 -1.2779814816051733 -0.10308838125175794 -0.43006585468513026
Ni 8.255139288314703 0.4553319898516659 6.766928657661627 2.149428615988253 1.4210525738974558 0.8444898890679456
Ni 6.628373573617156 2.711201174874519 1.2831151613969127 -1.184165783904593 0.24867401243577822 -1.3089378207773716
Ni 1.4693627882783205 2.543971114719599 8.922787065148185 0.700286997164065 0.44311523166992073 1.3981365885312307
Ni 4.319747308609802 2.857445428445009 4.051806944032439 -0.2891840567346826 -0.3740140059968849 -0.6656277552189827
Ni 3.6970652325423226 2.569317243047442 10.539159273135194 0.7005057980430903 -0.0009381955435532228 -1.5960092020444256
Ni 9.1748296028787 1.6241588986875057 13.244687341225273 1.1245123339080183 0.4244091706199852 1.3375958508336963
Ni 7.510180662711497 5.73424505920917 11.801871879587335 -0.5182179263420301 -0.04165855608105084 -1.3845832753268283
Ni 2.2489508078566365 9.5614823056054 9.699276912029674 0.2748339586605977 0.3573370595618362 1.6581550794455506
Ni 6.10153418258071 4.456051904012511 13.144459954157208 0.8722976553088333 -2.1851492093183142 1.283107747088145
Ni 6.077463331149866 1.4085527097707142 7.6965680074294145 -0.23013790130480363 0.39292087020371685 -0.2570118428775122
Ni 5.47091913405102 9.003511155024581 0.7995273489443262 -0.7043930489126384 -0.24592601737699585 -0.2808621671325485
Ni 1.6942897509864092 8.769432205173327 5.399939659993453 0.7630699939285568 -0.7543300429523977 -0.3364494174795496
Ni 1.8345045704041791 6.36591971280769 12.9763512657284 -0.3051277245481326 -0.05634546866926425 -0.41722525127703625
Ni 4.602858779743442 1.6814057035123224 1.9580376427648896 1.3525936097941091 -1.2882826064208652 -0.244294909531476
Ni 5.197240961140765 6.796316288508634 7.7745071176116305 0.2903909325585902 -0.5514877441387533 -0.5837067520734592
Ni 8.394350764879688 2.593125537470081 11.125267157959641 -0.02000703924954619 -0.34387116386491745 -0.9706953159531412
Ni 4.69131236040069 6.036457552689764 12.823724063747711 -1.4149886270915633 1.647949599667459 -0.6977423763653403
Ni 0.46594210609397224 1.1701321922480616 5.221469346776533 -1.2630343733770377 2.0344943911415028 0.265675174979465
Ni 8.959879806482423 5.423912052546219 13.68036318819835 -0.6377863075266822 1.050141889416243 2.1008213965035107
Ni 1.9721782130639598 3.478899112795527 4.626880870587048 0.13642710461320376 -0.7174133724317064 0.9812484088786393
Ni 6.946836470498472 0.6807634370969494 11.104310420186836 -0.24728921627310957 0.04907644581167677 0.46004028956003357
Ni 7.1695785838168495 3.156938581483473 3.434408827755097 -1.626514312611818 0.9951254239710474 1.6030645662293102
Ni 8.686220387644184 4.38446761113247 5.083595973249796 -0.6084111967986747 -0.5924045369577733 -1.6698919082665047
Ni 3.4744825288360692 8.125876846953508 13.378183514343782 0.07137125265413514 -0.18381305009633506 -0.35651507788117315
Ni 8.621228151077304 4.039589603818475 1.9157800299978072 0.5090951381051555 1.2580598029805818 -1.5737406204542124
P 0.20883784432669295 6.885332491326323 1.4789517452994272 0.7095830777540102 0.599269896619039 -2.4348318655242647
Ni 5.845241034428066 6.7051527444452645 10.051990370631405 0.4486176495453887 2.4544385840115988 0.7472155433948034
P 8.09398554749254 7.186813575998342 10.212769967716874 0.19241544705336538 -0.7756637714331673 0.1274063891718322
Ni 3.7278781728624453 6.048357011383079 1.164118699056554 -1.6036726321269543 0.09723475068445835 -0.059105547912904656
P 0.5184066225550451 4.338304462868329 9.149731028301453 -0.05139892329726633 2.2809665108299555 1.0523766922840327
P 4.431146496377013 4.136820090178594 1.7240252698692882 1.0348366265177402 -0.21115416111344926 0.29673332983685025
P 4.242930629637664 4.585136181689567 5.296375923513976 -1.0208883918677643 0.1285746984483205 2.2503778394098215
Ni 5.446360676747794 8.219628452954902 11.96292622382782 0.6991677959579572 0.33115577318077805 0.16872890206970295
Ni 7.285563142191651 8.16688262541361 2.323129726599909 1.3134441932881573 0.26095694356818927 0.20306624189899222
Ni 2.9012455636352987 7.5936456602128395 8.35862519539532 0.9792059245273136 -1.1170394225697406 0.1258729832464413
Ni 1.4116190005451146 4.729383126590493 2.878315897486548 -0.6948375440137194 0.31519745007930877 -2.4936671904949184
Ni 6.675183737365803 6.7169490557425 0.2615208457267369 -0.3163590744875778 0.7052201727996241 0.025383473070111125
Ni 8.450397309095564 7.602788270319997 12.75436212840141 1.4602672964237047 -0.11655401983836056 -0.7459621306036766
Ni 7.0555819570756055 4.874942856532448 6.787940719946877 0.04233372777120452 -0.8672274398747775 1.2780884394966827
Ni 6.6823853010194405 8.524804089813816 7.0137453732252535 -1.995846082641685 -2.1606224278215436 -1.3334756580177358
Ni 2.279754371140752 1.135268372372768 3.8656793432119256 1.0104669394241244 0.9354894574759696 -1.1243431553200058
Ni 0.8236225806687896 8.499570485918062 8.162381648130086 -3.276055939356745 -1.4040786650472787 0.9145367664837024
Ni 0.6203950169852889 4.477384660929212 6.88960935744927 1.3385260759574498 -1.171593346556221 0.16687590802136423
Ni 7.033517791350333 8.699160697334314 9.218366243357185 0.6591876560205937 0.355711093922639 -0.04103377801285837
Ni 1.3388813322361703 5.78643764162603 4.821229318875197 -0.20308835338617928 1.365687723973906 2.43419526038153
Ni 2.5436522954953498 1.5172700652398257 13.465689076660688 0.4635912401360855 -0.288351019310426 3.43466009428762
Ni 8.827973040967159 6.364550665550617 3.268936024147953 -1.1555404068584163 -0.9504715327070986 1.6868748159777465
Ni 2.1780604156411387 4.416349533557429 10.904842110238675 -0.24544316420330628 1.061910599916397 -1.959241029824142
Ni 3.4259844986061014 8.446318298432372 3.7570932662469168 0.9860825970424888 -1.1087455579920649 1.007037087806969
Ni 4.351057231838313 8.995071822617973 7.093016960224112 -0.13652120698890682 0.40005799546913035 0.4664621339259773
Ni 6.160412591670804 2.4958200348219033 9.848501187643299 0.8068882766650879 -0.47601249661857375 1.5585595418383997
Ni 4.834912289817109 0.32941808804869166 4.943787179491144 0.14422243228790646 2.988732589979885 0.7526619112213553
Ni 3.751442664348893 0.6107272928617202 11.773737020750909 -0.6123660676813648 -1.4875238181468122 -0.9200217008576735
Ni 2.7789408829915505 2.885445257962929 1.884186920281874 -1.9917636850421958 0.3549245934656017 0.4585171680472877
Ni 8.977377355672122 6.081814275857272 8.115019176960606 -0.3594067976066714 1.4884692127792172 0.8689053417978325
Ni 9.37045332806385 2.559208798231529 3.320607243362805 1.4082556792431038 -1.179315140680511 1.5277546406424012
Ni 0.833890435096828 6.897016278191469 10.473749758465987 0.36424587086652754 0.04685295579779673 0.28413286746402033
P 5.359332405563662 9.15766024994926 2.932691453885917 0.3440699101392849 1.0202440734155462 0.2804461626410525
Ni 5.258416744052659 3.8879910626877927 8.495702458565033 -2.482833590214524 0.7071179040429694 -1.831725111657639
P 3.9912509832006315 5.755577816125871 9.31616497809935 0.2978851840531063 -1.8741305732070432 -1.5187511515922103
Ni 1.7589819224010548 0.9425515283498955 7.495383699891913 0.9165756512906021 0.19062235970868463 -3.170617826925888
P 2.08894106542737 8.509528898157857 11.774944782988655 -1.517496967470135 -0.09887717138388778 0.03385731486907717
P 1.4775958258927657 7.189101572784134 6.701656047718128 -0.4076129249982528 -2.808342963742802 -0.09718332862123263
P 0.9026409876954508 1.7923079083711446 1.5679670104135146 -0.0720803629060178 -1.0408956882276268 -1.0440085228249956
Ni 3.4907141781647764 7.074673602386552 10.749716865865633 -0.5854548451128175 1.1196516633816074 2.174179597680688
