# total energy = -340870.0479421939 ev
CRYSTAL
PRIMVEC
9.20606469034364 0.00000000000000 0.00000000000000
0.00000000000000 9.20606469034364 0.00000000000000
0.00000000000000 0.00000000000000 13.47400623759577
PRIMCOORD
 96 1
Ni -0.15148303236282198 8.292371959613014 4.675803515550536 2.365665076720616 -1.3731266967504545 0.47356352085744896
Ni 5.865183802704023 9.101281244171474 4.578898637597274 -0.6499743649524419 1.0428319860183912 -0.3101454894776981
Ni 4.754702251611302 8.498891608406076 0.6167897621257646 0.7843636132000104 -0.28223565044130744 0.660845760449307
Ni 0.598137354493276 2.746279564514586 4.00343674099827 2.8600416776686743 -1.1237584864611292 0.9368606267918833
Ni 3.358860313872188 5.38274918961832 13.396935048784044 0.6766816990402991 -0.0942378728396635 0.013066860486287172
Ni 1.965457983271226 8.207105388618439 9.81156964032176 -0.3908465041731914 -0.7800822122158371 0.9316207185491827
Ni 4.861603074585716 1.5683635896974775 1.4955473005656805 -0.24288594499909139 0.22916782408205047 -0.09271603687849839
Ni 8.323672579498737 6.125319572148392 5.272297587499811 -0.7316773385498883 -0.1600923094406275 0.48964705668287284
Ni 0.5670383474238764 3.096312555483684 10.542466732847393 -0.9444595221850638 -0.6355062532432539 0.35224576108185784
Ni 2.9413100445966522 3.4834275749526906 11.660431893912204 -1.6012365118816358 0.3451605721003023 0.43784472729960083
Ni 1.1057220156571572 5.987108923223585 0.22623259507579577 0.5017659514335939 -0.1685916051608903 -0.9744043893736122
Ni 6.675326699928567 4.196262368591327 5.7431196706079115 0.3221833944788387 0.5019950367252646 0.2208436204870713
Ni 8.232661424148663 5.169251343803677 9.68678603672146 1.2359835399068326 1.8926322315556563 -1.685770270059658
Ni 3.171618164502863 2.8892129246162694 8.031060575709997 0.8234790911442335 -0.4909822305545286 -0.003734270231451633
Ni 7.525129323761255 1.8241356844871899 11.225383657514081 0.2800625540493886 -1.9988257340952997 0.7159974659207862
Ni 0.9611868003024984 6.277201227111524 8.122993258133766 -1.0275208095826174 1.635721690142699 -0.36591117438409243
Ni 7.313205715005571 3.9017971839840584 11.231015007274111 -1.069692557854661 0.7201397702239339 -0.589962503175184
Ni 2.4982037397908923 4.503109710182801 4.108911544554949 0.2020892226977036 -1.0799096075969787 0.7071839813942143
Ni 3.4707692360283176 7.161545005594575 3.640501450390983 1.974756866071554 -0.5822306817485651 0.18257017882816942
Ni 5.614751225424229 5.56251601447376 1.002035029859833 0.9088047490959316 -0.5745471970613784 -1.116630617167096
Ni 5.475325375962679 5.071482936984156 8.209967554125047 -0.6107141339002385 -0.02103445207279603 -1.3178376943701626
Ni 5.971817649802942 5.981253866092019 10.281124968930955 0.5167922496390971 -0.008684158037559238 -0.6285236512778337
Ni 9.01111704677125 9.268573851395988 1.1671255464147392 -0.7019350742904492 -0.655555201474329 0.8708704359440034
Ni 2.7411978168154922 0.44776549413639705 0.5402873646991905 -0.1611012103211161 1.817631095458418 -0.5609679157150468
P 0.19397454446415724 4.837879045925273 3.823559443366761 -0.2641631092103128 0.27253924908914995 0.615845798699849
P 8.672527194189785 7.095334988471599 0.7502003689304511 -0.8374214122569383 0.028174662662003087 1.5714338266979067
P 1.2155963975207147 8.074353936044286 6.618782130105009 1.1239436058887418 -0.4357017128146689 -0.2377131425489003
P 4.165735058138075 0.7893399528846123 3.586187510037517 -0.8582954274924703 -0.26342211727923015 -0.10087903230526499
P 6.5522784395189895 3.0538818034091855 1.6923490274906923 -0.564023414711919 0.39729791622548993 0.38925139177192963
P 2.963726812073633 2.903463912728945 0.4194172591910722 0.19650530085202286 -0.40825287257509685 0.03371461864362581
P 3.5389125267324695 1.8384419089878994 10.23529994081179 0.5546777118309609 -0.48080708979373965 -0.9317068505050857
P 3.069743852839509 4.820976711186983 8.934478399587526 0.13435325280331054 0.6610864157052033 -0.2779285384255214
Ni 1.4313681413094088 5.343476117726411 10.349249847505764 1.1708850076352868 0.47196840845618715 -0.6348256822364615
Ni 8.786507480897175 2.4371583249490616 1.7410979017497703 0.1738446260297135 -1.7675578329511108 -1.6017491898519962
Ni 8.423024429441888 4.68112738275051 1.8778724045857045 -0.8311787737813363 2.425331896453629 0.06885979908619108
Ni 1.8244210724920302 1.2741009385129987 11.417805138868026 -0.7896197193926272 0.7175460413548288 0.6018219736169312
Ni 0.6284050539227694 3.4306768243805763 13.34423769338703 0.9518938669759219 -0.7664216840096091 -1.2683164477115834
Ni 5.37018291134067 1.9858217983262902 7.649637666027855 0.5509964063246318 0.6550489512618718 0.8656030168974769
Ni 7.719589027833641 8.105811059029438 12.653560056201615 -1.0132941244602742 2.5273684394021054 1.237383762688469
Ni 3.732442418272956 5.580707198266169 10.865048159570245 -0.16883406018899955 1.2630102050073215 -0.2336608268563976
Ni 7.310002004499621 6.003293184917436 12.209740281383752 0.6824080600011151 -0.7199970739984826 0.37978433282175883
Ni 6.97807734274088 0.7388787505964918 2.6350040196079085 0.46982719374346826 -0.012711019808765205 -0.04043368253501423
Ni 7.279741669921864 0.6500853362259682 8.204848061560797 1.2318360933973624 -0.5875842327509946 0.10801075825403979
Ni 0.49771391862227204 4.333966683959161 5.99380357345326 -1.5764958146018462 -1.1360041365977016 -0.38270356335108285
Ni 4.0109534928031785 4.325800904594856 2.3402865888286195 -0.03523234083973287 0.7372782296764334 -1.7000640609745108
Ni -0.0030959995492848267 7.021235373924488 11.203717184307893 0.6499820782619257 -0.9917081707593823 -0.5638226115550226
Ni 1.4742223723588315 3.9966380622377966 1.922942535401743 1.1405534465312808 1.0239672879034043 0.24651068623587225
Ni 8.101263263081336 2.6602396840875384 7.1111086596810695 0.07505050127793526 0.6105035605513293 -1.3877984398300163
Ni 5.913662939268204 6.875171951834231 5.417723029308278 -0.011820903894328029 -1.7479467435884026 -0.1780149553573192
Ni 6.967628459337852 3.3391777476028723 9.022585041533498 0.9699471249332069 -1.0051771517800947 -0.9448791262209857
Ni 2.9622446356613974 0.540893123754626 8.24448845543313 0.4263853205097496 -0.5876739642513233 0.2271006571403766
Ni 9.113451661668217 0.14249883384915246 10.87877808442247 0.13410874089267227 1.3143404798501814 -2.3100971096473244
Ni 6.758245724431714 7.429413869363651 8.177051269889342 2.0524656309079425 -2.582113653463785 0.10881757042605131
Ni 1.0716871945637703 3.8754954572153792 8.331718680022302 -1.4245353902397337 -0.933382952655928 0.24030507164579257
Ni 5.137140590226795 2.864015925608263 3.6922008683775243 0.7894561972315695 -1.0775994714065635 0.7159812679708701
Ni 8.216200980514643 1.0270285748385826 4.965615955072438 -1.6313929808603582 1.9794005354911521 0.8499537403959943
P 7.639551501572915 5.33556810817293 7.45953335115192 0.29949418041143905 -1.0198807765388564 -0.22964039284309481
P 4.154669368402005 5.5872895345068425 5.263809595871977 -0.23846030512756997 0.7908456213799283 -0.11092947456273154
P 0.1806524482769135 0.7770470947277284 3.1170768343519915 0.6312670183509257 -0.736729556261815 0.8110663193021773
P 2.7439043998291397 6.1177245687937685 1.9484764763767546 0.1208063673568113 -0.4558409067667053 -1.125076176831288
P 5.752713310602885 7.159234283361834 2.3553504724518572 -2.4429012727959605 0.5166670369151424 -0.6301902403469792
P 5.867439288548731 -0.05075119332529703 12.148217992391897 -1.0568545255497281 1.8404082412539335 0.3045037178108885
P 6.37758415629797 1.9909587824134176 5.749870477832088 -0.5718884192822925 0.902939034343774 -0.5009326568990211
P 2.564330902331817 7.170115851804458 11.985573527220414 -0.3439696371159947 -0.17726804988896566 -0.08544341447648511
Ni 5.761449865976871 1.1005021769879793 9.996877595503442 -2.2794536737298547 -0.1343843631515621 -0.041662155625476635
Ni 0.7680628962140589 1.0055416198935012 6.829394795251363 0.6198729175813712 0.1905082027283235 -0.12893568133216504
Ni 7.3591623898495495 4.07881139550249 13.368248951265246 -0.8653186528878387 -1.6193283363863404 2.304601890860708
Ni 2.8794268778696455 2.2093726667630533 2.5249482782703074 -1.3693338053669255 -0.7958482168008423 1.020845454444971
Ni 0.8659638703648604 8.534104805777513 12.757377768117285 2.4163831719007742 -0.9517329159180253 0.752981242233987
Ni 6.1776836680042715 5.147782800987941 3.5164055398217005 -0.40407688682053633 0.7584867454332486 -0.48509748963897736
Ni 3.903316184654983 1.2522365349163544 6.037177026550198 -0.2502171885531819 -0.8230990820969953 -1.1234052168867683
Ni 7.446334616231286 7.4300030575026765 3.3472256893393717 1.0501084650751464 0.11354840024281736 -0.05451510032874482
Ni 3.398520040480333 6.869316894702667 7.93662108187597 -0.21826223291314023 0.3785553455106642 0.800620441378505
Ni 5.2270009874928345 8.65892983666884 7.278038547957495 -1.312418066016488 2.208179094554584 0.7861237904242268
Ni 0.7492420175980676 6.570147411047867 2.6283204166558396 -1.259886057556043 0.3259819422893225 0.7334501141795949
Ni 1.6855752051048352 6.454887481351031 5.110609632447776 -1.0047138389904309 1.6486751649795737 0.3169141756600994
Ni 5.103124181262753 3.511855902660664 10.226244855600147 -1.7057875937218494 0.20375504043590068 0.40537066593129545
Ni 4.672593360799315 2.194827084580865 12.390696529794852 1.186489289831447 -0.8630077453664748 0.5613972899429815
Ni 3.5778449742315046 9.165981466688198 11.755060112072012 1.686080087990593 -1.5200408169379114 -0.19979425601593975
Ni 6.7962483593988505 1.3067180256468558 0.20379005061773287 1.025088803102357 -0.1432893789506758 -0.7135009247511777
Ni 7.030330965820691 8.36470400974305 10.40492444421779 -1.7449570648324593 -0.6983622693375263 0.42848488335125556
Ni 7.65707984870892 3.094305633385129 3.564427134971669 -2.4070325839238094 0.6956474415095245 1.924805216743775
Ni 4.342417851328306 3.5661993024210816 5.922539426825208 0.14068870810303513 0.029145768326020775 -0.14889592650417582
Ni 2.278528624581155 0.07342112758076502 4.78348777462856 -1.3885031792065248 0.5242924146708842 -1.169913901971269
Ni 2.499188788710825 4.961783470349372 6.71640139867684 2.1210480079630307 -0.11047104686907426 0.5978943564277509
Ni 5.310997121562638 7.067284109415189 12.287498386031624 -1.5302784355055195 0.32345994719841714 0.19598439535154635
Ni 3.7920793052199295 7.914849659532515 5.845670628024677 -1.546425734689343 -0.8157272151129565 -0.5814943178031727
Ni 2.15196364746677 8.364694803678379 2.3031253881725293 -0.7064224206378414 1.3119023027223342 0.080000646194359
P 5.174544830990233 4.719829678632738 12.248962719919964 1.3727662280872421 -0.6366233975668326 0.11026098774079719
P 7.0991647113752645 8.44621450635134 6.206868734228306 2.326933464478373 0.47664421666530177 0.3971575339928838
P 9.308988475307258 4.822615390698647 11.876864633144367 -1.3899265419166127 0.47607317465318005 0.2304322926167709
P 9.080806956340343 1.3941664339687605 12.925250357416152 -0.1211408678780946 0.14485723765842795 -0.7230718562690643
P 8.644319812033945 7.81535971861928 9.243949469610596 2.4219791779313127 -0.6511105354394141 -0.8596303442538099
P 9.20891855231967 1.7797440406374978 8.740790163734676 0.10424332079180758 0.24493614265990074 1.2153604643398424
P 4.876949584394391 7.658534406927139 9.303747462689334 -0.09942301658502878 0.26477580309364723 0.24581186039663472
P 2.1465504814394745 2.724304688141874 5.986891660097319 -0.059035871017233815 0.04578080577954051 -0.12427915639676017
