# total energy = -340858.0105206821 ev
CRYSTAL
PRIMVEC
9.43965339274824 0.00000000000000 0.00000000000000

0.00000000000000 9.43965339274824 0.00000000000000

0.00000000000000 0.00000000000000 13.81588691507095

PRIMCOORD
 96 1
Ni 4.036915037388035 8.205343327984592 4.110019490312817 0.49092643761592875 0.043590482996441055 1.0285032281005448
Ni 8.507629353501134 2.489567028061249 6.941460562933525 1.8480837555213205 0.5843287019281743 0.1160940494828065
Ni 2.7198473763258106 3.2806383142106674 7.994894747855673 1.1207616086163343 -1.2445643395973083 -0.3482145284352777
Ni 7.750116035709187 5.130272349053996 12.839035150507089 -0.06460822289868874 0.07106631981920665 0.5485947388616745
Ni 5.007679568446829 8.563766973141608 11.352224583338757 0.7968884851398985 1.04060258246724 0.25773817952057543
Ni 6.265466205237626 8.358898172223968 7.322585630904291 0.6700539093111364 0.6051163280974869 -1.0336022398900069
Ni 3.0243989186934903 6.016627498100831 3.714608450664921 -0.695192613360293 -0.626408918927676 -0.29526137327701407
Ni 9.111502870171785 7.8091988272561395 12.389936081314012 -1.803960539949861 -1.8487812958089773 -0.5617844980790713
Ni 2.3791136419147585 5.24491694137509 13.228380268786067 -1.784025491588831 -0.1442021205729323 2.3642638254977153
Ni 6.686125486226094 7.437238718913577 13.220781347681209 -0.48024967462837287 0.20360591645254614 -0.39181658139594455
Ni 3.3279026595175196 3.362640584568292 12.761347745785528 1.164685049472162 -2.1328275170964623 -1.0884479840852932
Ni 7.881383857925502 4.648151483824883 4.490274222226605 1.0079323459277285 0.3342382687608437 1.0570386165360763
Ni 4.6109214902378595 5.0195168939940205 13.73940252127821 1.0689371677458752 1.9024376476818528 -0.5650701108088785
Ni 1.7239639271800324 1.4813365120767727 9.99986960938936 -0.3286504902604211 0.6412423843960828 -3.1482448585473266
Ni 3.7383104767545903 7.294312924567452 13.084999483139004 1.1681647804906463 0.7993040365599267 -0.1899836976834212
Ni 0.385567368929705 0.610234899195574 7.913975205759821 0.11167252337634316 0.36331256041898075 1.62036371962939
Ni 9.24137362366323 0.47335897880733985 5.450699500756021 -1.0131545135586164 -1.9156610883506622 0.4358246115457785
Ni 6.1716549282934485 4.506953146077749 7.2853103269802455 -0.409898635708636 -1.5257355533298433 0.6649243013940549
Ni 2.33580451144385 9.046897881300186 5.696483536005198 -0.06078987759386305 -0.4415491727343815 -0.0415701101323026
Ni 6.192677036741293 7.61762105853184 2.5533281119057993 -0.0572659236010046 0.0689407888357716 0.30849381280688803
Ni 0.2906072861489298 3.636588770138525 13.679358773000233 -0.43461542172902573 -0.5560753635094359 -0.49100819869645757
Ni 1.488586166000412 1.7688777987538298 6.232305646294459 2.5812150529089157 1.6758740939918688 1.149415010686969
Ni 5.306293568733818 0.342919014207045 8.998093928499914 -1.327557749871404 -1.1051827803414707 1.0370184646604075
Ni 2.6120276535187674 5.804339129495719 11.152612725481111 -2.803617533242675 0.37129326463161216 -2.2232573290439452
P 0.31176532560784304 5.62394735022391 0.32345161669829303 -1.1317394477840765 2.0962805712103636 0.6241990557605508
P 8.631203858077127 2.214627678868643 9.302678509655006 -0.39297614892168453 -1.4713441230631565 0.2751802862564228
P 0.14352615631167676 2.559562059107846 2.2388649333143937 0.19218559043074643 0.15551960246828056 1.4920011371918758
P 3.009625860893366 4.696737380628232 1.5875420541273806 0.9072356048365988 -0.07554081065079249 0.7015810333851401
P 1.3402136915580105 7.629250711701011 4.258857339675057 0.9399847742431618 -0.060748997053598604 -0.9075387378993144
P 0.5553499215807085 6.0137767227298164 9.680612974727088 -0.8322444960416893 -0.5168308161865164 0.34745759566459516
P 2.7665453424198785 0.14939384495612237 0.7063749386696498 -0.8606955522935307 -1.5962963942675412 -0.9972234441506567
P 8.386886744989061 4.558720206126237 6.958717193581708 0.12945170173663512 1.180391147353509 -0.1783419996794348
Ni 4.008794309473293 1.0886941228140368 2.029249874593623 1.2088149499118408 0.05317529847139875 1.5916455257590911
Ni 9.346559683130828 4.039964045483524 11.182869646993407 1.0291997399469373 -0.4025699632577067 0.19783764651020122
Ni 7.9735903937667905 6.186484624014851 10.713143046870723 -0.6350599097344547 1.1888220517296817 0.9589592584631355
Ni 2.5309410295551444 8.639803382457904 9.95380787594432 0.027887727549203586 1.149182840071505 -2.473646781508933
Ni 3.683079063854572 3.367181057924113 5.561033003302471 -0.38809876622472517 -0.23279153687756685 0.19548303023509558
Ni 0.5054896715485948 3.599368216205048 8.46173375795851 1.3547690201788731 1.2309269513195316 0.06060655793846337
Ni 4.283138960492476 7.3422663645831925 9.488571719013661 0.12238913846289891 -1.0392242140624748 -0.9308198199144421
Ni 7.485173279622225 3.885314201432763 1.0927937643492407 -0.8642647577020277 1.6838267731800418 0.7224043978883945
Ni 8.096777872547381 1.8379099851386933 0.8388161098217827 0.39592083337230527 -2.129214602934223 -0.5719642668255505
Ni 4.0887481750113475 8.110767439103155 7.206242844910198 -2.5545092614829557 -3.3871599918241277 1.1890619356546295
Ni 1.8760273061590784 1.6869038473568447 12.135515707035227 1.2456591153233838 1.3657612575243188 0.3475337003181692
Ni 4.101642741755738 4.508151982078143 9.482174465805262 0.7788403693889361 0.0775807238989567 0.44183405096465195
Ni 7.392343726646874 6.484645520931615 6.483008685006668 1.127390941007394 -0.19438465496459426 -1.2018986824079816
Ni 0.60748796001357 0.244554992357436 13.02121102429917 -0.6527043622890953 0.07862459178243879 2.397310728650355
Ni 7.276925082734974 0.8449783156568761 7.931134607976477 0.5040007543013836 1.2509375901135036 1.3145065731144008
Ni 7.153341138505433 2.5648010668261003 3.428343405147338 -0.031180539367862428 -0.04475853516261324 -0.8680365660396341
Ni 8.760376077206141 7.83157080616112 9.132425862257392 -0.15213628781834443 -0.7122925062653732 -1.3446776973811423
Ni 6.414301222703802 6.585593175956876 8.582843568993539 -0.13281958976760352 -1.3765084687384939 2.224678120650872
Ni 5.904087948520585 0.27987345610131215 4.047626212267141 -0.08550666361425274 -0.06748682999806442 -0.4354096354955469
Ni 8.094852183223916 6.023348531425873 2.09559364764847 0.9770297428116013 -0.6350005172514289 -1.3122817975489398
Ni 4.910857042021346 3.252224957035987 1.1742305994594353 0.7392564364487269 -1.448597316284944 -0.9258233951411152
Ni 8.604451879926616 7.354764465878633 3.75649785724245 -0.6411464822481668 1.1562243202993183 1.922464741536057
Ni 1.5691724883260756 7.330853823445588 13.673777105858244 -0.40962532744259134 1.3252689538372273 1.1113063767407054
Ni 1.4241133322784625 7.918236265370669 7.681702146631614 0.38044664899610603 0.41631482364762495 1.5468288836650328
P 6.072057143725324 4.402361784783577 11.015420576699073 1.2363113555598966 0.5479465637547144 0.16450329402412958
P 6.300317406130955 5.903615965843265 0.926204646492986 -0.10594796218774011 0.4497998427789479 -0.15072038130742432
P 6.162913809109477 7.732954745561822 5.197301440956312 -0.9922725279032846 0.6381843142960493 -1.8683360780124532
P 5.824634384620491 3.96686336842016 5.04835314764758 0.8480200137083912 -2.151707641830417 -0.9013084407188865
P 8.680705401274478 2.093205415301229 12.534892345137969 0.4545103608807398 -0.06921975352877112 -0.8157071605082984
P 6.444375958902649 0.9394767993792321 1.9331608092486976 -0.6787084996623408 -0.8273426878646978 0.28998495536942315
P 4.525332151532601 1.388318166030493 12.008355078076955 -0.3943820281302757 -1.833614872481184 1.1690618383836189
P 5.334159426002809 2.291173829476445 8.048596936881173 -0.14122092645742132 0.5688115801291818 -0.2407771261862047
Ni 0.610413308647601 4.696652423746314 3.0847145289936027 0.1759346757895228 -0.5608658429195438 -0.2344043898906415
Ni 1.7723138326447214 2.1855157873315285 0.7797993958496555 1.2201360313516147 -0.8793229375867309 0.8933369924776358
Ni 7.953984233350906 4.4286229009496765 9.309476004173774 -1.3658013667336348 -0.09200435552345446 -1.1713141247529053
Ni 1.510193532968134 0.5974479445016131 3.7154098772510107 0.27980030152693747 0.02307410821064413 -0.9145650486184765
Ni 6.521356333573586 2.5158659028415347 10.121961144393214 0.22540604304677309 -0.985078838368323 -1.5126586655412273
Ni 0.3471904574367935 6.82361404012949 5.9969099497731 -1.7632779746288343 -0.25570160870652087 -0.4508012874602688
Ni 7.20151169055274 0.643927854598759 11.945920265555674 0.30070851243451435 -1.6233343722219398 0.08650707985430908
Ni 4.418966135371704 3.5556909392458302 3.2604799340623183 -1.9965788470426518 -1.0603239721555673 1.5637536844448294
Ni 4.5837352880242115 0.4761125257468264 6.308582766776188 0.9183173165720573 3.7369801741836293 -1.7985262563081672
Ni 6.126778815333838 2.6085255420530506 12.426091842327455 0.4464180707909086 2.335862134426571 1.9938442217203078
Ni 0.7147262001621547 7.499228923752822 2.009423770250107 0.8101296664205209 -0.29826904975508634 0.7952234387326498
Ni 8.16049553398562 8.609615370416499 1.3511882327710618 -0.772355790105857 -0.42533245376520296 -1.2819615492988439
Ni 4.72741625465405 5.999617242410209 11.263691960657729 2.6472831481825825 0.34994230975966184 1.3042782105181732
Ni 0.14941744408998842 2.6102813176126825 4.689692567186549 -1.2358598698447747 1.7289447485646032 -2.3710939610456716
Ni 4.98569461533725 5.780400168102035 5.61668353681995 -0.8665275855942753 1.758642532739352 -0.7174653087155644
Ni 9.41578066258662 9.37699312616444 10.633397797676043 0.17287917679265066 1.3098554474956345 0.4333800066600278
Ni 2.5231910739935453 6.261171162874011 6.292445679038608 1.1136540510372757 -0.5994367612142063 -2.831216525906866
Ni 3.8366716667081358 7.448169837720315 1.9140530625400638 -0.7359525688864744 0.1842704493487278 -1.399344492796403
Ni 2.2666307302557906 5.705496517211307 8.373836423961157 -1.4372063008391829 -0.0587399370433698 2.1924300592504435
Ni 6.087859123762008 4.97713284957066 3.0543330040544974 0.46444561771658077 1.367242984276168 -0.9925273242265681
Ni 7.010547499308958 1.6898301399562305 5.663740209748782 -1.6836673647840423 -0.009255714270313091 -1.0805801513014421
Ni 8.606151017564969 0.42681299113536914 3.1795188574908626 -0.5231901827456409 1.2159579887145253 -0.0045719356413985775
Ni 4.094411967139191 2.2222265999734994 10.165895179928894 -0.7432920399706812 -0.12159826713048735 -0.8693925658468964
Ni 5.441875312620841 0.13317840809410705 13.797926485335214 -0.6797518533251906 0.4534811482852771 0.24235526930660195
P 2.119324936664133 3.5580036543646996 10.610021439633725 0.7927520943740218 0.34540379845936 0.18140135533104887
P 3.536764433885287 1.2953281389448528 4.286130386701331 0.500060538706713 -0.0154502731167992 0.6842723669033635
P 8.44805569996977 8.636433426141837 7.076083238020232 0.6941736851774755 -1.2276786195855631 -0.8173228417348505
P 1.9369036318798476 8.2351254349235 11.769201455478772 -1.1292981853324358 -0.43750868411642074 1.6484969875304964
P 1.5292899520925125 4.150068164448798 5.535086227599468 0.7975495157626652 0.2774631687533286 -0.23696315175675317
P 2.8388247696247055 0.6636293555154619 7.791814761285079 -0.9944191419326422 -0.11909324132044652 0.5860986493444036
P 7.172305402480161 8.37882528086043 10.555241242173226 -0.28957589285646257 -0.6524624214816183 0.5488400221032613
P 4.252318491663462 5.805009344897513 7.696223165682049 1.3693062945630998 0.8294255385356554 0.1585622459493463
