# total energy = -340854.8981778354 ev
CRYSTAL
PRIMVEC
9.45409419711359 0.00000000000000 0.00000000000000

0.00000000000000 9.45409419711359 0.00000000000000

0.00000000000000 0.00000000000000 13.83702249196127

PRIMCOORD
 96 1
Ni 0.4410334973803437 1.8174739893545988 9.34426605018813 0.5944650190312278 0.4597183874442405 -0.8620754633601927
Ni 5.166416708412132 4.745302987644444 7.206335136277178 -0.6623064041552336 0.4799557975370379 0.22343452114269907
Ni 6.014543504767772 6.436999706920841 5.382809581184676 0.04905741964828326 -0.5603529078388672 0.671351030856005
Ni 2.156261457277956 8.025287543145874 0.16534927243586275 0.18538527967946136 1.500542084783351 -3.583775850112086
Ni 5.083192316612793 6.730624966548681 8.46788380230793 0.805669316656322 1.5563221678674488 -0.13929979817530846
Ni 7.972628238099603 2.836606442743801 0.3993116339872206 -0.18178419259176434 0.5331835465129269 0.1781810486215383
Ni 0.9057599003938038 3.314539270033587 3.644062670988392 -1.0026394729599055 -1.5082710779964927 -0.5744340685222816
Ni 9.540788307638188 0.3236297185910978 3.133117091940783 -0.28191683364930803 1.2843105091469946 0.05614312285047105
Ni 9.215104214363686 7.96163312647145 10.08771522404228 0.24762577367692193 1.8797502333866658 -0.8364639334396756
Ni 3.509586688778579 3.6275926933723937 0.23399545088127918 0.33260793224627233 -0.4057769002307786 0.5181585338590045
Ni 2.350136568334306 7.392137396242143 2.2334342833393928 -2.886779093663519 -2.7050635495261606 2.1368456371169198
Ni 4.481278497154822 0.5641919833476264 5.945699735752255 2.1780995015603843 1.565426701271878 -0.047431711119402184
Ni 6.338714942960154 0.7504782929388699 4.000490533397536 -0.551738940917611 -0.2824194843173394 0.23730613691846875
Ni 6.999168514096134 8.720881982658332 11.117743521069869 -0.1019738080313405 1.1944581669695364 -1.128031145694554
Ni 5.190846087988356 0.8146063597358819 1.6269711537219484 0.7655253974475849 -0.5223381191579908 1.2553694006326122
Ni 0.24521178831519214 8.9307250589253 1.0301247287890765 -1.990168572640934 -0.9776897449931032 -0.39676801186394894
Ni 2.2461320773443556 8.562459725089148 9.411251144271494 1.2061690276485613 0.10096619270243258 1.203444686738863
Ni 6.314588094400355 2.2799399184297173 12.650235183772086 -1.909703070995014 -0.3039265051511798 0.27281898511309793
Ni 0.5018649215077624 5.844464348972009 10.309246397046895 0.8091228224225613 -1.1125626177453098 -0.15841003664219816
Ni 5.041575393665991 9.211681832240393 12.333214822480423 0.45863338191017783 0.6469564040617245 0.7429919922317592
Ni 4.599520854105218 4.266377480457017 11.902053290329759 -0.2617694121671556 -1.8870112858244534 -0.14856296864478932
Ni 6.296540228451822 8.256175433242825 0.368673750708325 -1.3294845345804716 -0.326690795430889 1.0659487745415126
Ni 0.6165411941020624 5.409481471920142 3.132591444299747 -0.868814581856239 0.16622310492871373 -1.1503902301160447
Ni 6.856695313549042 3.2813459450753366 6.92414271284188 1.3338304702539932 -0.9928361137162386 0.39833072836537853
P 4.249842269590602 8.781558359639833 7.735144226435187 -0.9150548437707015 -1.1328578776592362 0.9493770140913393
P 1.6877354537800984 8.709007640263698 4.087276282505839 0.23853795244304077 -1.6068538580684133 -1.4799046110386578
P 5.65300948604705 4.187936860354879 13.743401703927328 0.5639920472533513 0.1024944564215009 1.276785147304227
P 0.4061242543133144 4.352816264305859 5.5905027964161835 -0.20250445585825125 -0.5654436920982133 -0.7603420534744325
P 1.7564572649796206 4.229865768412368 9.469574397190874 0.6579841226307959 -0.2324603787903932 0.1372380305502733
P 4.839219960055512 4.84865514613023 4.323280728418058 -1.4506377437537403 0.42826351136906887 0.1496636579081358
P 1.5561439157300017 7.684817246443659 11.711752772314343 0.09737590424801293 0.2526661643143068 -0.4498841749626381
P 8.437372603892163 0.3468329021413782 8.972963115865197 -1.288522490345813 0.03256584975116327 0.7922697554209646
Ni 2.4245213819975118 4.705312168910921 6.451982555509231 0.5695697984514448 -3.002474622156326 2.065301863440663
Ni 5.517541769349022 1.727442649685724 10.432257399143673 -0.4901463649167946 0.047584691757498694 1.2254854685889862
Ni 3.834684628208759 1.3582224523289834 13.819684899718593 -1.8566815244926604 -0.5587567669963409 -1.2750049154753527
Ni 8.133045309558332 2.709070711132637 11.268885180646928 1.8937866568750739 0.1215314184482939 2.4780639367400226
Ni 9.311753420016833 2.0600282317723932 6.782838983755152 -1.5012949037889756 0.4324438679990036 1.2946075201976286
Ni 4.815225468815398 4.793745766649308 2.080742152303161 -0.3862357448740574 0.45313816312356153 -0.3513574449396336
Ni 3.013832893802578 2.1729290254640556 2.3385817743257684 -0.663964508583947 0.27975016501529243 -0.5214320624039536
Ni 8.316502008736586 7.46011233399487 6.663647435740727 -0.6882156678218276 -0.9242483373445115 1.9573247866380352
Ni 7.539942705953704 2.5340281558486697 9.265865137281898 -0.7544465139256038 -0.32221373349614185 -2.696592535940672
Ni 3.625711328614008 2.636472721285184 7.703624276161531 -0.24705678854732932 1.6208725409450087 -1.9306848154530039
Ni 0.8808322900499077 -0.08478620817162699 7.722566499427367 -1.837307747951739 0.17852789043799575 0.13633428778908133
Ni 2.6368319768671875 3.050221702621805 5.021483552537745 1.0009314891298633 -0.2676883487547519 -0.7957708265956875
Ni 0.04791618595440078 4.5972140551049865 7.733248680535406 -0.057331486731617386 -0.23403492236636467 0.6933306204508898
Ni 6.948560747504987 4.749292615423533 10.49103633940654 -1.354093077157771 -0.8454152290956924 -1.1037370490338798
Ni 3.7665489708535573 6.327738739520528 6.045907462486085 0.8408888019802485 2.0880923789726165 -0.1956676354420759
Ni 7.444579257120359 5.447165491653433 13.48446918860789 -0.47876126300830457 0.13872644217034175 -0.09849227724064327
Ni 4.114506910212262 7.740738214010748 10.871375497026282 -1.4573796904632643 -0.14702082096865002 -0.6910132851716229
Ni 7.953048808880424 6.5229090614909415 11.33271544347465 0.14390207283401021 0.5238879801436138 1.238357439455648
Ni 2.682268353896339 6.283484124274281 8.361657599166119 0.6495928132433071 -1.4253982524606612 0.33081150246748187
Ni 4.771944625278266 2.8786204376496585 5.789493517878375 2.1546682671206376 0.9096048763997238 -1.8385362210422014
Ni 2.640736517797907 5.701414448674861 13.825191909626934 0.8574855299966652 0.63201520937086 0.7858671943287305
Ni 6.134884670644608 8.516465556498465 6.467811545534181 0.2598035466900364 0.4400759306229647 1.7876054956306053
Ni 2.792143837423764 5.7030500069824015 11.331843775983577 -1.157487246172142 0.5207473776321032 0.1816818626859452
Ni 8.169197766020977 2.192470638306182 4.8948743221643785 0.06433517174296018 0.8483624846494744 -2.6793401766181275
P 2.1913456010888557 4.603226859056409 1.9112661677213925 1.056404068275871 -0.6545678978603953 -0.560224352680803
P 9.416022625646153 4.217915793263628 12.369039221872134 -1.1345792312257168 -1.4646006336917357 -1.338366924671766
P 8.145392356666129 1.1144391776569675 13.012751482886761 -0.15780994116435404 -0.891482198657084 -0.3316152293156998
P 1.64898312139506 0.892025937657589 0.9852414162743245 2.303512000230639 2.038388583989586 -0.5430907783243099
P 0.9124127465268489 7.315303972164758 8.247045614412809 -1.572470495492537 -0.7955129449486106 -0.495965542701733
P 3.5636641079643363 2.1004539388420254 11.403892482954335 1.6639806849883925 1.2283635614677295 1.466580640236242
P 5.34944797334854 3.097132918356023 8.820257749096998 1.9299322535576955 0.7763985927166629 -0.3061926754775372
P 8.853683644774124 6.8533391100855905 0.916641562890798 -1.2185134081465272 0.0279193521180874 0.31417209413858793
Ni 2.617006741197164 9.021040021422072 5.925469864847765 -1.5170557661676582 -1.6348156333886619 1.3795014899285467
Ni 3.0524150524908777 1.5464156527331232 9.396140665410552 -0.908431939137545 -1.9119864677125522 1.9724505865358806
Ni 1.1413928004014768 2.957477037899379 13.6451585379814 1.080019907922598 -1.4846593521148237 0.6720588555563072
Ni 8.777852354688642 6.14812040261315 4.844659845894583 -1.8095786574675867 -0.5678515302087576 -0.24196883250146073
Ni 9.440584362542062 8.967832378908534 5.552797032266087 -0.5648945044629626 -0.03662510742220144 -1.510472970743818
Ni 5.99008576290876 7.122232459120784 2.748724964110388 -0.04169892240068303 0.33797896675019856 0.13920055359328284
Ni 2.766882497552375 0.19497934926629654 11.6978741619359 -0.8542708797141095 -0.9873498937906867 0.4160474289188512
Ni 0.18182775873669746 0.3695595993407909 11.586347993550111 0.07671631901613239 0.3308834933559979 -0.4440783669141384
Ni 7.696871216629296 5.148085219635702 2.1599173555295526 -1.252959248529223 1.054406835340184 1.230267720468978
Ni 1.2122134205274395 6.410017721893543 6.158430092407219 -0.8960027122352568 3.2674121476388183 0.42951306750545376
Ni 6.535501915049583 3.1069084518242174 2.6214927089250732 -0.5458786254820922 -1.0747365480364717 0.3275402879153778
Ni 4.233335421006979 4.820018694606863 9.693304592521125 -0.01553537663143776 -0.46320763154442157 -1.2553524313517475
Ni 5.157624400747315 6.395458416728147 12.720153883305334 0.12534873531185511 0.3373847848096254 0.20793411151425478
Ni 1.2192850830363462 1.2758016585420204 4.797350612791882 1.0242097429315136 1.1145979030077837 1.3416034293311927
Ni 8.242968063557072 8.392711462592597 13.043580338869774 0.7143658438546342 -0.6502057642369575 0.2841128128593623
Ni 9.336390789666847 7.46145481538025 2.9449475267723013 -0.9583519638964398 1.2134707035162973 0.23907839832754313
Ni 0.48509903074132515 6.084985961123205 13.033478639149497 0.709188927639385 3.3979082314795668 -2.3986106784087013
Ni 2.6466642349009613 5.56987018109608 3.9854084168193826 1.8622484770574768 -0.4710546383926662 0.3649457251470295
Ni 7.689572655858071 0.7300706850622309 1.9053999022310493 -1.280821779267446 0.24939160732809304 -1.0525206740610646
Ni 6.80429126904788 4.4453245766717036 4.73359031026171 1.3667634735365881 -1.5622444468891548 -0.45314022000609055
Ni 1.4856069184319365 2.4751291485886577 11.240934150957646 -0.055573366389930094 1.2389397943216793 0.5048936984292982
Ni 9.38675274980715 4.682565618113555 0.7983103374543277 2.188900191720314 -1.1831211446901626 1.7409592565269758
Ni 5.934817127845833 0.6327171493864734 8.43682048478719 0.4549250798206553 0.12439948402470832 -1.1699324139140304
Ni 3.801396762307876 8.764465357211886 3.0907759853734174 1.597313779788462 2.2557493881343795 1.4854265692981514
P 4.044177902987988 7.6977504473957765 1.119032922059478 3.413421496623818 0.12342375037500032 -0.6260119405995735
P 8.633620692608588 2.6563263192379973 2.459752064269491 -0.1637396763852277 0.08614558274983229 0.43533404506260515
P 7.6894402985383845 5.881524398483926 8.062224689432368 -1.037951003777006 -0.7786951020603234 0.023173609902985896
P 6.9710804000400355 8.103397269948797 4.612073055058527 1.6327065574654591 0.28137921597828314 -2.176465565501387
P 5.952543554589417 6.883062782449231 10.594967088461237 0.4886152729842489 -1.0921318606947836 -0.06735673217810335
P 1.8104306891284818 1.6669837168722772 7.054598814170961 2.5049391638643117 0.09883294840951366 -0.39885163386585504
P 7.165730746825971 1.10888017023018 6.404009644989251 -0.8326448168039015 -0.15049412422923114 0.4721830955701545
P 4.067170260236198 1.5214095734068425 4.079666682033354 0.48240451618784663 -0.2973894753636104 -0.6237869079237967
