# total energy = -381161.5044403287 ev
CRYSTAL
PRIMVEC
9.29202744444419 0.00000000000000 0.00000000000000
0.00000000000000 9.29202744444419 0.00000000000000
0.00000000000000 0.00000000000000 13.59982141747748
PRIMCOORD
 96 1
Ni 3.7735666605405935 6.6545411697038945 3.852652964088401 1.0628711640574533 -0.4673594489292661 0.11573898013623293
Ni 3.9538134079111606 8.56962801541345 5.4643133012912966 1.4881539955316434 -0.1492664224697171 0.8333595834827391
Ni 6.123585432437084 4.712256559814854 1.6519570723983765 0.812521306581149 -1.1113585701348796 0.7163491928332502
Ni 5.968520079301707 3.3597648046454758 9.921518576410495 -2.818722250094597 1.8271215514473564 -2.464310334599356
Ni 1.9961412006592134 3.3770200995143873 8.989373052029167 -0.5508380263698965 0.3126417735369906 -1.1769055027977537
Ni 7.322582187100512 0.1878894399013589 3.5951811062568555 -1.2521807184919855 0.5318504295238001 1.7239912612140693
Ni 1.3535882144017584 5.37774226967838 3.7249637820584565 0.6082178498409461 1.032462469858609 -0.3597832071094836
Ni 3.8821904607654583 2.3669302617518584 10.063337215294327 0.11086596831464778 -0.1645122928851941 -0.49357493098236926
Ni 0.8018703711278954 7.605301412561738 2.111739596645309 -0.512281249142621 -1.8345741510706597 1.60485174003672
Ni 8.22618539093858 6.575921325931218 8.031632638193658 -1.3332368025340522 1.8117764364498539 0.25889080506777995
Ni 0.8167181016992652 1.9258284293759325 7.621000292842313 -1.7660766204198939 0.6066844439155551 -1.792092327757365
Ni 7.460029856298647 5.201156581100677 12.83941495642012 -0.5558133680973009 0.4169030920509271 0.9142940543452771
Ni 7.852933942586774 2.594547764772243 8.85668011324806 -0.464791945312406 -0.6794775166178815 -0.06741998131587099
Ni 1.3298192083303122 0.12356166346194754 1.170998017722661 -0.23566962975631026 1.6756897458952045 -2.055225967261899
Ni 6.5350364054017565 5.44860327057785 4.345211256558872 -2.10808502004446 4.393156811292041 -4.037108902855273
Ni 8.678930133638008 4.458212530888608 7.977301224823699 1.4020570066315594 -0.6376760072010631 -0.9221893979329537
Ni 2.7618228419020996 0.0396277092231807 3.854569909339589 -0.599254212889755 -0.34376034931866606 -1.0504787039303713
Ni 3.4063457379668836 0.5142059286880819 0.0807096207333752 -0.5914334312937556 0.34262906392770026 -0.47076384662512477
Ni 7.276149926217394 9.131256735104749 1.3207251011207248 1.7536702763357412 -0.4540537329592954 -0.9607682866474164
Ni 3.931224489318633 5.356584323304382 1.9486366398149362 -1.9064683661078006 -0.9972470982997407 1.526410725019997
Ni 5.684165457019301 6.620290756733078 8.699955204020284 1.403407092901551 -1.7505296738242304 0.3198280068727847
Ni 8.024353263933934 5.239597698425764 10.352673293462152 -0.9217973047008577 1.6316973994746544 -2.269686309930446
Ni 1.216484350217166 6.525214732447293 7.396262389111037 -0.6623015190592271 -0.8071423016574228 -0.17702045265453384
Ni 4.454616516287493 6.098562002667574 6.3554689052336215 0.13221435208343682 -0.31364373243894367 -0.36847096469146867
P 4.470803228006203 0.3691025581208046 9.017021479537217 -0.3283828384213312 -0.013171504384951509 1.810203435535779
Ni 5.5398788556598735 8.18244781799945 10.463485366138082 -0.4024367801139521 0.43419478925183935 -0.13862591203673547
P 8.824155229764136 1.7199635624826999 1.0451244978453207 0.29884729085605954 -0.17693123537483724 -0.1384186811219358
Ni 2.9120470487656918 2.2255613569938517 12.21946668520176 0.9570949515608872 1.6150222528118185 -1.3521176985989554
P 7.827548123748935 1.4158355059078638 7.088866326502062 0.5514702606372567 -0.0021964934306865397 -1.7344389389099548
P 0.48265206206673056 8.379280834266627 4.317603713971353 0.3690247803124096 -0.4341585366972652 -0.7998151718683904
P 5.50582357526431 8.524747523104972 0.2624263668375247 -0.15095795123952713 -0.7078565819812066 -0.0709249091453359
Ni 5.60300888976832 1.113026917222842 7.416485557529292 0.5590979523858436 1.5033499865457916 -1.0125343634761141
Ni 5.367065730203754 1.5092668413450765 12.682540445551314 -0.4391271935564502 -0.71719662843521 -1.153918040763645
Ni 7.515559011999571 4.282732593570679 5.609898928080273 2.2048826831914994 -4.3062746074865 3.8374773976694425
Ni 3.487242128450859 6.8010392735828695 10.949692557885399 0.0318071172082678 -0.574352821662385 -0.6969497052607159
Ni 9.118508073521474 1.6997162347932235 5.335672615656303 -1.474086461694984 1.0656271295360356 -0.02441956649494504
Ni 1.711229056733224 0.9043224067582905 9.295546283833216 1.3054411204780227 0.4370872803082859 1.9190575156267209
Ni 3.045731446869638 1.6426260184902661 2.0097818968722247 0.9287716791361617 -0.07638027583295233 3.461908902701244
Ni 3.9104289320129664 4.875554649220481 9.41380963327564 0.9895124486596443 -0.689543899714948 0.6824972772808117
Ni 4.644322547544196 8.08556914039941 7.527745505925568 0.9864700622888947 2.632652028532969 -0.44167541389960063
Ni 3.387603718715082 0.3397945745203558 11.152234595782872 3.2055694033004083 -1.2412473594089333 -2.3847352059781897
Ni 0.7311441046256233 4.216331765819876 5.624641658742101 0.7181857318213566 -1.4649693298850641 1.062962695329995
Ni 7.998725852383877 7.398804687805778 3.307027903176167 0.8031264956298104 -0.9412551563151532 0.609567164779989
Ni 0.828799595715721 1.1681100556088984 3.218383820251858 -1.6401560717649688 -1.3932404367811941 -1.0310200809851275
Ni 7.211254406904266 9.093112962656242 8.291131087199629 0.9448130488697406 -2.035004240898386 1.2790037522221003
Ni 8.149721297521094 5.659653088756411 1.678585235298667 0.8201140313267424 0.42505297485157123 0.19184774747535346
Ni 4.456261205136065 3.2744825772319763 0.5114201788756426 -0.8848060721884892 -0.01954681178367601 1.5615656756545753
Ni 4.375336938569911 3.149922950028014 7.72358334605895 -2.170373079450404 0.11116035962661501 -0.3802003373132549
Ni 1.296795342975379 3.4474072070168127 2.4797233946679893 -0.7684217451587734 0.2059438205571034 0.389332124411194
Ni 1.1023225016660374 5.771278213829234 10.110760006297545 0.0810573695936475 0.01274830080460385 -2.6608305478497143
Ni 2.1599038914344932 7.101450519200482 5.282361466894102 -1.9593212482427738 0.18803428726653423 0.6119114966424494
Ni 7.308086624367339 3.2985489281800002 11.44660230678404 1.7961215035214164 -1.6151960593855215 2.749258755986136
Ni 3.165059662651308 6.827883940721419 8.519839474235958 -0.5984602562335499 0.5309572282855695 0.8013799452523489
Ni 1.643081327832526 7.988681170771979 10.052239746978795 1.3279261889544163 1.3466597608081776 -1.2448733861972947
Ni 4.273394106040655 1.772770154157457 5.494246638335299 -0.04116464716376781 -0.043479668450189635 -1.2951975883731435
Ni 6.906448032329736 7.470464803061053 12.366929301524134 0.7086024590082958 0.998449346137958 1.8976021739664226
P 3.4679054194459025 4.137349532978871 4.363135577400084 -2.0538229162667854 0.361403516321726 -2.1422691221253367
Ni 7.595358943251164 0.8275851277354482 12.593271009183454 -0.11683658407578588 -0.30871672745097156 0.3491781779001277
P 1.8363276215259836 9.109838611963747 12.209117225091369 -2.935322035569228 -1.5648412610820535 1.4485507793177246
Ni 5.1612659075022735 3.9980806264116957 5.40126410782117 0.2895206141384949 -0.2191477208418871 1.694399663599882
P 5.092504904793633 0.3835795367991912 3.879580330270748 0.26182546221607167 0.5934818291823521 -0.6097291442791499
P 2.830370127980699 4.968028905836208 7.437429787273247 -0.1127593286826187 -0.7045478293229479 0.03484461848301096
P 8.826292396064538 7.272303026876666 0.19900735067715455 -0.575428571225067 -0.5096854633909867 0.560504345815067
Ni 6.3362056032450695 1.1341012353503008 10.383327691831854 -0.3891819719865749 -0.12300517478034301 -0.2874375063572211
Ni 8.497391794459805 8.493414806735576 6.061168096829685 -0.7268014985148257 0.5748891537818291 0.05292358747190885
Ni 5.091213312985997 6.094854483737744 0.2928419601032263 2.194460202306595 1.5567952508491252 -1.9919704017363629
Ni 8.042184664501216 2.2883661701435405 3.12799934059683 -0.32902689976323335 1.7959903772601908 -0.8079172321502345
Ni 5.229980450073947 2.9254740283486624 2.97059518416662 -0.5317162179387811 -0.04041131393751105 0.929668222808502
Ni 2.2766582156282857 2.2085569468645527 4.483562110819613 0.14785308706195827 2.602075441297693 0.8227275576901896
Ni 6.107101375841795 4.359856420933073 7.825487152073155 2.236407236162342 1.447441862524262 -0.6158468271411135
Ni 0.15606517528286956 4.380038704430799 11.692908864500085 0.8378896101426087 -1.3454325732692958 1.5152014865677388
Ni 0.29481094070781555 7.299249906316539 11.569422466460018 -1.7164813259902696 0.3475169881476209 2.813503424897819
Ni 8.760467674012105 0.3236208716399964 10.482796986669078 0.1781406823019061 -0.8992970667158126 -0.5410385237809715
Ni 1.8848691726273263 2.4524076217406123 0.462720663308618 -1.6964668305415558 1.1896291210120091 0.3307798778985981
Ni 5.00809612795508 3.7228414830018814 12.039840645261048 0.5931277882770429 0.5188370479832678 -1.681693528887123
Ni 1.678669792747944 6.665264169315485 0.09594204123881758 -0.3039537588446894 -0.6414773832250242 -0.07895369298708338
Ni 5.900390934455794 7.201562822333305 2.277330958411543 -0.687128605405236 0.19537812922611514 0.06318074642354281
Ni 0.4720665844605572 8.684700482649099 8.060165666709525 -0.11789870679171309 0.03284275756163376 0.20177092012633635
Ni 8.770967664966262 6.107556685184056 5.381585452208149 0.3568549777190951 2.304331153697825 0.11410581540818412
Ni 9.0809868669083 3.8929506284866213 0.3523211566489392 1.358557540687028 -0.4535757648816124 0.7272136463515799
Ni 1.4710580247048162 0.2984422650130232 5.908768626353377 0.9187094098041533 -0.9593516088055477 0.44794299207586724
Ni 6.991674507578878 2.8247670354626844 0.2487819538135562 -0.5843952935000516 -0.05039207929930675 0.6197361348931908
Ni 3.4690669228700344 8.192027898241692 2.0596522078907746 0.5353327316454458 -0.7098175623623194 -1.5337854202175134
Ni 3.6958481434250436 7.734284044804797 13.029798376473774 -0.11419220447440334 -0.9333811528837151 -0.6803879442472928
Ni 6.480120523508775 2.1524238093830803 5.199959767972451 1.8822609156236616 -1.4993514069093596 -0.04221931368052729
Ni 5.155430514299431 1.044275206541595 1.3856317708667238 1.6895315368743031 0.05998923606943862 2.0747334411672074
Ni 0.5526563380405619 1.6303326662492483 12.436601852120035 -0.5296464798939459 -0.2551367373419864 -0.5431596838890322
Ni 3.4095793634996676 5.160234492461643 12.733145755936654 -0.4755013613101101 0.5806180858458064 -0.3316530245321707
P 7.767465874625413 7.493211686119262 10.399769934303874 -0.6269257106630944 0.18748612807254805 -2.1583050925422764
Ni 5.906402876179105 5.857498936009432 10.98220907854467 -1.5372548668233526 -0.8822557949628096 0.1936827438015632
P 2.253428147145637 4.549320859477556 0.7534273155169191 -0.8799695700317941 0.32533351007204614 0.7325623122580028
Ni 3.222019790570762 1.1407822030459105 7.330439525464083 -1.3450628486347027 -0.9671826748141923 1.1781002944368033
P 6.778245930387695 7.179875230397904 6.309542130640686 -0.5439598111928244 -0.9163126274372025 0.5840312252924136
P 8.539596182879082 4.439507679746379 3.6115545877261654 0.5831817328079246 0.2818450998711081 0.05195299602852343
P 9.11795055187789 2.4693841557877323 10.528002699936314 1.493961860462672 0.34619029891639735 0.026005937145458437
Ni 2.2397502828230533 4.207467171686898 11.056382687209767 2.146847485524638 -1.2457053951802868 0.8262702807361254
