# total energy = -340859.4575443876 ev
CRYSTAL
PRIMVEC
9.36735727782366 0.00000000000000 0.00000000000000

0.00000000000000 9.36735727782366 0.00000000000000

0.00000000000000 0.00000000000000 13.71007424308164

PRIMCOORD
 96 1
Ni 1.8677386485380487 5.373191118375294 2.27277381326279 0.39950675095135063 1.1138702808131395 -1.2743107176218054
Ni 2.7216763124866166 5.1171344050435605 5.906299603081211 0.14317805018379215 0.2151224017325779 -0.12109638779340434
Ni 6.002724369498729 1.8452569908831682 9.646531770751315 1.6743473729346974 0.5679865131247249 -1.0979255845584253
Ni 7.856037287708229 4.5675702836700065 3.8581522090128955 0.336596227470059 0.3068063978021361 -0.08797569398003559
Ni 7.991133315499349 2.877155709884828 10.270436176839409 0.5620711760815545 0.48342524414287713 0.8273722555510525
Ni 6.465612333255362 6.702465964006885 9.106903605325483 -1.0722104391805083 -0.42968764541010507 -2.4387034326645294
Ni 6.4271499639508045 8.999810355614988 0.44055524708371674 1.3566657229809538 -1.5147487153010364 -2.6707064122025295
Ni 0.03780852776109531 2.2587321445858457 -0.0318143557888628 0.32732971456646853 0.7396158766706746 1.5529311399080288
Ni 2.321109377220783 1.4528677585892973 1.2444225124919233 -0.31947910817379815 -0.4015592626050052 0.5890986125129918
Ni 7.061188913962573 9.138812571423642 7.792381410794171 0.04075481331985884 -0.2249357882785739 0.2156926724137511
Ni 6.4561513023256 8.871580600765963 10.401463024594996 0.2947242698266215 1.7799376946727021 -0.7962343964956674
Ni 2.9795128237160275 8.51198648657615 0.06298142718441216 0.8209959197110636 0.0004337451033089304 0.6092342069206025
Ni 0.6765508279014113 -0.1278438197259493 0.4594557640213219 -0.047566436925053565 -0.6192735934344753 1.4201076934856833
Ni 0.6488927685714946 1.4308544688022269 11.225548794120824 -0.19087972713512932 1.7229692477074585 -1.3813974213996791
Ni 5.393209161045493 0.751267680381671 6.227334864185698 0.3456495959215789 0.9464356720748281 -1.4289399470653326
Ni 6.074778082282621 2.9863790966581223 3.8551218689081646 -2.2787252802042626 0.3660680116769308 -0.8846029550387474
Ni 0.9571003705124009 4.7860826287180895 4.225910911874374 -0.01830805428056847 -1.1887040380945786 1.433201550555164
Ni 4.861555426936994 1.0448631415826408 11.255134655594647 -1.0872470217986565 -0.7047548031274314 1.755291099768616
Ni 4.94129037275297 8.376562601277563 12.25340643515902 -0.1568149242409364 -1.482502196562505 0.01936760589333439
Ni 4.255075242267167 7.898611926892159 9.906830960229673 1.6454972814722242 -0.7137377233523321 -0.27925445632579643
Ni 5.916835069899729 6.772889756610798 1.5189113748934513 0.10677688584693867 2.257609838381886 -0.25356785019296973
Ni 8.699511613489921 6.9654264197101385 7.6358257040357325 -0.5341322835794414 -0.5463715059581107 -0.1090476841589864
Ni 2.8894456827361625 9.303687428250123 5.146240657820746 0.4816288143640866 -0.35323563579895295 0.1899055361473181
Ni 2.6964968559131504 1.5051844494236755 10.370162936724988 1.6637801389418119 0.036051494306918556 -2.26465594659539
P 3.652978980840042 6.9782878013602 5.647755856371407 1.7986820651597408 0.7375944753652716 -0.6664247971989813
P 4.502214231395797 2.975428655908724 5.600976210470279 -0.5747857954347456 -0.06257962250443416 0.0011749941447076538
P 3.396641246787623 0.08620685301337497 8.693819070424558 -0.023985564281319982 -0.40227094396004914 0.009758879158976741
P 1.5138960917649418 0.8270524116005377 6.584304244844305 -0.7098748979628161 -0.27313240258845867 1.5114358488777195
P 5.9603464448192796 0.44134491530884445 3.8686539533449316 -0.7314793636064693 -0.3325030312372919 0.2675993885853714
P 0.7641393661248258 8.866522227793615 12.15178746908749 1.167186475737777 -1.5165963100327362 -1.5816105101205922
P -0.023176715570710577 3.907771100928688 8.98789976073658 1.296951852060089 -0.0989537902580941 0.4038231189385174
P 7.370808176657059 2.716402490295076 12.502861035026104 0.175349235599698 1.419752881249426 0.6912688528258546
Ni 8.298682392218115 0.7713962578686742 12.437806611658763 -3.042121547123987 -2.706254484510468 0.22212351564075938
Ni 4.603887528139994 8.92720396874708 1.6974991061536728 -0.9887827695824712 0.660645728623359 1.5065101294413281
Ni 1.001557848524927 3.0679968813026948 2.479206014264317 -0.47769914029237726 -0.3580574826676285 0.4366882450976544
Ni 4.379614258317849 1.9569439926411434 8.1993781001493 -1.3036146087922453 0.6458109776033717 -1.2125805876018603
Ni 6.558461579370019 3.042358424218775 6.161499203214851 0.7956939506111652 0.264361598374364 0.3589668818557753
Ni 6.256982550218072 1.409815384180201 1.6807587018224075 2.02993068303022 0.5453168394413512 1.8754948005444216
Ni 4.039204491993534 4.538475271721649 1.6436733340492107 0.5295996858164105 1.527428110540918 -0.5745873062706942
Ni 7.564852984290745 5.347702539009073 0.4659969896631565 0.6198744602432679 1.1393537697962248 -0.6859214724710123
Ni 5.122736084742568 6.0570363074499785 13.120102439826734 0.6260813603849282 0.5149577675335195 -1.3466862431707387
Ni 1.0946787480029134 2.136094702078472 8.555113799844095 -0.08378633848903634 -1.0980363991046767 -0.4465882778201857
Ni 1.6454137890459928 6.7180813487196716 13.574674063722531 -1.9749381288444245 -0.1538347585666899 -0.19137697848652202
Ni 7.480499931298163 3.4806851769874516 1.6830209186239296 0.048181701911549274 -0.7196414904312768 0.6280950483808474
Ni 4.365319670992287 2.4050221644176246 1.502281505378989 -0.0025453921296730354 -0.9888550175813035 2.2074599570003723
Ni 2.981864030412434 4.899118529935357 13.131591503624113 -1.3312843067933717 0.5004726865434671 -0.07691737928334495
Ni 3.2928415599235685 3.715056458039581 3.6496769873719814 0.030782018377863117 -0.7862448893831233 1.5211577041511737
Ni 2.526582360829035 1.02995030867157 12.623743034764924 -0.7468784717703588 -0.864627283247769 -0.5238149608138334
Ni 4.911033808492444 8.181131424755158 7.4469010939329445 -0.9555255501912383 -0.5888782689720696 0.12486099704215915
Ni 2.179399995136186 8.852255742540123 2.8376011067125364 -0.2635678988284751 0.7613522399065016 -1.277468803634813
Ni 5.801775819493523 5.749796353523967 4.696097920482959 -0.8690642359732 0.2135766545120128 -0.1714452725596015
Ni 7.879465048456086 2.0846398081208646 7.965744966856839 0.41830768570793764 -0.18632193256111781 0.40022151763018815
Ni 0.2933369221379385 8.468943479524409 5.891479507007967 1.9815168105032066 -1.1172805920462694 1.7501758900292375
Ni 2.4730385461809945 3.9858761265646856 8.18768389122582 1.0267584774952963 2.7834150901528707 4.305161834038296
Ni 8.758432291260421 7.806577640867492 10.57076864145096 2.1063682944636692 3.2950566488289637 -2.4232780992483947
Ni 8.33473735068213 5.528071004902708 10.113634108582504 0.8386974507558845 -1.0394314449772741 -0.8319264505806383
P 6.820400993121446 5.819377083965822 6.553210238836133 0.4059640765409202 1.5212394652317025 -0.4560813049122855
P 8.58554834389439 0.8485092803606499 1.7634171998692538 -0.03741957829903878 1.3364067156216017 0.30925305957041577
P 1.3878020943931306 7.130938256836839 3.8168159344714554 -0.6345973682757394 -0.5940503000913124 -0.35132916280485943
P 8.88645596424761 3.0831532655050267 5.067064943238935 -0.5793924409688216 1.524925141613406 0.4701483245283129
P 5.339965101832852 4.26091110590008 9.106478327301511 0.4052107433146634 -0.40999968006287457 -0.04593455774858541
P 0.8692017727604961 4.1492522062141735 0.6686550823858701 -0.128565699587256 1.3771396745645896 -1.1734836216003983
P 6.892979277917285 7.01164496090563 11.064660684585144 -1.2528941996192424 -2.1883618027183407 3.14518498867508
P 5.908292039990874 5.084845124236739 2.5563527592427744 1.5036680320068425 -2.970838997528916 1.6126897480239002
Ni 6.489611502801948 4.389131493391748 11.345429423358269 -0.052762122193380105 1.6110995207186447 -0.45541101831813824
Ni 4.133093514774727 5.733778172444865 7.874860992315513 0.6166042741324284 0.30538946284995144 -0.04556534733462475
Ni 5.680271827226249 3.87231565333547 13.5136091978532 0.8988625502815553 -1.0721793288322568 0.7587909069372286
Ni 9.017467824231424 6.502566558025573 4.960140305960851 -1.3488369709651544 0.21473005139016568 0.48883510230453875
Ni 7.840543678641073 1.539974814644603 3.7901367639852612 0.7040163822995101 0.663061022933071 -0.8974530715285381
Ni 7.559766509246329 4.4768099582457825 7.911412420719406 -1.1521298385149705 -0.08000475995941705 1.3445357724866391
Ni 3.6206990673905763 2.8804998564609914 13.230276613371682 0.7574889002963534 -1.7460520976688512 -0.8070075758517715
Ni 0.03579079898656979 9.250696287686099 8.343512691053418 0.43251148801214545 0.012545954985810652 0.10531495658943153
Ni 3.8950876990683927 5.451099429506811 10.386916455356552 0.1288608622301716 0.14688712360426315 -1.0350793386561656
Ni 0.5367224111739394 4.242419942478941 6.95560099857922 -1.343425570141596 0.6570639248093716 -1.7155505866458842
Ni 7.398610493290261 8.524941541799775 2.562221408626434 -0.7115219466479359 -0.4872330479247416 0.20759446878664894
Ni 3.9389081967806976 7.381533800829907 3.360407371798105 0.03241801131938933 -1.500999226925428 0.7279762355492172
Ni 9.166558683912708 4.189241454767791 12.135746806350731 0.03485438867502385 -0.8429677959964643 1.1399646639073464
Ni 8.90180906295442 6.428283414190905 2.470802557980069 -0.09122222594179129 0.5375716482782935 -0.3696030214133828
Ni 4.460388980800364 3.2731420074034796 10.96538636805987 -0.7969337365555371 0.00197229323502241 -0.40372464568744015
Ni 1.1789849642087153 1.8212390866218708 4.633456528370576 0.24090105335857867 -0.5508606520777158 -0.5006922587534409
Ni 2.419981834115476 2.926221927716605 6.460324460027787 1.0883456541794738 -3.137297358396887 -2.9132995085515505
Ni 1.4294587325561532 5.30959612928405 10.765163788249769 0.5227258415147126 0.2809596119423613 -0.1660140742417012
Ni 8.645771084337401 1.0873815766224335 5.984502049233713 -0.7179139662172087 0.6358759778778468 0.7821329240972789
Ni 8.70097292123749 6.513048630907161 12.274355593150426 -0.2186340144302622 -0.8582018393373992 2.817824677980992
Ni 2.130689736883945 8.290129994951903 10.366845018749425 -1.8308432232733178 0.056370922590560986 0.25768392924387234
Ni -0.14791806654028639 9.077952850680411 3.830389235280589 1.7922357953137649 -0.4840042565747987 -1.679210100343637
Ni 7.409204974460123 8.518637310299052 5.185835540629669 -1.7489597582339493 -0.14411727416860987 0.44590487859991595
Ni 2.3358816997715106 7.506232061955645 7.214392043523228 -0.7298166311920656 0.5832547521377053 1.213063954996182
P 2.9703515482216636 1.5490798859948296 3.461560780209033 0.056093500559458234 -0.2855613723804308 -1.2800810444466793
P 4.763797685567689 0.8816959540021959 13.48906765831569 -1.0378851835360772 -0.06540295088584219 0.247683880608367
P 8.226310189284112 0.7705756773642709 10.074450452761518 -0.14399026167244233 -0.868604265617646 -1.7053885585112176
P 8.267123765285076 7.87329195995835 0.4345460873397143 -0.062032234641396386 -1.9665262506316457 0.26819099942278324
P 3.272074128664873 6.665389963591045 11.943188598329472 -0.2025029131963545 2.5077861463948037 -0.13273782868707462
P 2.1643466518647725 3.227597915937634 11.656496879500022 -0.4525648071185948 0.5137647756666829 -0.6889530602084843
P 1.0898732936791826 6.299669597690277 8.786567149079769 0.38582051171350973 0.6549697612845042 0.022047209608026547
P 3.682439319725292 6.604333528343332 1.0124680096376935 -0.6359055455642016 1.0378327330315869 0.7226447960339748
