# total energy = -340888.39582117775 ev
CRYSTAL
PRIMVEC
9.08410067661713 0.00000000000000 0.00000000000000
0.00000000000000 9.08410067661713 0.00000000000000
0.00000000000000 0.00000000000000 13.29549957520003
PRIMCOORD
 96 1
Ni 6.68679724865523 2.0471292861098878 11.448568238834186 -0.4053292711703987 -0.0774277432608602 -0.12792498067946356
Ni 4.717863899119668 0.20168338111475997 6.008914421635496 -1.0549151424351704 -0.30438261885199186 -0.9470725343278786
Ni 2.997526042183198 1.78932251566619 4.689189936085646 -0.4677785387445556 -0.30358789086483845 0.9945057881091776
Ni 3.4978601261330913 4.704083318754513 5.133843934808 -0.6096548393977889 -1.960009018338418 -0.8902447267055571
Ni 4.010412325172723 2.748221989749905 2.4710878872133253 0.15615697894196331 -0.9740683461904321 0.2515914431928893
Ni 5.169361859112363 4.735123689952756 2.434472603575995 0.7062730395441708 0.5007120562477828 0.022043610063600748
Ni 5.564492975884368 4.748213878684587 11.86673845113823 -0.4560586792044662 -0.9654271255756663 -1.5522924778827654
Ni 5.853739817945601 7.879348870116759 12.229771807420958 -0.33486716059409427 0.4152359887611493 0.7189267237524393
Ni 2.0072319169841397 6.58279338273522 -0.2054487407465046 0.5785226367693586 -0.15648299482281436 0.9693238895269111
Ni 2.9512425504492077 1.5685516227101226 0.22914279992015846 -0.3821824007402902 0.4642630693921295 0.6626936122913233
Ni 7.948460706252618 -0.04639159252920789 6.771756298005995 -0.046297597514958974 -0.5905970514353893 -0.09196321787287388
Ni 9.046219739638742 2.744606517775395 1.2810689129540405 -1.2766522212707885 -1.499477648074579 0.6138789047814653
Ni 6.831870332657551 1.011877947840856 4.846262208357138 -0.33017078355968943 -0.4076149818807818 -0.2124602815193825
Ni 0.9926378231121824 7.282296368798506 1.821602866574283 -0.7417735464436257 2.1901348354583634 0.6121984317552488
Ni 7.6069348661680065 3.5346325647080064 3.7008025635686232 0.36146547990791295 -0.25527814801585713 -0.740172520505093
Ni 7.865977074271336 3.931980201986998 12.496917941525442 0.54790568321445 0.4920060438333526 0.12857572688958502
Ni 8.157313259433415 7.359883670643454 8.84152043717841 -0.7661188080572097 -0.3268568886951081 0.6395156315129632
Ni 7.167109975238743 0.7058037181274068 0.10653469630216734 -0.7333269583381693 -0.10144853165548978 -0.16366305751102134
Ni 1.716304516341791 6.845923436035859 8.9521784066696 1.0505702352029134 -0.26961230525034213 0.03730336443614866
Ni 9.193200484733142 5.068809951358969 1.0620485261524661 -0.7840052014193273 0.6310428181552615 -0.47719443274181683
Ni 6.666358022668679 2.2263404195599676 7.193423888978851 -0.3403227843920268 0.2529872950991514 -0.9717481826976878
Ni 3.696284132010529 4.32766544888575 0.4636206920278287 -0.17230273546389033 0.4108671702694924 -0.7463056299860243
Ni 6.366337437487425 5.511296483716705 4.5578828978877794 -0.6083201797467652 0.4871875393987868 -0.4490560226343879
Ni 5.385772383857966 2.8024177329658007 9.441027462435137 -0.03291243445730461 0.6085862889239584 -0.8355571053546901
P 0.3480255139483342 5.633495802814964 12.140652240069377 -0.6010791819136357 -1.0313388977771272 1.5819822916377142
P 4.213187615160187 6.297579881268668 12.51688842792937 -0.41872343308911764 -0.3117822537501727 -0.6057909855670083
P 2.6911193343937008 8.67003805638138 1.3668173706329074 -1.9152803079724758 -0.6838252520636159 -0.6375142848122182
P 6.300868325627392 7.847036724857132 5.497276991510018 -0.2874375063572211 0.06268015263804043 0.06877520979218477
P 4.868905237110062 1.1210870033121079 12.59293869998013 0.9260146852163148 -0.09869102351501068 -1.3239404648337907
P 3.832709152395429 6.165560649596424 8.111251419750124 0.20762815023806175 0.5792975672621701 0.06141696965490068
P 4.872938577704741 1.1937688909202837 3.9315060119441103 0.6962197690732268 -0.2180729997204696 -1.7220791317930215
P 0.28750723682726603 5.738735106394607 3.236669528276065 1.1507537841030502 -0.17980032939251617 0.6791409592140691
Ni 0.5247748561795895 0.06308181026480358 4.752130942793654 0.9174009754053749 0.6026269860167299 0.653603734174913
Ni 1.9302895862703233 6.6655041172274645 4.648133435743951 -0.42117343729150686 0.2572041613939764 -0.5955811349135421
Ni 5.688263844358483 5.671113062730657 9.341790024015193 1.1860138928569253 -0.8082933845427305 -0.4088863923940378
Ni 8.811695518618835 2.455087152701009 9.920197409183492 0.14448159948656408 0.4344516424576517 0.6798181877867517
Ni 2.038926343413952 5.438968876025629 6.896441935394263 0.22542146966574078 -0.6453085840456565 0.11971133452041965
Ni 0.44289713369755357 0.09447827820023376 8.965700090172257 1.3648323179521462 -0.22639797464639716 1.470413897939403
Ni 1.3773585607817047 1.3040680384441516 11.450854706914548 1.7316840018726367 0.4784900116247889 -2.0994065184338555
Ni 4.243364996816775 6.904543136165288 1.3628685121723056 0.13169036125916675 0.3713570279900121 -0.48657433129482014
Ni 5.914294431468423 7.813134862020773 7.791335746198583 -1.5648122076163309 0.5774443161035153 0.8508405138763218
Ni 5.229934640836062 3.206169661053911 4.7365744207927785 0.6121552372221393 -0.2644078782312672 0.1590553835356809
Ni 1.0313542591809293 7.787090746063687 6.891522895006833 -1.3928812536695625 -0.2809696392446903 0.172761934488496
Ni 5.1605411975866105 4.473828624940687 7.038384638385488 0.6520042508982771 0.5296158837663265 0.26612691780490294
Ni 0.8358371654438009 7.341143171438897 11.07463214520521 -0.9573967990720222 1.3705383671979878 -0.3549515900487952
Ni 4.612533754535641 0.5283140217104163 10.111226957304018 0.6002934527875468 0.30347321966384505 1.0769212143926161
Ni 8.195857097593832 7.4642599846814415 4.588343703478047 -0.1467804228230698 -0.6898395765784958 0.2178511135176506
Ni 7.258523277951038 6.297116592146305 6.6440402047114535 0.20179791670952987 -0.6467409456168088 0.7049044413314183
Ni 2.2785104083780845 5.545661635675426 1.9331792386197997 1.380935651271912 -2.4482188283541317 2.1531505449245305
Ni 2.573325804008097 5.629762237534755 11.027472946188954 -0.39524103369646124 -1.32623440307429 0.8342275879099892
Ni 1.3350811573410786 3.361516862652138 3.685167009893933 -1.4126029004682057 0.8681268117605951 -0.10129066592138684
Ni 1.5949318503834315 0.9904939754087041 2.740667651825276 -0.5613990897151944 1.2733928337932263 -1.1007908219213625
Ni 1.3006251643779727 3.337580257996777 8.19163662453012 -1.6072863176201417 0.9988640650778734 -0.39235394195665335
Ni 3.4070463740497354 2.9417496654910096 7.209670802613049 0.7442420625887762 -0.41732552430032643 -0.6487975710355213
Ni 4.077698257120449 6.685307456183322 5.928755410956418 1.2007398862131902 2.2305453780649263 0.602335165807924
Ni 0.9193018802724371 8.957422657852726 13.098566089255518 0.8095874207638056 -0.07169778275561846 1.4266017858504592
P 0.06655557027247343 5.944035776303964 7.6102641889787055 0.879693176441956 -0.9976844429474753 0.634414819951288
P 8.638870507776998 1.639098746715259 7.891849500730134 0.2711606235740685 1.5159512202495697 -0.4180896561598606
P 1.8826525635710014 3.3775684681269094 10.441221440292038 -0.8095195436403477 1.327288298260101 0.8010847826094333
P 3.8682189010093975 6.112282400524814 3.530686431477536 -1.0203008947954104 0.09190125428668688 0.1850016710877975
P 7.134007513240969 3.9170550249665967 10.302296475466472 -0.6567718474902495 1.242884380791724 -0.3318797958309962
P 6.3628128065173 8.098121260976363 10.112569587348823 -0.33609537657424055 -1.955971872154567 -0.16738061557192463
P 2.4007460638780986 8.713986934302683 5.720149036897503 2.4948306146754002 0.100119271321105 -0.7191023300983551
P 7.120653885596422 4.210053600508916 1.5987971351199992 0.3828246623099794 -1.1183141755171062 0.10093739634702616
Ni 5.540792557840407 2.8545059648799707 0.36982735500065533 0.5343217738824282 0.4466430423175211 0.21094667308833348
Ni 1.6118918659020494 1.17666352979465 7.081142590739309 -0.39947435505151846 0.7307975070480963 -1.2035827549786238
Ni 7.046990915140892 0.8062684185165904 9.34661640657815 -0.6877045325133639 1.0331165585028401 -2.2618236193529175
Ni 2.6949437406782955 1.8452169856640783 9.363700874272773 0.6554574995542003 -1.5449257531050489 -0.5079062600033769
Ni 6.5529430286944175 1.607213554176239 2.2545311084506627 0.5200639784118333 0.4856502768186539 1.6390566680532028
Ni 4.165605097063496 7.198913410873816 10.2418154431572 -0.19135178167554143 0.7941255776827807 0.10361982827519572
Ni 8.324079175282796 7.457910198474953 13.236759783995787 -0.6263063319115407 -0.8190359677712151 0.13867861965154182
Ni 7.731714069790792 4.285506138750824 8.085537965049 0.32777194431020973 -0.08346160815976594 0.8126102667505297
Ni 3.3920939447280185 8.495178207041324 12.475539419553554 0.23999653926643827 -0.18935249185732553 -0.7199590216716956
Ni 0.13180757213202682 5.046708334992179 10.088239641144476 0.3142217164296008 -1.0095698815311516 -1.057255874753205
Ni 8.709126940568103 2.4791327665616314 5.6317343957399455 0.5900362938359128 -0.040398458421704614 0.7391479358953206
Ni 3.921706084391092 2.9588550266166433 11.373780656744373 -0.3032996702004583 -0.46350125152544047 0.7196337771217929
Ni 1.623392337057149 3.423297829734153 12.680914579086508 -0.9181381106817156 1.0344165082611863 0.09092166398223696
Ni 3.272383669149898 8.885476582380065 8.231163362357979 0.01826434552682661 -1.565630332642252 -0.9855622057626446
Ni 5.518700025574056 7.454458240308336 3.3920012869035463 0.019500274816456737 1.0194143784253993 0.38965839740236113
Ni 3.1517286471261774 8.593722528597816 3.575585506304704 1.5616878030547363 -0.7166713520593593 0.4872834415467027
Ni 3.4648939256418942 4.380752931848153 9.304283590124848 0.5913853516646397 -0.27776475915414744 -1.1889143543331717
Ni 7.512869006127679 6.382725154678419 11.118946203964143 -0.7426343517820243 -0.5715341212666674 0.073572374070512
Ni 8.633301954208218 -0.007995825205938785 1.8910453639661011 -1.1421146203708137 0.27639924626518847 0.19515161503760586
Ni 4.654802073875829 0.29640238797661306 1.513785397986692 1.4560499159082474 0.11508771970547921 0.3485863099523997
Ni 6.497202988403982 5.805058123695855 0.3232922336845197 -0.11159179073707877 1.0261396129643745 0.7137819463267062
Ni 8.155887055664577 -0.08488728495730012 11.157955148067007 0.5110077817468361 -0.07049707757929793 1.0539975157169075
Ni 9.074253273591852 5.190382467526976 5.322813208949081 -0.0002604527502382611 -1.1658273906067211 0.08009834811448786
Ni 7.580745404603906 6.69420987461302 2.4824157604600936 0.46794925999446507 -1.5639521736088806 -0.33335715170747104
P 8.522757535972511 1.37489676956288 3.529064011139226 -0.32820208986909283 1.6013483548691518 -0.9130326711343502
P 2.0411519480213762 3.0053565367611563 1.7268329887499745 0.8656048166696899 1.0318238078333455 -1.68872549603324
P 4.84118056257186 1.3006069961770956 7.818776996803105 -0.47184525261476157 0.26777268093844203 1.9147624877957927
P 8.794399391383994 1.8734412857263958 12.46854557062598 -1.3422091812359918 -0.25285822572045485 0.8700389411816436
P 6.532231279694711 8.015610376693767 1.3309860448634174 -0.6684194590315069 0.8846464066821732 -0.856313364065435
P 1.7499520243658733 3.25417913187121 5.7652207096330015 0.13064700759631695 0.8556348499411716 1.7456949714397485
P 7.1042661684054265 4.117822728757159 5.973548201808456 -0.4980820748241035 -0.9065102966348001 -0.6052852495751834
P 2.3054992707807704 8.705847580309817 10.325909686146224 1.3621383160597509 0.5823852050485583 -0.837092825272926
