# total energy = -340897.64446292527 ev
CRYSTAL
PRIMVEC
9.03362173617417 0.00000000000000 0.00000000000000

0.00000000000000 9.03362173617417 0.00000000000000

0.00000000000000 0.00000000000000 13.22161854337548

PRIMCOORD
 96 1
Ni 6.220786773606258 2.087100855636687 11.408881532672025 0.2356719437491554 -0.2633133596155078 0.14015391864548765
Ni 4.630571245702533 0.3483545198174401 5.902540411537366 -0.08095246858466704 -0.4361614260599069 -0.3203879931413127
Ni 2.756718063807107 1.572554797489247 4.790179080540936 -0.2696814679253807 0.06308921515100102 0.54265909010353
Ni 3.4072201284700925 4.355262590913977 4.972729604399109 0.43259170643077755 -0.31939091933536606 0.010013161261627917
Ni 5.335455712971736 4.504389617861394 2.7498055364857987 -1.0032333977901626 0.03731442017974219 -0.7026135884147126
Ni 7.378544763708508 6.063592722484861 2.6229445802931664 0.08680275671785696 0.12787510127813462 -0.7494614020061867
Ni 5.122849426370848 4.453629697555026 11.651829044461204 -0.912594812265983 0.47970691475102556 0.20609757252614827
Ni 5.595985362666642 7.953037935426523 12.352099137768406 -0.560404329902093 -0.3071426980956323 0.24622426534370495
Ni 1.8426329853161751 6.617895749713692 0.2824271486845197 1.252065790180676 -0.4192957606528198 0.48030521045665664
Ni 2.7589132338790856 1.554894067074769 0.49806240863987056 -0.20806780887864168 0.4172705026926749 0.03413216579701863
Ni 0.6385234822949047 -0.17998949210753082 4.626086052530774 0.7054487438706625 0.09449472604547597 0.4875631775706507
Ni 8.71327140282335 2.262542822582761 1.507409737995147 -0.22054948628542018 0.6406893401060901 0.1588332402225458
Ni 6.980062677103375 0.8289775217743697 4.960711274095568 -0.5098857523272509 -0.5232765718118602 -0.5200961172013494
Ni 0.7459133702853038 7.246265441222983 2.3030206746754422 0.3037192742363801 0.25775489169112387 0.8565007974858927
Ni 7.483759355594658 3.8306440445761827 3.6909472153165783 1.4170951319116047 -0.5621076857464449 0.1989056827633994
Ni 7.699446107193673 3.7769572308405093 12.511207413327051 0.24792402164363112 -0.053210779695024496 -0.08507009029746639
Ni 7.74746884012634 8.682258979543093 7.011582789922913 0.2996566741312323 0.29999837374136723 0.03219483956498972
Ni 6.874125395481594 0.7022475530963209 0.33166038692436844 -0.2434091644924131 0.26694170039671444 0.27221040499482146
Ni 1.7002360065318198 6.434133817186168 9.33311425881437 0.3322392360529439 0.538544296604208 -0.33257116547106597
Ni 9.193336126959505 4.799725811948619 1.1761106959385936 -0.28167900660688905 -0.1119013515576976 0.9632144341950637
Ni 6.155121377502503 2.2488839865793384 6.9046328393090795 0.8246453435381927 -1.0700437705464927 0.9224112841357727
Ni 3.433968682310128 4.358424358507362 0.45132877352313483 -0.0037412122099871052 -0.21056460715856637 0.4806515380524819
Ni 5.997457578052948 5.642526581641267 4.771655639254549 -0.02939387978108486 0.6689187672654286 0.27799821532119223
Ni 5.311525649100662 2.9454304210237017 9.205736579460762 -0.5225209245927582 -0.4169645414164819 -0.03164488059879066
P 0.3182102275821096 5.434464206753157 12.295298434634331 -0.034407273835276225 0.34810114278586507 -0.2143029911550761
P 3.967476312396181 6.20314411043517 12.632542503128617 0.8094745493350252 0.7364937861019251 -0.32995069712908337
P 2.411588546934919 8.45954407026507 1.4727432147391066 0.34722079706344067 0.07901462813200585 -0.6656506380371181
P 6.209106300754125 7.833234044502325 5.597252779790506 0.2673697890730686 -0.7211787530114097 1.2646626530090799
P 4.6553324027695835 1.12669136509182 12.715362746831909 0.5925953128123407 -0.26890730876351754 -1.2904235640232682
P 3.982381788193566 5.978604409574679 8.21847916523721 -0.27308843672440064 0.4532155533287162 0.46422167463123276
P 4.591536966356774 0.9724151737780334 3.7049357785118815 0.8868007340210147 0.7371908121689497 0.3002236023782959
P 0.20269008006586403 5.734109438389081 3.7117706166866107 0.9083859163909582 -1.585737130694456 -0.872351391364904
Ni 1.597984442561756 1.036400316246446 2.6546498823574596 -0.6272614967359584 0.8625454610180759 0.04877819784496761
Ni 1.9665652413551633 6.500305096104864 4.88454158268442 0.26385946192696497 -0.3059090827988474 -0.808899907778478
Ni 6.023700249078041 5.7999103388182665 9.275468008689607 -0.5375742193814549 -0.5060704923462188 -0.6420147437857331
Ni 8.400970067192192 2.3924734034274846 10.129822780530652 -0.21771921592547666 -0.19494309857122555 0.07610028269868829
Ni 2.179758713366252 5.2413344085275195 7.1536229406503 0.158881576961978 -0.23636588449238646 -0.10809251933456869
Ni 0.3545642313708478 0.0931682573553542 9.152955837981134 0.6675211155869536 0.25822797467280045 -0.037578472474406245
Ni 1.3419354692277607 1.0221271939677377 11.336506865735108 -0.0697224041968025 0.660779683098062 0.02588740928972316
Ni 4.3116392317469625 6.871171401187204 1.5431214512813431 -1.0642096803632188 -0.038147971824631075 0.23075110940877033
Ni 5.501800822870559 7.8319151357348 8.019123394939113 -0.11287091455981851 0.16498511875655456 -0.5148022157922618
Ni 5.42148289237689 2.9361438579208454 4.784295482730731 -0.9646953896159643 -0.42915388439382224 -0.8079012913106345
Ni 0.7122017008424657 7.33989893009565 6.775801650224683 -0.1427892993858057 0.2585156811165483 0.8228036623437636
Ni 5.2190032956965275 4.6200290091840195 7.0184844768981876 -0.2516757753765794 0.17283289693574752 -0.10893738383336724
Ni 8.179691503763735 7.153300440355776 9.25107361666339 0.32461000164246034 0.012032505684501857 -0.21508229252326186
Ni 4.630815153488308 0.4352245361267718 10.421226639093877 -0.2919713896718326 -0.483761030215741 0.058949481951014605
Ni 8.120548382524047 7.1502832107095164 4.809971745675525 -0.5001844658790869 0.6102009417092459 0.20828275310292513
Ni 7.269635420548944 6.217353997362012 6.96423667525523 -0.6249909555342269 -0.08860484292360224 -0.33282673312529776
Ni 2.3395273466708324 5.231189651363603 2.5829229260961015 0.056290961282244985 0.5074684011350099 0.44433444878900247
Ni 2.461381869719882 5.189382050157359 11.512578476113351 -0.9857005311127218 -0.38178850773598116 -0.6966861671866841
Ni 0.9615296596350944 3.3756927887531982 3.7369843582006 -0.1272408101282454 0.041819250028631204 0.6951229364646222
Ni 3.727904665034568 2.727539465731013 2.6768753018146154 0.051300450046189064 0.030091420068741725 -0.060238890186399476
Ni 1.1107018546909886 3.012179851730902 8.171158344710273 -1.1328851313527457 0.8402162013932561 -0.2565166484086486
Ni 3.683477313536664 2.8854923410748214 7.235781923245488 -0.781409415667693 -0.9545786128969367 -0.7935355095072656
Ni 4.130451881402624 6.761792309699481 6.11357033115241 0.21281149421121412 0.3203301433201838 -0.4023323933256039
Ni 0.8439959178429475 7.528945531314974 11.51261822404881 -0.37643084296849366 -0.4230673118801101 -0.684939311063401
P -0.0021030271306856506 5.558694572308093 8.049003905420937 1.6387352801580424 0.3413327137137799 -0.16393816554927898
P 8.244308999750825 1.607813022966335 7.925672385224693 0.9846625767665108 0.47711292877160405 -0.10911581839276045
P 1.549049313837855 3.019777127576721 10.374540882172129 1.0213308787218216 -0.0037085591998387737 -0.1504229046716635
P 4.064578711999875 6.050611408108594 3.7896865071714765 -0.6415025800360049 0.8992993807086576 -0.6183899052779415
P 6.732595644379996 4.134408607705202 10.370455878441474 1.8986678962267751 -1.0850672405385184 0.15497761392188147
P 6.3054679433787975 7.78933967668445 10.120778318489235 -0.8893427837165779 0.042608064478513716 1.162005959978102
P 2.533768280365003 8.413066086642313 5.89155281746927 -0.9126506052045831 0.4440863373339384 -0.7721832690837347
P 7.01031627616122 3.970927155883818 1.4887146578965473 0.8694051642523866 -0.27445112139988215 -0.0827247299937414
Ni 5.345672739109217 2.943795335496837 0.5146038733262902 0.03544625662275186 -0.20290940460615378 0.12134192814530716
Ni 1.4105729268692968 0.9555674693161402 6.952958198568542 0.005962645341338118 -0.22697930107116393 -0.26056330767419644
Ni 6.743806368903969 0.6801224068399837 9.10556997537799 -0.6959657440808917 0.2950523425900015 0.3825462118376121
Ni 2.7485245689293927 1.456346287999813 9.09065636932108 0.19737536216180201 -0.4701249274895452 0.493382355355589
Ni 6.3671224114498015 1.7617549702773925 2.6313666257997737 0.3622841191544664 0.5223180645533327 0.17146712693647245
Ni 4.0140265649925 6.870882325292951 10.307930569239037 0.29366009022816525 0.3302360895799861 0.31606853983035244
Ni 8.403824691647934 7.080426214139104 0.30162991832239977 -1.0907069553227988 -0.1292580976685903 0.035242625252378014
Ni 7.423622535968478 4.048679537815997 8.091816045359707 0.9281157907197177 -1.0371200232352784 0.6634091503011091
Ni 3.005919551896 8.545896460051257 12.36340290859584 1.0384824508004438 -0.6323170568819949 0.41553526516912304
Ni 0.1668311187460329 4.718359981338285 10.110307447582114 -0.6954435530288346 0.13433936884623962 0.6592406207457163
Ni 8.722006915002789 2.411651782286787 5.923297867469023 -0.16416133730367857 0.511783483570596 -0.3597168726479224
Ni 3.496734285849663 2.6884961527635585 11.400419739229958 0.04886510113181907 -0.4284602007609073 0.2393311377682975
Ni 1.2605786722391226 3.245048551794539 12.693560100870096 -0.7110771458010334 0.11173705806569144 -0.3296074548570517
Ni 3.0277899500205274 8.1983549661864 7.992481437835083 0.10306986930899668 -0.23041917999064832 0.6471250684291048
Ni 5.701073483849058 7.79568127911461 3.413768600837077 -0.36180795084899625 0.5815323701299598 0.7026364712328479
Ni 3.1325076927134314 8.303126910609476 3.615186746968231 0.44527521543571696 -0.4557961695716989 -0.013850789840163242
Ni 3.17469470603088 4.187282395488291 9.277094060594777 0.13863285401527095 0.11713020405680472 0.3244418514957122
Ni 7.344740951324376 6.186675818084484 11.439014081199153 0.04344110190277034 -0.6215515908353747 -0.12464939525198535
Ni 0.4747186268168259 0.13682323419830267 0.38922081764302324 0.7730535875038299 -0.36258159579022714 0.26043758072960954
Ni 4.664700268467699 0.3144025560375047 1.5901504858275182 -0.28617303782250075 -0.5177278740794891 -0.35928929819220057
Ni 6.07410785813829 5.67920308572453 0.42107517446529014 0.29002275058589405 0.09106307465610769 -0.36864451415485544
Ni 7.82420042280694 8.801900265276775 11.324540930437403 0.23802038937667397 0.23228220134131608 0.08928489970976236
Ni 0.2036928120740518 4.974282483968546 5.784881102403654 -0.9335287342051728 -0.9269294837211004 0.019670996066366124
Ni 7.97974132115808 8.772703599957289 2.5116575879033785 0.6975767973217535 0.8268127835031568 0.7965146467402476
P 8.63009884787394 1.5095091516771544 3.7719562178699437 -0.10264975105244256 0.894725131074414 -1.028913833275402
P 1.8545302650889974 3.2903160301101138 1.7485198111314837 -0.3820592448988646 -0.8912443716146652 -1.388595481810015
P 4.6897505014290015 0.8920873063004996 8.027558990878264 -0.21176711210709978 1.3931327075587363 1.1344504189573366
P 8.502011125855075 1.5838648918518692 12.378330065085294 -0.48869806250604225 1.1804675091173993 -0.06657768792023372
P 6.529275920881963 7.78209471208475 1.3606106753586305 -1.033968107869858 -0.8450714726030285 -1.2427987630564532
P 1.8000936607526068 3.2695838683192053 5.950561337745695 -0.013005154010416313 -0.27190110128451883 0.5695106630787353
P 7.014643380953309 4.036312509715015 5.850130048547252 0.218011807465231 0.3000328265237285 0.5250699162668571
P 2.4032053460016023 8.445189645391103 10.22639309981649 -0.3776320623654464 0.21146037949995838 -0.8089870681756455
