# total energy = -340894.79123354255 ev
CRYSTAL
PRIMVEC
9.04450539444671 0.00000000000000 0.00000000000000

0.00000000000000 9.04450539444671 0.00000000000000

0.00000000000000 0.00000000000000 13.23754787739204

PRIMCOORD
 96 1
Ni 6.555710675287565 1.9088699734991836 11.463318935594133 -0.5211839509488896 -0.011680007441089562 -0.06958227907451242
Ni 4.465154679662888 0.41856432883961503 5.753793181125696 -0.29012225227823585 -0.11406956285361 0.3526982752382442
Ni 2.6276820308679376 1.804026068258308 4.510164660203883 1.1707849917223125 -1.3491907547601474 -0.1102699866018617
Ni 3.376530890281632 4.351619004845022 4.792323378166964 -0.3681526621201014 0.31261709094664225 0.2596958174675785
Ni 5.041000242022798 4.6414863546608265 2.7552502556324243 0.05574691585331689 -0.0849739310392343 -0.6449686842077343
Ni 7.06090056237645 6.136705879040666 3.00735860479264 0.6310803562614163 -0.10585694513583058 -1.2794238704786547
Ni 5.19548943676222 4.4429775527089 11.564546847622854 -0.4472248829629202 -0.5896403439490748 -0.833381694969926
Ni 5.835532897621073 7.89921766804987 12.499964857564347 -0.7295219827697823 -0.05696690430334705 -0.6711443141618376
Ni 1.8458026381606205 6.2354447432154965 0.275899920307224 0.39871407984672624 0.4828279768785104 0.15237282930918275
Ni 2.6693048441804383 1.5449823924470658 0.25206041328221535 0.9123011922849642 -0.9224771043767015 0.8736814230302372
Ni 0.5082532610282469 9.153762906848298 5.010040900438988 1.1947001077770134 -0.23486924534220194 -0.2982855048153185
Ni 8.537072358630228 2.2814312351177266 1.5324711282890513 0.707552934697859 0.6830444080335333 -0.2586979723306835
Ni 6.676843734543176 0.8919103217280103 4.717226850801972 0.470706511024628 -0.9716615365211523 -0.39503714521577127
Ni 0.5745295868412289 7.211220240180396 2.1188942395774637 0.17057469702919012 -0.2994209039713424 1.0737731556819379
Ni 7.5764464080144025 3.761419812600944 3.854310499659768 -0.07033226986665952 -0.08017059611332 -0.13434168283908476
Ni 7.641964804284667 3.8074382554809967 12.703108064023299 -0.7683554106972122 0.02018907335336523 -0.047962129701575464
Ni 7.96959296365712 8.932317239498609 6.972190245659442 -0.12492141796644936 -0.01894183120982544 -0.15885689437162964
Ni 7.101112432864797 0.5113247750223636 0.45610626136841304 -0.7256511869604664 0.8749577186394996 -0.02586118403747804
Ni 1.8229923958368204 6.642537926004645 9.375122651397799 0.3225315218468768 -0.6992032771815828 -1.2499978519080537
Ni -0.01613539742492428 4.791950744549303 1.456554264294888 -0.26406643573144845 -0.3149943329295672 0.09343028933670361
Ni 6.388902864352655 1.913591205256925 6.782826342999185 -1.1218802956018097 0.4394164426620949 1.1755088795605433
Ni 3.2971563119177665 4.011102425444251 0.17586316962427836 -0.35511562643048517 0.4079728794408328 0.44087297260296326
Ni 5.80924956526859 5.599724555881933 4.967112060563618 0.1801371439066446 0.348209129118639 -0.0037761792129805934
Ni 5.279956071600433 2.80688985854588 9.152771629069278 0.11455524424077691 0.3797614500036234 0.034568224893172725
P 0.09963969690102063 5.59404460656419 12.486210878380446 -0.2462391777420404 -0.8969391080065973 -0.6473297282407432
P 3.8337577658546125 5.906324240471343 12.618466870233126 1.0437750666579508 1.3702331772527434 -0.26226923462170965
P 2.429932967359785 8.321107661482054 1.5441466801589139 -0.609427296768015 0.3613842330480163 -0.7511961253091063
P 6.287721983751406 7.961290107807299 5.827988875764499 0.8853308343437075 -0.8740856004471914 0.06979285242342173
P 4.80511049973611 0.9807318858599996 12.573407144913073 0.20572090591301986 -0.27866155993680397 -0.48172625917389933
P 4.060168866604685 6.215800077740758 8.46313533684252 -0.7799976229218308 0.7998038590144806 -1.1309110383455103
P 4.7134896612190245 1.0673782464714203 3.579883024812621 -0.5449293741949454 -0.03029428010816718 0.2804407633244138
P 0.14674076706345235 5.502405679036538 3.6172259782251928 -0.16573870909312746 0.863575702054803 0.15068207187032115
Ni 1.3057371387003744 0.9736138602022556 2.5459640211852395 0.5017813780525616 0.467965200834065 -0.02077759886698357
Ni 1.7906130669235754 6.422421800931562 4.963868700969123 0.6556045666550258 0.16144342415188326 -1.490440734683291
Ni 6.015084416499771 5.482363055329344 9.219938838652638 -0.15842777725401103 0.9941139519873976 1.0768597650270615
Ni 8.664970707837545 2.371288395104623 10.187709043991529 0.1009826477626648 -0.5323211985126316 1.1326935841672299
Ni 2.344218190792516 5.392496850837166 7.034644363539814 0.549475341694415 -0.1801037195655479 0.5130950032931679
Ni 0.6813352452779937 0.18594960191591267 9.289515504443397 -0.20526916308758197 -0.5151022635311838 -0.09065812590820516
Ni 1.662940830348334 1.228053882824436 11.400123168280551 -1.1455658121442076 -0.7553119472496928 -0.39684591628973587
Ni 4.007837359037078 6.802634714019548 1.5295063394572743 0.3158214568165528 -0.9805256717800017 0.5554094477906629
Ni 5.903022996043038 7.990784239535257 8.14732653697393 -1.592705077371857 -1.223459696408209 -0.5069163852862818
Ni 5.233593937519624 3.0059865533412045 4.66177408446119 0.7212222046548353 -0.6197492475193134 0.10260527096775232
Ni 0.7709843816433801 7.408489944908549 6.980582642111564 0.2492913343048029 0.4033420655370409 0.4761598208297154
Ni 5.08984961505644 4.702509631805426 7.190569825718184 -1.0037198505082778 -0.49091512476201904 -0.34130057492426386
Ni 8.236523448075165 7.223873503071355 9.177922589360326 0.10520722736697365 -0.09848919191684974 0.07721254192626056
Ni 4.7093744113152445 0.5072239963270381 10.223291936676022 -0.4365496626372611 -0.5143792693222303 0.5348465360376465
Ni 8.300287210320521 7.234003348988346 4.885899638726241 -0.9885212883909685 -0.764325977822845 0.08711643130353383
Ni 7.118387437955383 6.008771351812216 7.190781467141806 1.1772297189063918 0.7258293644095435 -1.033054337806337
Ni 2.36919006987896 5.03628805477034 2.471807217919154 -0.11674582413419249 0.029049094847156426 0.2489637757620551
Ni 2.3282817724838187 5.179498751421825 11.212547364314748 -0.7928171432840023 -0.03640013589558892 1.4299894713757695
Ni 1.0285501852913754 3.480777858173828 3.894459963061663 -0.5865696754435511 -0.1927808008125841 -0.7296145424835886
Ni 3.8588472235097355 2.615191569072074 2.3468320528193116 -1.0279874648063907 -0.14101472398388618 0.07528524299656067
Ni 1.290442880266772 3.4508043676658686 8.024402665672278 -1.096859605187756 0.30559000889653176 0.24890258350681652
Ni 3.8717537325486187 2.7325802031405115 6.754167923559378 -0.6398658157635303 -0.5681276666882796 0.30306158604772315
Ni 4.256516031793968 7.01605790518319 6.251882227116875 -0.18515542305684243 -0.31520542049910877 0.32438991521185423
Ni 0.7850874787312078 7.466293378172388 11.392961728997449 0.011940717301643953 -0.6120891598708943 0.4399095802484295
P 0.2633497647764925 5.571541877420013 8.094800572542736 -0.27463649793781086 -0.044303964123697887 -0.09435151559939235
P 8.638135660662797 1.7803837314484694 8.142666807852112 0.2964165699273798 -1.8821043354411393 -0.9230370906452295
P 1.7830518605069632 3.1831141448040503 10.29268319010848 -0.5567965579461766 0.49326922681649243 0.8576045720730326
P 3.9047299988105433 6.209278989431693 3.8068539804397132 -0.44669883525612103 0.38343992729647514 -0.09095740231617884
P 6.899031051326074 3.8282858401583795 10.292894831532102 0.21922922481209986 -0.17426500139658374 1.090306891670903
P 6.4091716006919235 7.744674206278747 10.29419181358969 -0.4548967976858811 -0.09418619366612166 0.03645104373818238
P 2.510781800084784 8.365109179683992 5.804744497187113 -1.3830910070520182 0.4774016636566165 1.4458750322577745
P 6.73155394700022 3.910835039876588 1.5486743595035983 1.2625836589928643 0.5858988746287715 0.5797202566218855
Ni 5.291876729563464 2.803380590496065 0.3836190737775747 0.290416386479887 -0.16812006484111044 -0.7833403141418187
Ni 1.38887423126198 1.1093628399952424 7.043526972178278 0.8623246032565214 -0.03884859743608148 -0.25320609597817684
Ni 6.890999530634744 0.7939239603927274 9.042463033736395 0.6305733347180108 0.5599297042585195 1.0940049093477804
Ni 2.9219088322301636 1.909620667437675 9.007608223727186 0.343078492760293 -1.2787697818344235 -0.15574971620121564
Ni 6.3489804180333635 1.9224276869184445 2.4530100225894342 0.1015662881802767 -0.026923306753405242 0.297248836020688
Ni 4.1645243685602775 7.119726024737272 10.554111901962857 0.5285321637838446 -1.228545852681865 -0.2542083119904461
Ni 8.123241019405222 7.3287626308386455 0.14886532135443592 0.07781135185252405 -0.8786917317606351 0.22546543552979878
Ni 7.6831715703541485 3.67685368820462 8.186125655737067 -0.0717116667126894 1.018452271622446 -0.11374406119339121
Ni 3.4227030897514967 8.230156116355912 12.69126066655306 -1.4392593267134697 0.019498475044243836 -0.662073462208821
Ni 9.016304515556818 4.717225041900915 10.229936934707464 0.6894521113320901 0.8996179403903409 -0.05414717546636481
Ni 8.507406381301893 2.3569347652204558 6.003453182705795 1.2187851737506752 0.7337164804671041 -0.7714505046827681
Ni 3.605212161857745 2.5602823774988033 11.484114966591402 0.8816801249649977 0.4288468946763647 -0.8586268426899599
Ni 0.8847805382133983 3.363018399388786 12.57721940388987 1.1890768480529652 -0.0371490982464715 -0.14073473084962212
Ni 3.018287080526124 8.525694370984176 8.246581842400422 0.9427654223120925 -0.31209258590173994 -0.6867162004581656
Ni 5.322881293673689 7.9556101584895575 3.7439223126803953 1.0526607991833548 -0.5486181359004422 -0.23047420159829982
Ni 2.9770984034672088 8.488756611408286 3.705877505657861 0.12231586202280223 -0.1620545753733209 -0.6685778389862421
Ni 3.361697901617464 4.378019915766184 9.315593526525957 0.9431809125829562 -0.41324904023810766 -1.003230055356053
Ni 7.197056544907172 5.941236030863836 11.44261606300128 0.19060127666276208 0.5823741493049648 -0.6154611616669207
Ni 0.7687449621353021 -0.07301538669936726 0.1986055781584556 0.14735789259309462 -0.19240670530261703 0.35928209910334896
Ni 4.708858874514113 -0.0023823226915499185 1.3555642227551115 0.34498650841628326 1.5139735276979085 1.1739497626035393
Ni 5.883215529473204 5.610668407274399 0.24824905875594683 0.34314431300122195 0.22006329067762098 1.5972993816107588
Ni 7.935178621055194 8.82080753386414 11.375646928083615 0.29378633139338434 0.472663891861315 -0.5940880953077833
Ni -0.007471665814310508 4.896903183853575 5.891939859269213 0.22606707366953968 -0.4129703326554243 0.11160413203225296
Ni 8.082730680242534 8.953644182955992 2.607465752659311 -0.5099294610809928 -0.56619702532447 0.2998464215445352
P 8.565137458523468 1.5838014091218273 3.889165309668978 -0.0073839511688969595 1.52118984294069 -1.4950882607576317
P 1.8151869877775664 3.057368387854094 1.481982890898125 -1.214995624801256 0.600851639283862 1.1126775460566192
P 4.809090082060644 0.9480902662935468 7.9233339369365385 -0.5332251983841396 0.6690048992213317 1.0906259655732184
P 8.614601857916355 1.5170620046383543 12.506570059772544 0.02145405610871789 1.4063139821357005 -0.17743440026350088
P 6.496839990400327 7.66388868509073 1.5301276969702184 -0.7835796838461344 -0.3049420908998877 0.34767999608804634
P 1.8605451817719583 3.151630221913825 5.905560884225456 -0.5371674708613394 0.858049115809619 1.1783982852931965
P 6.869790165746039 3.973287348855905 6.096076152408242 -0.16680520268442886 0.4351175581764248 -0.9566154408213073
P 2.446240210385087 8.467312089382222 10.423668428968895 0.41718205674392667 0.927838368688615 0.1658829479804756
