# total energy = -340863.31641005364 ev
CRYSTAL
PRIMVEC
9.34730284150113 0.00000000000000 0.00000000000000

0.00000000000000 9.34730284150113 0.00000000000000

0.00000000000000 0.00000000000000 13.68072254838807

PRIMCOORD
 96 1
Ni 2.5244540546463496 5.071164036779389 3.085372597350177 0.48816815814450115 -0.9321236263275302 0.8290236751115463
Ni 5.629132570783175 6.671366157802695 9.800992624574539 2.0686851780905986 0.5498766908978917 -0.8147841344733968
Ni 8.345841945272554 6.826680937777012 13.736539782455772 -0.9749543483398111 -0.5165305113372782 -2.1656530482669156
Ni 0.9755873194932264 0.20680720052815182 7.863021985238526 -0.647137409724279 -0.1355490728836246 -1.1582063837263539
Ni 3.951497395035072 1.8045902396390021 1.1292476269076341 -0.554777984854251 0.4555395734762026 0.6134654713931306
Ni 4.896332088979701 3.218379104943253 12.783540219691478 -0.07829163392305226 0.79745489916633 0.9406157229589414
Ni 1.3774278581966382 1.5317424767929309 4.907534831143833 -1.8961978374197281 2.352714687207535 0.3328154202713881
Ni 6.564591920221651 6.023598087736483 2.135998853263786 -1.478735530431221 1.8753513329880218 0.68892015008802
Ni 3.171969747542405 8.868075741442816 2.91263911898382 0.12729454618431624 0.14797187202800968 -0.19237045274804287
Ni 1.5360048467777823 3.214126082261 1.746604247970088 -0.15179921619389986 0.8118062827919956 0.9202554141350345
Ni 6.102218249891272 8.032744697437952 13.166217853337995 -0.8546403472383861 0.06942158512693206 0.493050425937467
Ni 7.230091823316948 0.711810179088602 7.369846148655778 0.8794990581532788 2.780344164537031 1.8426471578867814
Ni 2.216507170543444 2.925537461839294 10.458351027106664 0.41186810073018104 -0.812653204173323 -0.059333604763310725
Ni 9.261634570044084 5.435372335221811 7.626988573676088 -0.3401762315118335 0.9222197369502568 0.5475148755339344
Ni 4.8675423969767575 3.308786215674572 2.929467067851644 0.18885009829961025 0.5488197103882871 -0.8235415689510526
Ni 6.082224369633384 0.8205538933271199 1.707409138714653 0.46501023197079916 0.061839916124932205 -0.45215754437784705
Ni 9.186117712351948 7.400951167512334 1.9734576736506786 0.44581514709958703 0.7991950217858881 1.5436887953741543
Ni 2.7062403955792163 3.3352951658435153 -0.20963475956415514 -0.38548678252317486 1.8078223368981123 -0.5947686663145756
Ni 6.292819097174391 4.817300645510584 11.255157163452397 0.1511538693004171 -0.9634432623764182 0.012983299633545381
Ni 5.076725681825412 8.924832562820045 8.864491985626605 0.29479420383260846 -1.4312914780166448 -0.07355026258332495
Ni 0.3589728742570821 4.832359149996538 0.03151069178932477 0.7084919015723605 -1.2973591148008365 -0.09362440762538068
Ni 2.315887691769187 9.120630510347851 5.6295765676565965 1.0574561636894693 -0.6979848313934496 -0.36690567708687777
Ni 8.123366796129034 1.8693390047378282 5.198455603563829 -0.3257461721294326 0.5060326971297479 -0.6308255599381329
Ni 0.9243650359844842 9.052647578549994 3.4352159611594435 0.7345549172079995 0.6429051168104863 -0.7261566658419751
P 0.42217559550613976 2.3952275962240495 13.791125225439403 0.4050757603986959 -0.40669169873556416 -2.317730457822867
P 4.916709208644121 6.485345488792771 11.857163644187827 -0.27657742371426564 -0.20812463025850605 0.4234920581223546
P 4.424657852563956 8.493576062839601 5.069035655977744 0.07765194345652433 -0.3587871617448014 0.5637256809658421
P 6.240651801372954 2.7140453932488455 7.265612507920968 0.2609695419736796 0.16512832920263817 -0.09331767501823929
P 7.1825514423016985 4.902697602049182 4.0936829537797355 -0.998077564620836 0.062252321072002466 -0.9332950209278121
P 8.385782969275336 5.075174029594085 12.009389140653386 -1.1016346579788963 0.9287750215702714 -0.8463305418211101
P 3.3725722086057672 4.63065370722657 5.239292099155535 0.3405184453426007 2.659364504827149 -0.1023774712276624
P 4.68706467840766 0.2738619451779929 13.582261618339613 0.7359965347505324 1.2511471350211485 -0.4689154805624763
Ni 1.7548999790261308 0.7288568548372276 0.932848647822754 -0.511537428998061 -0.13431288648367834 1.2277320985313178
Ni 4.860849728316333 1.991882141802302 8.92657583475464 -0.07565702451368261 -0.6700603370690396 0.9515737646323418
Ni 8.114355996424216 4.468982761485369 9.736433609718459 0.264267495998661 -0.0730193297805194 -0.07349524097567342
Ni 7.994420756784685 9.108628573811561 3.6748742566695243 -0.8495526483028338 1.280608377705059 -0.7093480789250687
Ni 5.493755587251155 8.284187137333783 3.1781688786256366 -0.7244517673357266 -0.3723998674322296 1.1935001739316413
Ni 3.4524636039139334 3.5132397654084575 8.189403619525914 -0.9324815238875813 -0.949524852523113 -0.6864102391819727
Ni 4.514569556257562 5.825650260611055 3.6203018999095304 2.2234133950058355 0.06393767919422537 1.2980772239137837
Ni 2.347668520603604 5.314053694797723 7.4432290171647075 0.4176194013916614 2.5951985116722014 -0.15996324006193094
Ni 5.741580621041422 1.3470491247519745 4.192854095427275 -0.8344175924336081 -0.4515183681319514 0.7681756905862384
Ni 2.282975839320368 1.3507226146731293 12.406130725789394 -0.02422930486100988 -0.9233998733012871 -1.019395866482638
Ni 3.241691277623558 8.14075277896198 13.540412809876505 -1.2199655672120218 2.1892925420627263 0.9256501027880446
Ni 4.282270392083168 6.795909617623217 1.5008571195474365 -0.5063581987899666 0.34601340701890093 -0.184212856637915
Ni 4.159119680349801 8.531030704351222 11.496786805080472 -0.8698497079889728 0.7671709034708077 0.5196361468457954
Ni 8.041933095892139 1.039700468015364 11.13558833807472 2.3579959902111325 0.0008947439001274912 1.8149234667192677
Ni 7.174540803974906 1.8764523020151787 9.354152301702111 -0.2480147815852245 2.2025360373361935 -0.6346472476770684
Ni 0.669837986231195 8.857485247598877 12.764921327645808 1.1849430283902496 -0.23624735663665117 -0.9546621737496785
Ni 5.902410309548771 0.31256071266545493 10.862356401091857 -0.4205882542119982 1.575717541674925 1.1828061845529048
Ni 3.3963797883237854 6.889728493802937 10.165706612087533 -2.022330244975143 -0.41146957974018167 -1.0150584154495488
Ni 6.574986120711024 4.986916798460388 7.6749673431832 0.18961423015914441 -0.22690756729296402 -0.10060983780427833
Ni 0.23173271763693337 3.421355780866598 3.8083574766951167 0.5715978846250672 -0.5862979098394032 -1.0008548702556568
Ni 0.24103141426177993 1.9326015487235153 9.514353851474851 -0.422023443996628 -1.2406297804295925 0.04131479958838691
Ni 9.148120927289623 3.06850445508118 11.55223406936367 1.0378934110661933 0.046479631618778015 1.688749664402956
Ni 8.354273212216272 6.9819863704487295 9.5425359688089 -0.7127064538743403 -0.6809918963798787 0.7396994375234164
Ni 3.9449823251240166 4.552613077832879 10.338521411986495 0.9611758064984801 -0.2895625231200239 0.6867000025082496
P 2.42881245445995 1.9364432900914403 3.1705760647249903 1.1567933054289108 -1.0079968806170767 -0.7269629637933545
P 2.909899424592241 1.1772273311450059 7.459618577540669 -0.5600855131100935 0.8612601665477488 0.1345684541379102
P 7.207284404976955 8.918429660540172 9.415935167686479 1.1023162574269532 -0.9598102936095211 -0.5762389829415043
P 1.945173670718307 7.102473100941566 1.3990182577383257 1.220716072224801 2.04969706702387 0.5316563112351231
P 4.46732828892546 5.5278358525247695 8.380331622399973 -0.39690145211801964 0.3167948764734157 -0.7484792405985754
P 0.7747418285623073 5.42598764341306 2.178832867420762 -2.3065962955829176 -1.4920049938466176 -0.26942307205767146
P 9.163478545458725 0.04641403105214682 5.726189352582966 -0.2734447916225549 -0.42530340029948044 0.04148449239703178
P 4.45611152580743 4.711348970558195 1.0699324488092337 0.7457063058391287 -1.3204170250615648 -0.03327341734114915
Ni 4.828367851787039 0.6050331373167787 6.8588160293799065 0.36505936790675836 0.4897031067317889 -2.1432376566861926
Ni 2.624750611526731 6.729132487860547 5.156729244764758 1.2014428258174856 -0.5132173878036451 -1.4283293100645271
Ni 5.60468937448847 7.367964536642728 6.91749278671084 -0.5155995148825765 -0.9182715509357863 0.06409683047990897
Ni 6.667608542158155 3.2205102899356786 0.8486397334444062 -1.4925631803429327 -0.2805703469237426 0.5568592928633119
Ni 2.5390825832127795 6.1453467040800955 13.19346991406351 0.1596163982454735 -1.4803213868611023 0.097326024846684
Ni 3.7030741338785105 2.672160130305603 5.0286225931937425 -1.683068811968095 -3.833087753242179 -0.46369202738000787
Ni 5.532481461916153 3.8106896286934067 5.330091796595985 2.1330442610929587 1.0570679271121148 0.36175755722703506
Ni 7.967659429445585 7.984793035108375 7.503807950574407 1.4659602330434238 -1.4338001033711114 -0.857277527750917
Ni 2.918424164561944 0.267166472326789 9.47797695395282 -0.33352813006769655 0.5808523133437996 0.8101926584479725
Ni 6.613936330638383 1.4528886320731826 12.949118337918792 -1.3164012190339522 -0.01729452541438957 -0.4040732872761105
Ni 6.258056478811097 5.662016381324199 13.454059624282094 -0.5841027019602972 -1.1469374956807536 0.47660385034566943
Ni 1.6906372736624193 3.619780320424542 6.029545776379817 -1.6654027621468996 -0.9091616182147181 0.4330313650713575
Ni 8.840632061014038 1.8286221546193806 1.9463841464047944 0.7014193109962953 -1.1032446827784936 -0.5971883314996618
Ni 8.100652850815024 -0.109608339728866 0.08231795506269986 -0.1832288954580909 0.6336702284757797 1.9857632444843862
Ni 8.075134714721505 4.5134385326431605 2.009397117411105 2.750654350782082 -0.8619443370989672 0.7629391247776474
Ni 1.2279364477410983 5.058872333862548 9.847452457409418 -0.16902766425704438 0.5084523623148339 -0.1247337274356755
Ni 0.48256010502179253 6.8181001139917194 11.537746685066477 0.14272682157898645 -1.1200188169130387 0.23984021619423207
Ni 8.794923751308065 4.630476108477201 5.450810340193259 -0.2825233568850554 0.5103467511240695 0.837702690942783
Ni 8.668052813140553 3.0195339367683824 7.336506189747954 -1.0613130755417142 -0.2619239354671489 0.02172916414697548
Ni 1.2237582034796324 7.34028717364899 8.980135878643232 -0.03940678393239665 0.1539993091690122 -0.2632354551897208
Ni -0.08851615141567107 7.280081197612966 4.464470818521143 -0.1026680058848877 -0.9433896861596527 2.1281779341395928
Ni 6.742022418143684 9.011332501065253 5.637004869031513 -0.69339104137518 -1.6470695110553504 -2.6793712869663793
Ni 7.81432627762212 8.237244983684828 11.626411458593461 0.3345033494967723 -1.3376752979213802 -0.7896788547653367
Ni 3.1832799836864187 8.06532004699323 7.4447479538369405 1.9121970410614615 -0.6788895053248953 1.7303344298232783
P 7.119288898316012 8.257173432824528 1.9324024511781703 1.2687522496974213 -1.5361096974753157 -2.0579330817804173
P 7.516287534273474 6.310008786652772 6.08276370899331 -0.14762477310123606 0.5659085475497738 0.4470721594351397
P 5.62005633996017 2.611225064666907 10.990517267017944 0.7973127171615108 -0.23772728361628737 -1.6949663347366293
P 7.175279240880176 2.2618041989350868 2.993861570181992 -0.9286199840496459 1.4595003363506929 0.6761366251701065
P 1.098466959451241 3.4155137167426237 8.40341104724558 1.4243924369039662 1.6886918145818273 -0.8992068209948513
P 1.7128651592413147 8.48851917213389 10.808413117796734 0.4045358287348258 0.19367837292618903 0.8405321899717781
P 2.214525542392592 4.693533011805725 11.77869116941409 -0.5109836133771198 -1.0834960393966566 -0.9520987838978765
P 1.4109659799195469 7.287596428902046 6.694469885635057 -2.652644926715128 -0.7768901876411007 1.1933608201402996
