# total energy = -340884.8714038279 ev
CRYSTAL
PRIMVEC
9.13630071153436 0.00000000000000 0.00000000000000

0.00000000000000 9.13630071153436 0.00000000000000

0.00000000000000 0.00000000000000 13.37189960276225

PRIMCOORD
 96 1
Ni 6.573851503426684 2.089407991974159 11.769932431785094 1.4499941966324705 1.7153585252397363 -2.7675040753495694
Ni 4.504525100160352 0.13168880951632594 6.054969929214158 0.7398189938204162 1.578484562897101 -0.7304928313234839
Ni 2.8840194636237877 1.9822026407923354 5.033971892380945 0.17789976993569365 0.0712835780363353 -0.10898263524900587
Ni 3.5148170656049236 4.758897981326564 4.660722036022787 2.1815519788853592 -0.3853643980126976 -0.306320202194337
Ni 3.6491846384557056 3.210715300300083 2.769266614520428 0.7330392518944214 -1.1471632385383146 0.04856813871669055
Ni 5.6634374217353285 4.8123910213103365 2.78064679054157 -0.8016506824152323 -0.6550291537675299 0.40185699635108213
Ni 5.323247269080207 3.422238931675708 0.8581754557792776 -0.018160215848794528 -0.3002068902077475 -0.6519217184867998
Ni 5.767737429327941 8.118489299822302 12.726237237735115 0.09565223668868687 1.194843061112781 0.6991222874320023
Ni 2.2912745536208603 5.7264961684420745 11.644972507656991 1.0929168184899243 0.3413795077913153 0.4954983732573273
Ni 0.9499651269671443 7.8453778661357285 11.705867778382839 -0.7724244385602632 -0.4644584732323872 0.8688631757059875
Ni 0.46493080556894434 0.6289566374112415 5.132991118229642 -0.20253813730966405 -1.3648492872330107 1.1923100102782822
Ni 9.128507330600433 2.5738694673250517 1.1712865271008555 -0.4100171635643713 0.09806367434365693 2.1990619627446644
Ni 1.579529328367954 1.1529463172864365 3.1596324164132743 0.16834683613993587 0.12105576436345603 -1.7440543505125319
Ni 1.7292458862183495 6.9275725172630125 0.5566026184791354 1.2980929076430678 -0.838488420068872 -0.472264085319735
Ni 8.05337488548168 4.395465079957742 3.9586439304294587 0.32087958806575057 -0.8325846529899272 0.1365011523842488
Ni 7.785105691110461 4.022247200651666 12.784365123010732 -0.7892682495904794 0.6246973355532079 0.7624053637613645
Ni 7.96657089352851 0.004782853361486675 7.461867944209377 -1.244957975491301 0.4248840533738747 -0.39155304332191276
Ni 6.962180823916903 1.6102272983671808 0.5215091742636503 -0.003825030173045025 -1.5843482207667294 2.377031666686345
Ni 1.739971903116889 6.961769690390127 9.502192074866914 2.107520405790241 0.5851185448193212 0.48880142085312595
Ni 0.469065895218245 5.285724482536509 1.85904165425139 -1.1368276609402614 -0.7733443792713715 -0.8537597444056458
Ni 6.783072787052366 2.3376869606435005 7.665749060137276 -1.0676665285635678 0.3872834694122814 -1.5213770192508314
Ni 3.220180507716511 4.436468797028137 0.024456963062776848 0.00951128192454491 0.08755866104727501 0.9329787752389739
Ni 6.622018080163565 6.052963597603495 4.896013753396325 -0.6668531429856516 -0.026902480817798828 0.7748757283142332
Ni 5.319483113235063 3.216416351871368 9.55037144242463 0.680626285510344 0.024061154714261786 0.9565617047652366
P 0.12212767094365011 6.06585491774305 12.571618140985438 0.31221239930905587 -1.9342378229115849 0.05854761852690562
P 4.206699973364282 6.593001189473821 12.812807340393052 -0.9405437320704254 -1.456509372043169 -1.0471902629870866
P 2.8167671549439337 8.875879482847868 1.7126461416672798 -1.2694348775867428 0.5593895154843335 -0.7964244010192865
P 6.62740849751462 8.480752754714963 5.90844102664136 -0.0780545782115817 -2.272248928451299 1.3694348497211641
P 4.979329505782322 1.536268945050591 12.953880044250512 -2.201134529002977 -0.4226268819085818 0.9179504201509416
P 4.12405299818184 6.763219605859414 8.181422879210896 0.2311645427971051 -0.273905019088425 0.3455462375744952
P 4.828297320646245 1.5147072756463722 4.246928932144222 0.5051358963470913 0.17417938366131291 -1.4300298376954017
P 0.19777623987031617 6.240869891941023 3.7436503320878503 0.5324574669801797 -1.409646388943043 0.660703835554804
Ni 1.127318994117439 7.839832131674559 2.7237486513260385 -0.24662561454718174 0.2982309974282993 0.3120429636107271
Ni 1.9293674144514044 6.442343592662139 5.345082113872216 -0.384323358342693 1.7471805548463393 -1.5030247419958889
Ni 5.6660595400060965 5.923538763374611 9.586314562595451 2.0167303822898623 0.4611772313779541 0.696304101256917
Ni 8.687315374867499 2.4224261486621996 10.305027130682111 0.37723379848576327 1.6334069259665933 1.4906531078044136
Ni 2.459318530464842 5.560334269520664 7.431045720522057 -0.46247101048871325 -0.0001920614061480563 0.3804818731094157
Ni 0.5912209750636801 0.40441012316749253 9.706808662992714 -0.3787962578768767 0.3778346652945558 -1.4101860634965973
Ni 1.8729781671790149 1.543998255353968 11.921502745026215 -1.5360739591413741 -0.9579210470066082 -1.6632785167150452
Ni 4.231779118497579 7.246639542942477 1.4979732274765558 0.9117851718804942 0.3914795097714999 0.3603511637978116
Ni 5.405729790851939 8.637613899630654 8.252548065712974 1.8613912712635041 -0.23263032870935418 0.3653815271328675
Ni 6.909884639311077 1.244016961617476 4.9926529729400215 0.31487889039762545 0.664412651864959 0.7458037506489413
Ni 0.8050295952181163 8.169844445466842 7.284503113498368 1.5184349059033722 -1.0313964904879398 -0.3914689682485387
Ni 5.257347132888415 4.661367972474854 7.678665961918499 0.5992192458867616 0.4932052063477763 -1.643667941572969
Ni 8.386192043556632 7.6448452043758985 9.61678960686016 -0.9611161569051383 -0.7819169514317308 0.06308381583436232
Ni 4.8865046917370405 0.8690385171867422 10.795014240632863 -0.6096854355254081 -1.5071135673532818 -0.895131108263581
Ni 8.590762950179455 7.4748186503028 5.182974905154872 -0.6774933963083171 2.24344640239731 0.7241943999092818
Ni 7.1480679958229345 6.74735898802648 7.623413270440128 0.05602819453916157 -0.4771198707501395 -1.0989439985206106
Ni 2.8094032966643576 5.439387922243949 2.472477544211832 0.08508243159264056 0.7288866631786286 -0.29669167796563745
Ni 3.503853504890914 4.95407677093772 9.5325593107846 -0.6307319717830621 -0.7377037472496263 0.5136827574758379
Ni 1.3304920467492265 3.5744588358891356 3.7194875579042326 -0.563385524017604 0.03123119010013976 0.25347683314106023
Ni 1.043657889568951 0.04429826706495567 0.3650527674643172 -0.6167906791116217 1.2867674553279196 0.5923834539118508
Ni 1.2163156982134118 3.3881696667569225 8.549243945755501 0.7260679627829107 0.5724216660779432 -0.4259538893992858
Ni 5.247763153564251 3.214278457532136 5.599576507836343 0.7970823463182595 0.08201022042522005 -0.3780197847221683
Ni 4.457263017182376 6.87376884305901 5.860047869649722 -0.00256827494780848 -0.03832872037686948 0.5641789664531767
Ni 8.372049050235558 7.562390091505951 0.4598647268890124 -0.8322491240273796 0.3053035880043645 0.1773870919653332
P 0.3476325831198155 6.2539073928901 8.262536783153495 -2.574084612511722 -1.7014069481556506 -0.9641395171124943
P 8.831614106465056 1.8608725688906294 8.141721998605348 0.3817527694020393 0.22865771721485134 0.15065096152206958
P 1.973641927134813 3.559968663145453 10.578282004288026 -0.3717154397706953 -0.0430279256247517 0.1570157273978328
P 4.660892884843914 6.372277303399023 3.643695549058225 -0.3472632202656019 1.5372337837774301 0.7291332319717958
P 7.07904324482765 4.207659284926758 10.722899592776345 -0.3148475229390578 0.32122025923462094 -0.9152345638816752
P 6.366283890208697 8.317075929555395 10.55799758970699 -0.4512314330191519 -1.8581496243977547 -0.48351960362889634
P 2.431863947176843 8.794045638418382 5.797347265926302 -0.9403922940942256 -0.5933887552479135 -0.10155883198110896
P 7.443024324232172 4.195599368141347 1.7490177543360064 -0.11734360561919145 0.5245736933567289 -1.3306880679702697
Ni 2.8013359432389655 1.773291991386883 0.7012448749790636 0.19923735507120527 0.644301997158013 -0.041190101085064545
Ni 1.6178469730634173 1.3982742608635905 7.031292369767841 0.09683520125319452 -0.02097094582471227 1.4637184881970986
Ni 7.087585685883982 0.9046143580736437 9.55999836236159 -0.1954015262648828 0.08275738300388973 -0.26688667878906297
Ni 2.924109550634683 1.6822944374606035 9.526930435988017 -2.3971988856628395 0.5792551440600089 0.7551188574022801
Ni 6.578638924938468 2.4682172872443795 2.867630767616462 0.6310551594504358 -0.532825906063192 0.38881918933051746
Ni 4.082711237989429 7.4375334075745725 10.460061015478802 -0.0742190065155754 0.6950684290776029 0.6197783009850358
Ni 7.17589716743533 6.375082147681691 11.775268031332578 0.8346243091277755 -0.3443727860916843 -1.4519988857673252
Ni 8.053959608719762 4.223245813741842 8.649051634345547 -0.8019067642900963 1.1040049579832856 -0.7675640251441684
Ni 3.314375766851043 8.948933342405553 12.56374173624248 0.8057760174375155 -1.173704993582585 0.7004906285344388
Ni 0.4070130552070103 5.073935898443629 10.437275995424908 -1.4125113691956641 0.22623830914008133 -0.01967202450763064
Ni 9.246575743189721 3.0317991257480417 6.036356544011948 -0.7389054808672113 -0.5671719876432296 -0.08171351512040766
Ni 3.748121637599047 2.8244142385419555 11.46967978992093 0.2079801342608418 0.12686002975005894 0.9582815156698206
Ni 0.8931747960986343 3.5609097021067386 12.561415634110991 1.1447165767700351 1.4880336679036954 -0.31021876591779474
Ni 3.1299412667396176 8.91769633067122 8.14852762891857 -1.038227397366844 -1.1449420625172797 -0.007397835125967904
Ni 6.082610893034295 8.333347680915104 3.789087895837003 -0.5590845826494049 -0.16629329604501683 -0.6716721616408498
Ni 3.5207922061940584 -0.8080747242064324 3.716839857991799 -0.3489876591558764 0.0758442008238242 0.9106500298347866
Ni 3.4556047014486766 3.0956892758089327 7.166816598273951 -0.4518904067593895 0.6429529393292862 0.5223329769516681
Ni 5.0629632014290245 4.562604563042818 11.757095929449108 1.4640465609604785 2.0179015197798282 0.15492104965233316
Ni 8.352798864881876 0.2691188703265549 2.2172083919572496 0.6449442587277021 0.7182137568458147 0.9878039506089699
Ni 4.620208938294343 1.028765719599088 1.981488182085806 1.5133600624836259 -0.7260448228544593 0.5334625112059264
Ni 6.185494774034679 5.831161628058485 0.4211962482507007 -0.49915525328362415 -0.2232712560919574 0.7921622833088228
Ni 8.135117366905217 9.059190217986108 11.649237332774742 -0.786486058859652 0.28482552265567074 0.5467875104496067
Ni 9.032311221635595 5.421681771690823 6.258102782123327 0.1350353664719997 -0.37282898454984825 0.4822872738836919
Ni 7.48589184662395 6.493543421196563 2.534081791863852 -0.0572281283845337 0.5832742925217309 -0.01470850985476822
P 8.700791418245135 2.063022355855776 3.9438148009337013 -0.41470351329644706 0.726214258552788 -1.6309731197141204
P 1.8495983739563897 3.542098059181617 1.5549380616864303 1.3193502743599472 0.7479061417039249 -0.2436817014275094
P 4.53653869744526 1.6640401088717776 8.316104740802146 2.145312794047667 -1.7101564122135064 -1.4294451688365253
P 8.764681568306026 1.6847703749218508 12.660233861346597 0.4717925449999552 0.1561729197815633 -0.8737824673844757
P 6.545766515397629 8.578374126572625 1.5957627072651641 -0.3455104992405534 -0.7499067170737214 -0.7734649640096356
P 2.0016812336608925 4.132312213919727 5.81237648040509 -1.8292555670712236 -0.5656709776176709 1.3373353980834584
P 7.17708488651268 4.246954513785887 6.298619534372009 -0.9592616201949028 0.2628230502426506 0.3009381119468172
P 2.2909273741982497 8.814885540075595 10.55423982927226 3.6359036811555763 1.321401243351705 -0.5099605714292443
