# total energy = -340891.7880000457 ev
CRYSTAL
PRIMVEC
9.05348970771381 0.00000000000000 0.00000000000000
0.00000000000000 9.05348970771381 0.00000000000000
0.00000000000000 0.00000000000000 13.25069732800617
PRIMCOORD
 96 1
Ni 6.558384119079141 1.6701696643302382 11.506626831627756 0.22166020285109567 1.5527280227582871 -0.7298857938671043
Ni 4.695012985539527 0.49588950484751254 6.040211260147044 -1.0892805072889173 -0.1909720297386195 0.346087711900262
Ni 2.5314462420634327 1.4358291381345731 4.9847002100349895 0.3812912563845885 0.7464470406598951 -0.7381508620893739
Ni 3.2551459910194156 4.581002390330826 4.789729688947285 0.14357811383568822 -1.0065573199570728 -0.14169143833593661
Ni 4.914406200316979 4.579436136620741 2.3871127939576855 1.1632848266905256 -0.2968225471165469 0.7909116987311734
Ni 7.5043923064810585 6.015790377155226 2.4692143648820166 -1.4244708555503853 0.7571867956749024 1.2140831402893155
Ni 4.88396836810133 4.551397479163317 11.474613692212367 0.9814672097576645 0.6530758866959011 0.46281810941548684
Ni 5.8425518526322 8.013696366948418 12.544899132090253 -0.6280767935484023 -0.15781482626036047 -0.5485430596881327
Ni 2.032535587718489 6.5264615145602916 0.2752106945392398 0.31903533576816023 1.4064116840558296 0.44248299740256053
Ni 2.4057113777532257 1.5873392874887864 0.5323614879173332 0.7578498831801981 -0.379354701483508 -0.0896818780378649
Ni 0.40545238599904493 0.0026173638588767863 4.978498569622223 0.40608363283792004 -0.419538215680929 0.01440331990952358
Ni 8.833145822481644 2.553011654418481 1.3465753103838405 0.18363127310283212 0.19258231164853287 1.1836165962693421
Ni 6.861368203828953 0.7558514067630714 5.010632120450005 -0.11648614271490261 -0.078872960347819 -0.6378562415326693
Ni 0.7228831241892221 7.221090508238331 2.491184468224584 0.0869901901383147 1.1409565955069705 -0.46123456697845083
Ni 7.662556770730721 3.793882946350865 3.7136400568524333 0.9104826510189868 -0.6160471160773777 -0.3086660767186942
Ni 7.771886711788473 3.7365290893948484 12.577998690264078 0.007047393765084637 -0.2527551244836873 0.22886032014396068
Ni 7.955582016861493 8.980853506181315 7.004597126196952 -0.7596252299130659 0.03181303074553876 0.5120107690900536
Ni 7.010578766811133 1.1772524201360264 0.5819293437711913 -0.2727284822818206 -1.2131372314362785 -0.01574903530414062
Ni 1.916071496813643 6.411255858717306 9.134513859328274 -0.03653897546629836 0.4762387536967669 -0.7886969504680417
Ni 0.09130172711039339 5.147533558899051 1.1702097105344342 1.066567124851802 -1.8775138878569793 -0.1821875986777701
Ni 6.372642725344391 2.0364738557178366 7.053916011085334 -0.4481293970550605 -0.965410156294802 0.7435334665575258
Ni 3.555586045176545 4.710757004047264 0.5109798614022543 -0.5533757051900856 -1.349353762700573 -0.5137166960375669
Ni 6.017691609982498 5.266867606024111 4.622095274519881 0.02548451742434966 1.21864273463554 -0.48713328912208365
Ni 5.289383634792795 2.8339414383719457 9.515722810732717 -0.06745469120854834 -0.32717313438394624 0.07136071113117387
P 0.602252617345756 5.524919221622746 12.310586671712514 -1.1010147650067101 -0.7078604386359486 0.35848325735113745
P 4.151486734181284 6.41047725860709 12.571466597478953 0.19394062544864019 -0.22810441581454266 -0.504713206987376
P 2.3777904156612983 8.46852558016963 1.459259569358278 0.4135953678339329 0.006101999132679814 -0.5107704689250494
P 6.10587259920927 7.873675095964716 5.829458695895058 1.313302011283338 -0.44804583620231875 0.39272315237061395
P 4.819697645049907 0.9746262681971768 12.48353457921766 -0.39215648123386654 2.0505244480211715 1.9820377160036833
P 4.234624929670961 6.066426544788219 8.009768057787689 -0.04749624580875046 0.6318977099563892 -0.5008989754476082
P 4.361826459305063 0.9173991600963115 3.838488584525545 1.597679904878629 1.6042411030359147 -0.6473207293796788
P 0.13130638184307708 5.543994924323034 3.7286136233906424 0.06318151775449118 -0.2974000168865717 -0.3727541654478548
Ni 1.189076277623723 0.8948460120200473 2.6346225262035827 1.0728724982445392 -0.7625611726129383 0.040573036326355935
Ni 1.5714866271052055 6.606177490960879 4.926887341153531 0.8700044883992823 0.11696719611637921 -0.505177033997672
Ni 6.093659441666467 5.332079891999515 9.114703918617074 -0.99074734950801 1.597809231367642 0.28380685158316926
Ni 8.662840628606407 2.7184370173703885 10.230148164887476 -0.10988432112766883 -2.180288538791903 0.6988687766602997
Ni 2.467112144584434 5.340970418839422 6.970144976668865 -1.0753687823038318 -0.14836885035611222 0.09224166834524114
Ni 0.2637037091894217 9.134427851176564 9.457843851376785 0.5403849493573725 -0.03284198623068538 -0.9562655136810563
Ni 1.4700151150668412 0.8224497820044534 11.45137157357346 -0.4488120249443819 0.6746584979626832 0.1762555494640513
Ni 4.374990233261503 6.954166472779098 1.4822364207503342 -0.42261094106898184 1.02960931668053 0.2674052702966943
Ni 5.702503421179536 7.786707274351535 8.035779638911656 -0.8340787210369506 0.026458194191528627 -0.25985753985642346
Ni 5.067364908015779 2.9751215560313184 4.752574167408613 0.1555306582118741 -1.0377964804770128 0.08360301883363666
Ni 0.6316809854650192 7.491165158097043 7.0411424425329665 0.7155189836224709 -0.796985415729079 0.3571421699422107
Ni 5.08331715678555 4.5461555086538405 6.635683719091165 -0.5683690932751243 -0.2454742745515579 1.5001402213592423
Ni 7.86153436633914 7.210371176488382 8.966242984578217 1.5963673567147927 -0.26320408773115317 -0.1239081462105866
Ni 4.700363597924848 0.2608726829747183 10.498262734236167 -0.5362981808825086 -0.6770776489271371 -1.0985717027828563
Ni 7.993298854758693 7.1735325270875885 4.979412972077244 0.03245632075649249 -0.18694002576109095 -0.7151335752585942
Ni 7.16503130030279 5.96395914888795 6.8699165087599505 -0.8183674809492809 0.4316990194131791 0.7336827990156912
Ni 2.3817015231916856 5.44644357330471 2.584813847524937 -0.9311332373898029 -0.5429956475073423 -0.058583099750531366
Ni 2.6267161136890302 5.371625534806758 11.29023032192567 -1.4248806893942947 -0.5968720858108236 0.8533846204544141
Ni 1.0850154675444084 3.0021914900957998 3.7455219206678416 0.2582403159679746 1.5861024844536749 0.12678932441312357
Ni 3.5729144243736752 2.5681400356297677 2.424824199761094 0.11581791300328441 0.09541106721215827 1.078452049214846
Ni 1.103783351596472 3.5001696350064146 8.104483855846482 -0.6140953916676457 0.10004805176353737 0.3172044532070085
Ni 3.3777302409301444 2.8978500218372214 7.389529777895947 0.8374916033732416 -0.5739275611995083 -0.6168490431533828
Ni 4.005942834508842 6.915381323102764 5.904298462768178 0.7819825145623435 0.3720918492735076 -0.4086997303045284
Ni 0.6127745830212544 7.214110267715349 11.019398800331913 0.3651696682323775 0.8811275948956374 0.26691933179921123
P 0.08089655145142732 5.533737320545422 8.141069007536974 0.0020702522654674023 0.7186690992156785 -0.8604250722409634
P 8.545326332901734 1.7106025491235406 8.225582428105044 0.012982785412913124 0.0043701040432376345 -0.4164040409273216
P 1.9597636378822676 3.2812562551806077 10.244352184805123 -1.1264828273708276 0.26238956224965776 -0.5030579307721401
P 4.086491731957568 6.165480775089052 3.718357830310962 0.7887830824239447 0.2541489195074204 -0.6566132104251982
P 6.767673639403093 3.9454293096636928 10.599550460434562 1.3501505475702553 -0.5965630392108371 0.16864585543759342
P 6.3766353142816605 7.634137866707842 10.36228384638283 -0.6818552728214387 0.21800615103827617 -0.005627630599422566
P 2.427657036673728 8.485075359256543 5.679951178452237 -0.7404178037466798 0.051407922158330815 1.8674009677926937
P 7.036815779827476 3.9043626805946334 1.493486286993988 -1.0092711193438102 0.0362659243105698 0.3170363030602604
Ni 5.160959884055448 2.965506750019118 0.27458328770624024 0.6040174386063533 -0.5667680673365917 0.29658189186065054
Ni 1.5359426267248861 1.1601775386491995 7.257300845457161 -0.8547244223117603 -0.7970028992305757 -0.9154595354082878
Ni 6.807038212417263 0.5993527846096846 9.223770403125902 0.021403662486756687 0.3309901941371913 0.11970902052757448
Ni 2.5569227619488673 1.3487345676662414 9.28701627114853 0.8630172584481717 0.423768965932825 0.8921172611379217
Ni 6.270772859761266 1.8756929329582628 2.8920575991568014 0.6802552753241704 0.4458323734907677 -0.5836956963298657
Ni 4.124380586158188 6.769457176864867 10.075657606739275 1.3692880397306548 1.2735311591433034 0.6787717488001085
Ni 8.463247395701536 7.141718564444583 0.10390327935934046 -1.527416797687008 -0.4718604221234131 -0.032442693909737676
Ni 7.538478695027136 3.818952059201885 8.173983874521866 1.40464507907371 -0.450199906430844 -0.07572027365145023
Ni 3.211173191771527 8.625884283840113 12.580410539907819 0.32107859145043416 -1.2605159778305581 -0.10905282636530896
Ni 0.2831886296220562 4.866594721455932 10.263936693623949 0.16112512158051603 0.39662377297660073 -0.20804492606050623
Ni 8.77010637402312 2.1795552062044807 5.936524359190426 0.04881085085511594 1.259649773175521 -0.22694304851658978
Ni 3.4239573591017973 2.6889588550580306 11.559086372076997 1.066197914437841 -0.9807717263525367 0.8089359032227358
Ni 1.2670087165625377 3.3079368891899814 12.596126492597628 -0.4511812965075068 0.9478788322792578 -0.7981920344426705
Ni 3.228746015189306 8.479353553795422 7.891783885969992 -0.07810625738512354 -0.7601271092501489 0.3210806483329632
Ni 5.734199688457044 7.63248107810122 3.5941720180804984 -0.6880590876393053 0.24658113446249144 0.21145729417616485
Ni 3.145064610320409 8.196223771856113 3.4977469211750916 -0.15916259853750653 -0.45819398037991405 0.3910287953873265
Ni 3.59866254894872 4.430479071348863 9.228845789425751 -0.5307309712073763 -0.31887207071741863 0.20542522904947202
Ni 7.34769450755529 5.915314748978767 11.48191442626909 -0.29622245163870276 0.4537205179895928 -0.5802650733817619
Ni 0.5293095565550802 9.015799976244491 0.4209592030778556 0.24396040901019275 0.38818618373220887 0.2528759663322677
Ni 4.831403807172107 0.5390330044431246 1.5830741885129411 -0.9247288765253558 -0.9811525067307232 -0.6406340613881225
Ni 6.238877415711376 5.7052918959928665 0.4733807188705515 -0.37792593945678143 -0.20747079872459107 -1.1075181133428667
Ni 7.970855253907239 8.822734309379921 11.514842873488464 0.395834444306086 -0.18943373871722213 0.22086727463615508
Ni -0.06814923801905612 4.970275284969793 5.83587218796572 0.6231690718341397 -1.5582144997941554 0.2343992476843189
Ni 7.803202732500527 8.565144421753624 2.9416417512920363 0.7369830670335179 1.1458054389588397 -0.545842372927518
P 8.537884364406416 1.499457063420585 3.6944665764638853 -1.883947559297465 0.6763392280992159 -0.1094850288067211
P 1.7773901422986842 3.4840453699332232 1.59609944407768 0.5457040475774407 0.25030692005351085 -0.2391118226686398
P 4.652488744636226 1.2284046366792771 8.30506029772774 -0.1407254748782415 -1.2552989524059932 -0.883434645762259
P 8.784990311013757 1.6231277320897546 12.583047821443932 -0.6432920678362598 0.4144106646463766 -1.288429930632007
P 6.5867577556537515 7.990392684579865 1.2863198099938218 0.22089375699871638 -0.8293862006572877 1.1585552824253402
P 1.79007408130348 3.428284927156253 5.890729997824219 -0.4229477555831103 -0.7851400863547188 0.6591344341851552
P 6.9963195206065985 3.6463472789546145 5.883084325811692 -0.21314110963649097 1.4406883458505124 -0.48266419760713647
P 2.479768923120268 8.313819548967668 10.214379701957675 -0.5765405733423232 0.3046369009546431 -0.23214516154281958
