# total energy = -340866.4637176238 ev
CRYSTAL
PRIMVEC
9.26020061526103 0.00000000000000 0.00000000000000

0.00000000000000 9.26020061526103 0.00000000000000

0.00000000000000 0.00000000000000 13.55323963585487

PRIMCOORD
 96 1
Ni 0.9413456878292366 6.900618114791763 4.104639458997945 3.1536048373076593 -1.2209814100710457 2.751089895657604
Ni 3.8497709590114804 0.5378250403086104 9.704865203664747 -1.3706430110966523 -0.3066685866726912 -1.3134141113811701
Ni 9.374656637949986 4.49120653133508 12.459628558810389 -2.290758300109397 1.8108559815181138 -0.2085601751340279
Ni 4.026696350892503 1.9893503656974987 2.559664819667502 1.1843956405272118 0.271021784003359 -0.11671394245499254
Ni 6.175970380244627 2.6641041396325256 10.16014574221013 -0.49880095526799906 0.6030339916471614 0.5169028070750323
Ni 2.0767203579720435 4.8260368631488575 11.204896385601945 0.5206026245241228 -0.23202843345929716 1.0757554762192894
Ni 3.0768683193511857 6.907155816386446 11.27854553870816 0.6417121249436496 1.8028421100747016 0.46271063730334505
Ni 3.7532333681834857 7.479491772138487 4.4427247513082255 0.5267257067027251 -1.2698886772947098 -1.1972395863694156
Ni 2.50756044918195 5.881171895447581 9.33982161548699 -0.6260222250122187 -0.8513717037894434 -0.9457386460078034
Ni 5.761733828637079 2.5025784612811868 5.766591729850352 0.5805982883514645 -2.171666858561163 -0.2966335710341923
Ni 1.7062845550087564 7.881884527231023 0.3808016714690768 -1.40776845519404 0.8293990561730942 -1.062402451951151
Ni 3.674929112256241 3.047041213350517 6.677355605333359 -1.1760128157801553 -1.5962529426241154 1.4843181667253211
Ni 5.490826661282356 5.208520187039457 9.932369810999248 -1.0965940102311955 0.20180151625395565 -1.378382288722439
Ni 2.727369829851889 0.586169769367192 12.574587466610483 0.8509343591417087 0.6605907070157074 0.7599458464772784
Ni 6.953484599783324 4.245190783083058 13.66803565270218 0.23634248745361877 0.35817703896462827 -1.8010258828015693
Ni 0.010500141413895738 0.08896182075064378 6.779384495092864 4.037773790132782 0.585181793957089 -1.4972153344029635
Ni 0.5174803796803991 1.0312992760597535 0.34660375080454114 0.7840314266715722 -0.6196381758627458 0.29224881170293543
Ni 6.12085366651722 8.880930524743638 9.401611229737242 0.37930327942028225 -0.37659230824702233 -0.4472097134542685
Ni 2.334570642538519 2.511931263845817 8.908666677458076 2.5653050665468786 -0.7091786432267398 0.05725409652646268
Ni 0.7623663834642185 0.6951410314858099 9.083367769164818 1.493681610218092 0.9987895030861961 1.1409463110943254
Ni 8.32216076281059 5.308863720297216 7.6276003458998325 0.2615660379070979 -0.24432601987972763 -1.029471248440769
Ni 7.171460460742572 9.38688010268792 7.127987523198102 -4.225987026179341 -0.9914865416668794 -1.9766677099410215
Ni 6.151903118991681 3.3539890812810245 1.9464617468083039 -1.040086304952454 -3.464514201534575 1.154761876821179
Ni 8.348052283573667 2.4865305337123695 11.4099570448415 1.445210402090582 -0.274088852964457 -1.0426005867338752
P 6.966828548788901 0.8083516134203564 10.949282439470476 1.5925382127766896 -0.20167784619189785 0.1946415081704067
P 5.31153065805822 0.1637592387261796 5.723777192565629 -0.7745929069664919 6.118665280481585 -0.7849827348412481
P 1.4247281570111376 2.868847173992906 10.867353741044425 -0.4369831506302539 -0.8638443823351575 -0.6953183403048799
P 6.616904090063888 5.6247476817671975 6.239992628849664 0.8765795705136388 -1.7755092265877037 -1.1243729801166766
P 6.65258364281787 5.218382300634834 11.803448895156684 1.330211385444167 -0.14927567844109776 -1.1126412935020449
P 4.6123669954495625 3.5015318567882123 8.648972686960295 -0.9984850844718997 0.5179808706305595 1.1225737221244085
P 2.6558255203327437 1.666382350799852 0.9494233607768874 -1.8561768169420998 -0.23578018719224555 0.8128815181340453
P 4.429478034408518 7.3648227086158915 9.276962448072167 -0.32883920923245946 -0.30604149461165353 0.8471954609245668
Ni 6.551777099532158 1.9370857937422756 12.87227050388167 -0.10810691751227187 0.45938954334991206 0.22414131740173654
Ni 1.7230640384217373 3.078748140064671 12.959418251342797 2.175690635008576 -1.5392880952032975 0.9177789275700838
Ni 8.128937417945655 7.233401942281993 5.881916415572528 0.6460164087459583 -0.27366976314916736 0.25575765875543693
Ni 0.13006229491188803 3.1867313387836393 9.059053260556945 1.1663182142002106 0.775849147971096 0.5413989924441838
Ni 6.575899921988458 0.6990793947835697 1.3348847651672733 -0.3914360581280743 -0.34000062516591767 0.7560177150674657
Ni 0.7295797173648806 6.99500733909006 11.90950226807915 0.14960272276321332 -1.179880783375994 0.47930427999596814
Ni 3.580076877929992 6.474843353287651 7.378478726380308 0.03648909606496942 -0.8843823543875091 -0.46622353555261
Ni 0.8330596805519875 6.857882289211792 7.273427307158332 0.253828302943208 -1.3271869967955465 -0.4159304437250127
Ni 6.576242549409142 4.150588574171903 4.458134651058524 1.7311091032057735 0.5989546793714653 -0.5994894688290127
Ni 4.469815468043697 4.693032602519363 12.069146273676893 0.12375105180743205 -0.02297794895241204 1.2861437057009917
Ni 6.400409861194086 6.848983236474554 7.880354742098668 -0.6288314123262396 0.9592929876534704 2.0233391458556316
Ni 5.807331056189794 7.612866440790343 5.6619338691521355 0.5354864836144907 -4.573763952856568 -0.448706352604453
Ni 6.90836890265968 8.50201237806827 12.560072102234187 -0.25429033018129105 0.6979550065967786 1.4313596122504189
Ni 2.4885307370331224 6.824943755823286 2.1840636768323822 0.275168716292197 -0.6406384322634967 1.7277826099357017
Ni 1.5887355691122995 1.7363616864245193 2.9660042722383 1.6319419113852927 -1.065517857651681 -0.871769807829821
Ni 2.0619595982809336 8.078265600486588 8.812668956322673 0.9935292831285211 0.9489787502116559 0.5249475317563799
Ni 8.340736725132025 6.119409075230009 0.7094091485071791 2.052678261139381 0.7391934444212753 -0.64792699550511
Ni 1.8969243039177182 4.36152668270628 7.599979019672327 -1.3542871954464482 0.754466568530262 -0.5050978440203043
Ni 8.002822746532088 1.563084813563758 8.553111090773111 -1.6490392331872117 0.11258860743270933 0.9563061371110047
Ni 4.969125482187147 0.6106222549633936 11.592451521338731 0.20559286497558785 -0.7332351699553115 1.6173331603331824
Ni 5.635859922438046 1.7624754520010126 8.039443135662868 -1.42124489241392 -2.6062959071369436 -0.477660573744958
Ni 4.29476989687616 8.592632700739038 2.026792134617866 0.2656661761184005 -0.0997937696608862 0.4437904033600744
Ni 6.948159984461876 9.063282394152258 4.046225187851463 -1.4825808723192402 1.8042261349064217 0.013997599830672667
Ni 8.182905866803743 1.7048121831198688 5.3895811844901464 -0.2405812081253147 0.6061126305724851 -0.6948236600566485
P 4.559741275672537 8.616468456978007 -0.15913376854693898 0.7676355018120522 0.07016951903655012 -0.344254258235949
P 2.306169607423943 5.3661380607548805 5.758391822255322 -0.030410236860741176 1.973909173359278 0.4738990498199967
P 2.096157518945469 8.695069039323142 3.532963755545763 -0.29794483364644814 -0.5659334872504382 -1.050316210210578
P 8.962633274276051 5.211992762249095 3.3356687004950194 -1.0967685881358467 0.5297835196924424 -1.3703105674578981
P 8.708005539504121 3.1495516335390925 6.998662340250713 0.8340380976070024 -0.2023807857961934 -0.9184327591039989
P 4.124261823982551 3.1252158264699346 4.51264574766937 1.7382554844425675 -1.6503762068310803 -0.3064024774954981
P 8.514217322405086 2.708099352488526 0.06861160400209693 -0.25059719760042004 0.09451272376760496 -0.09445590238774054
P 8.549961696562981 8.246856811864475 0.710712984745892 -0.0519257423350138 1.2380669047984225 -0.000666944160037561
Ni 3.7175260348278263 6.608208761738949 13.755996445772391 -1.0203309767023976 -1.1040751490995888 -0.7404797673328667
Ni 5.414022557845677 6.893163653341736 11.794855429037897 -0.5555338891836691 1.4042383305535946 -1.1994738750165728
Ni 7.984570891230219 6.979561324557581 10.769119681474013 -1.3527944129510057 -0.3573455442022684 0.12547806180086776
Ni 8.777123676476798 0.683262046208673 2.474591357131599 -0.8265836982114861 -0.05837664016668011 0.9198638351235706
Ni 6.814813096411696 5.428496251319458 2.1823829504309167 0.16692861563617056 2.11600736021533 2.8684036764801246
Ni 4.341719113710494 8.63186817050769 7.370889066002119 -0.4824204570274466 1.377861897442595 1.3622820407264666
Ni 1.587244676822294 2.255386667558166 5.57028659023937 -0.5078538094988867 -0.4822278814006663 0.8468396202470447
Ni 0.5608264524772105 3.9890165948177683 1.339179646186556 -2.092849691151944 -0.3710340974329545 1.8107755059891653
Ni 4.345876943761502 2.5597972405354965 0.15238493437951045 1.080945247950345 0.8491312444946988 -0.7238403590039727
Ni 5.968541887722126 6.902905384329846 0.5674141591549118 0.6874988442604613 0.1777449895253842 0.7770891910257843
Ni 4.60370870792686 4.899979564612793 3.294304310617842 -0.3192916747533404 0.8079249454597182 0.300889775207385
Ni 4.6275074233635936 4.94015031463791 5.863944218327542 0.10993291497741713 1.0613809526651723 -1.044445610362414
Ni 7.842287909640566 4.581530527587959 9.79541422279121 -0.8289316296183724 0.9584278114396978 2.103640611119861
Ni 2.3590638730171807 3.973126090658455 4.154203756470152 -0.3494010925442112 1.903093021877664 -0.9756578021647392
Ni 6.695106483784983 3.723693328400147 7.706304642491228 -0.5437541229399215 0.9057595345117047 -0.0035985159845357386
Ni 3.4960590782578196 0.7183044971641931 4.406835918021608 0.7420846499261413 0.7217937608875892 1.7668685201935699
Ni 0.11139558262497469 4.961726581940474 5.502737131241394 0.30415636177379873 0.21233378324384722 0.6989893613985639
Ni 2.316253965832738 8.09099837625527 6.0892939769919545 -0.5665718921653855 1.9558410030036573 -0.029400307538988077
Ni 3.769142392743917 2.6154880866975643 11.282434822942957 -1.020703529550468 0.02350836753458532 -0.9769505528342338
Ni 8.489149959491764 7.513671172401904 3.1099939087909845 -3.3684559876567213 -0.8155719204820148 -3.3547900601338543
Ni 9.546248154309003 3.2563587867870627 3.9624657477748886 -3.6547565521960217 -1.019367584347864 -1.5588382494210833
Ni 8.945483382840708 -0.08116010177965237 11.85199642260751 -0.3746542106840451 0.781873242677989 -0.4782197886825377
Ni 2.833667672069112 4.031446833779291 1.6905496222188352 0.6242245096818475 -0.3476064625376336 0.034300315943766736
Ni 8.539006879301636 8.340116291694569 8.57682924246498 -0.6361716547413947 -2.5118574882507003 2.29542356679555
P 1.6093765561584004 8.823285776263614 11.167679639555162 0.9744810082478186 -0.9085491814416997 -2.338184097691528
P -0.2976135857669946 8.854640815356523 4.671299837827351 1.3505182153223192 0.823542340282001 0.2059422778952066
P 5.7797634391255315 7.3577942163915795 3.3806519767506686 -0.4479849010573962 -1.0462153006683272 -1.256874524423229
P 0.039527166086263305 6.260404888941956 9.222098537820024 1.334296097036502 0.5330449640525335 1.141691673900782
P 4.7929409063508475 4.814554214455648 1.132942015455947 0.2965312411283732 0.5810657149061863 -1.4937093781322341
P 1.7787085835810101 5.377102138216784 13.889495201111739 -0.3251175374064981 1.916808571691544 -1.3713971156538576
P 7.14793955132261 2.1337261526134954 3.41777426875175 0.7520448464626467 -0.8029071805301528 0.035756845884635194
P 2.228661728744776 0.9411975246202919 7.128936693755404 0.1923992491034493 -0.841901302405163 1.148159541013313
