# total energy = -381173.07662676973 ev
CRYSTAL
PRIMVEC
9.20178241899214 0.00000000000000 0.00000000000000

0.00000000000000 9.20178241899214 0.00000000000000

0.00000000000000 0.00000000000000 13.46773870061434

PRIMCOORD
 96 1
Ni 5.513156009170302 1.2976169744987445 5.559388525338266 -0.07364256518681511 -0.8454571380772212 -1.1562639152880023
Ni 5.478419279967415 8.8567065221324 13.350946386758473 -0.6542357113319571 -0.2736016289153933 -0.5518042469379079
Ni 5.609811533288746 2.773224029254826 7.335715355561336 1.444308716211919 1.5851257223627022 0.19023540868291108
Ni 6.460516331913099 1.4915629457329842 11.864175729388101 -0.47492003488534335 1.0444160426760594 0.6675704807676504
Ni 7.030548358578122 7.750118553793111 6.9846655101478285 -0.7329657183440087 -1.4291340653540097 -0.3027746509349237
Ni 8.633544891237456 6.89758260043727 10.206674278030103 0.5644437900787892 -0.3461900418060812 1.940947887941909
Ni 5.193329652374341 7.619388828816842 8.855159702482334 0.8861541015759513 -1.0358727810917385 -1.8332767724154748
Ni 0.0005613087367883774 8.83983965468104 7.383041043498653 1.1984351493394134 -2.043480396690197 0.6639557668331985
Ni 3.1030067147918534 0.9732541388956246 9.724609452380648 -1.417507793968991 1.2808734584409878 0.7420478831509348
Ni 8.057881373639407 7.2118418787781975 3.4200108848735034 0.08200482110858136 -0.3234715171626429 -0.00981930008326696
Ni 7.585645892131546 8.512486239742572 9.062117914449237 -1.123863901690742 -0.1334248274517702 0.24802917976292768
Ni 1.0836387226089585 7.927979809094464 11.592436968126277 0.08967005096332298 -1.3505511254427836 -1.237753487323062
Ni 4.368509468120246 4.033803828908108 2.6398386698287672 0.816682122827058 0.20534115397609798 0.13178034986981177
Ni 6.045939219990745 4.096928057340374 11.887515130699413 1.0256055948377756 -0.363614922150748 0.08483997656453132
Ni 2.5740606473032255 1.8434759183515859 13.105631464325526 1.1652110971789609 0.464088234377162 -0.19912139831863127
Ni 6.204136265939366 5.321188421188677 9.807907668920043 -0.13070819985155555 0.41581500119307097 -0.04640584095804911
Ni 1.4769597167939161 3.6783941789127916 3.2710312645255546 0.7370997951170402 -0.13371124834393747 -0.3467240599326803
Ni 3.2063059259260553 8.972391332606229 1.097514090546716 1.3474154080272795 0.6868316429901075 -0.1824421378907374
Ni 2.96453829067396 8.97548313154985 7.7187653200413235 -1.4054158958014633 -1.130716662946517 -1.2839376991886082
Ni 6.508071144236416 0.890704027279195 1.5109188953696129 0.7245682383089328 0.8447120323810807 -0.6576339383802287
Ni 2.7946549808610577 5.753561780601993 2.6637973511070605 -0.7632049768445244 0.8431634569470382 0.4057956692838559
Ni 8.840437770548109 2.0118685393880993 10.481698995847783 1.1208068600319727 -0.1598819932020343 1.4842598026835598
Ni 8.702300610602746 4.263452716515117 1.282368700601498 1.8152294279954606 0.33908042734449345 -0.09619576789698273
Ni 8.01126514313826 -0.3052672964132305 11.318435488530417 -0.2677150882276293 0.1718983009366201 0.7483046626939241
P 7.463418614250235 3.598982795331092 8.767982934589556 -0.12476766599740448 0.20263686767105746 0.13471295013557444
Ni 8.161291006164452 1.5619749859609295 5.325009001311867 -0.04781377704916927 0.6191329540915531 -1.1866908643192917
P 7.146665652832755 5.802137990790614 5.392576770547331 0.06749942840355472 0.17838416577127988 0.45284557158380717
Ni 9.04179117675144 9.03928829189232 1.924418478552984 -0.7989654222735854 0.2163210500263694 0.5137915151395603
P 7.369652449858864 3.111545969017093 13.301681883233595 1.500547741210306 -0.4036220586713049 -0.46263864641482905
P 1.9103912812028168 7.068404492072341 8.285379804659737 -1.0833926810495726 -0.565323107359949 -0.5888687558903729
P 4.432682699765527 2.626648834692497 12.350212964573158 0.40900312047756004 0.6749827140713214 -2.3131736916901193
Ni 6.926255354926328 1.5163709515425163 9.468224785515627 -1.0071206486597106 1.0724904323147724 0.2520241598549337
Ni 8.300311537236565 3.4775744760985368 6.666813855891455 -1.2379740879743002 1.5487813794057135 1.6288825557336788
Ni 3.458103504179779 0.3473249638290495 4.6230031686670685 0.08622194451372248 0.5631960337146171 0.7807902940264554
Ni 0.6434981385280514 9.163714795807934 9.465059372311444 1.2721695029090863 -0.154818719746514 1.9144601260640253
Ni 3.648580403385016 6.861649639500242 13.327566497603852 -0.3569223406219208 0.467331166794492 -0.15924975893467413
Ni 0.8016620580594176 3.673581646628524 9.242815159138758 -1.5827898751406742 1.2728135642509886 0.45558431067120897
Ni 4.031659813569227 5.185636962145569 11.282935011374194 0.5263513540824419 1.525239330419715 -0.6961464926331301
Ni 3.594262280872527 1.681598159374846 2.6751643131161535 -1.118479240340061 -0.324667337242957 1.2879169955513303
Ni 7.259599130318062 0.8667867540224679 7.281387111088021 -0.802567794912863 0.5748032789362424 -0.09493978400269457
Ni 3.331763029489543 8.985641899507463 11.923689178339782 -0.3766424447586675 0.11392969484163605 1.0818032250752658
Ni 1.304969198772415 1.0957206631237641 3.624626322998007 0.10030439074871758 -0.05838743879995751 1.402333657331714
Ni 6.627795537258606 5.3066496047276015 3.251920082305296 -0.46697095524159576 0.2019915207775747 -0.33973682998156973
Ni 1.07727108907031 3.007814274102087 5.5951181268804895 0.9418051152813521 -0.1098930628784172 -0.4339777881450268
Ni 4.632913488495284 2.400579440505336 0.9168969013655575 0.7918218692502685 -0.13613914105913974 -0.7659421732700292
Ni 1.2562641636278105 1.8495767001956955 1.4391624747081466 -0.7584520355405712 0.5481874761209268 0.8648288577356137
Ni 8.620699202769314 2.4445915665390863 3.121431444032367 -0.3616171749944288 -1.2855688070341278 -0.9084735910087579
Ni 2.587817312245826 3.3353517246919604 10.890229616443191 -0.6562697110428504 -0.9135831443211814 1.0471534962118805
Ni 4.9279134359165715 5.285825970771009 5.083573550410558 -0.14790605178708074 0.9122770239152482 -1.3188831049155414
Ni 1.5140797076825114 5.53261777930649 10.448662756063886 -0.11799383760868065 1.2762904670559956 -0.6160967383683906
Ni 0.531976214489028 3.114941426785534 12.708280089374776 -0.16929248788265683 0.6240877269936672 -0.3748681264670641
Ni 3.9598767077383075 4.324488140303925 6.96026238277139 -1.2984112102144347 -1.2711246065843398 -0.05850622376600891
Ni 3.5195069992713996 3.253050981383186 4.716523645463812 0.38753595174271965 -0.5171527183023094 -0.0695856215086221
Ni 2.21714190496638 5.209147516612689 5.135989664465765 0.02895576380240174 0.6061725372761432 -0.7495130811797286
Ni 4.879953745160161 8.727881566148183 2.753614110419257 -0.6856268240487289 -0.5279629215439359 0.4645662024548451
Ni 1.3195448223637722 9.063323347965946 -0.030784563588942895 -0.5625910531407666 0.20536249413233668 1.0434120268915772
P 4.883386010058883 8.694920780981365 6.707566710538805 0.5736100299590895 -0.5614129736722653 -0.45871899964544866
Ni 1.4196234095983689 4.987329345973007 7.328025425867336 1.452560928918382 -1.234444734664803 1.920237909088067
P 0.9556603306212086 0.8971001863438113 6.006772752658516 1.2549796213933613 0.1153520291104594 -0.9247741279409945
Ni 1.6551798416155112 8.106301153524333 5.21843947665218 -0.4297706920422147 0.17422669195948057 0.8983429303326593
P 2.5580863527611823 2.9432453658062823 8.54278862992483 1.6299840163279733 0.060365388461934746 0.03541128961975837
P 4.8414626886685905 6.349782080462094 2.266068703070929 0.6800035643246806 0.19472249791998725 -0.5699729474271346
P 0.7104926367093868 6.298123273112422 3.5579750513065442 1.9410934123808379 -0.7309751702765411 0.5590164484156308
Ni 3.0508786165310964 2.075296426645186 6.677331493369309 0.3430391548819254 -1.130058717647544 0.15242065182798264
Ni 9.478296136538821 6.319701453239779 6.18189463728869 -2.163577396684809 1.1156955069473367 -2.295726956968582
Ni 5.137355208999199 9.16213208920584 10.477268337540183 1.7008266501721483 2.435292864321083 -0.4949126759571863
Ni 8.308786378983813 4.5375738192843915 10.741559175989604 -0.3118994960543273 -0.5627625457216243 -0.21042551047754085
Ni 6.24274694560435 3.5102500060056765 5.034348614550732 1.0796386133237792 -1.0774817148817766 -0.47549493355220684
Ni 6.246528878240743 5.056085065338297 7.431713872404262 0.3252216670845302 0.7941366334263742 -0.9467004957004405
Ni 3.113717589703684 7.772184428396693 9.888646869726635 -0.5560301120937973 -0.6140300856473488 1.1601079716244407
Ni 3.940773807122362 6.623857174318516 6.559637013582128 -0.49345331780284046 1.8631439922885524 1.6571322946079914
Ni 8.374008613842108 6.173337899676566 8.223145388602019 0.11608813594553555 -1.2561762128046237 -0.8255853388539588
Ni 0.5765202035553425 6.712847613555901 1.2643819762113302 0.13006413850965343 -0.13618207848193323 0.6162720876039902
Ni 0.12818175138255372 5.5880217121622735 12.661963836985423 -0.6596409415079285 0.6456839651072042 0.03365599749154849
Ni 7.0809281181505215 6.524450317211552 12.005828890453577 -0.5883231677995481 0.5744595224435783 -0.06144730867220385
Ni 3.588962054112034 5.709098767222298 8.713842406480675 0.23261001699438005 -0.6859754656373993 1.3993843448954029
Ni 2.204250207585388 4.183682463413175 1.0869421625516968 -0.23090074761275717 -0.20453794134851225 -1.8585000657586381
Ni 4.917073736048756 0.9984578213556798 8.302914721525703 -0.03721517559771655 -1.7661239287180617 -0.17906525099870452
Ni 6.81146311736182 3.2695589793143065 1.8875708604284698 -1.6599479096799155 0.4900728313663818 0.33144347962452597
Ni 6.039718814973222 7.902150405419629 4.885462852385 -0.8171492922714637 -0.7587227727034546 -0.04261526356736532
Ni 8.619226917558066 8.440850362432775 5.3014809634578635 -1.5149055525938748 0.000923797365850022 -1.7386966857450443
Ni 4.5726234090946685 2.989530332134898 9.686604250008788 0.8617880140267611 0.6653742444472799 0.06521217503127479
Ni 0.3319294614106785 1.8881689762955391 7.953212017080488 0.37201574461993353 -0.5109954404516619 -0.3008221551942432
Ni 6.626617709089608 7.683009953507904 1.63391912298683 0.6505976003587376 -0.04213061062146293 -0.6149577396679409
Ni 4.6187703486847305 4.801950234311717 0.2138862340640827 -1.2422416050014025 -1.0540031721438623 0.690533774432043
Ni 1.9776655135742893 8.162974932374818 2.8218416474650128 -0.35319938324437883 -0.18774220994741214 0.10093353969228423
Ni 8.695298054066747 4.261870009913025 4.416906243548746 -0.6979465219563464 2.307176336456104 0.2903389962747322
Ni 3.522782833866427 7.254022850080459 4.447384387778098 1.8688538981891363 -0.7501612562866886 -1.8192933136521892
P 8.530613751406065 7.9508646423468035 13.363228926133312 -0.46938393555846253 -0.5976187341688611 -0.17251870812943837
Ni 6.654545119190472 5.533197491608418 0.7515675537466975 0.8742576072486814 -0.3813030834591304 -0.058141127117106325
P 2.185598194315387 5.191958586771366 12.432608486242406 0.6816557552161229 -0.5431221457828775 1.2871592914496992
Ni 7.146969311657574 0.22786374178837032 3.556695083351015 0.5015119264412589 0.650156399056261 0.43929765769604345
P 5.085447953520129 7.549933773976208 11.637487055233958 -0.270273850093741 -3.0136463225024293 1.0162020421356885
P 5.780983092661491 2.0586135948452298 3.321050314221198 -0.9528883696787072 -0.4349496651399929 0.9751332971198367
P 1.5303852663970852 1.0208457583492228 11.425665701178653 -1.1620594389238568 0.10741580498251822 -1.0586365571508156
Ni 8.519838464016242 1.1025667893560682 13.3489670833276 -0.98269748262034 0.5919520228013869 -0.11265931276964469
