# total energy = -340859.5914279337 ev
CRYSTAL
PRIMVEC
9.42473603025924 0.00000000000000 0.00000000000000

0.00000000000000 9.42473603025924 0.00000000000000

0.00000000000000 0.00000000000000 13.79405384720525

PRIMCOORD
 96 1
Ni 9.183396825102612 4.766371757965364 6.920987053536882 -0.33708756528418077 1.1423570753989227 0.39358344348838026
Ni 6.603987941748352 4.3556323365668135 9.678805247671814 -1.7931464800534924 0.009679432071293008 -0.7467602010249397
Ni 8.076782018124065 9.274845038907484 7.444595228814066 0.87190736184895 0.3415414872904763 -0.29743266989672
Ni 5.628263868905851 5.726403645299763 13.78980536566656 -1.0049964032278562 -0.26017327132462936 -0.5001482133245128
Ni 2.806205731442527 0.4457457184752719 -0.005119516617417961 0.31887592737216053 0.6315356986312801 -0.4471446645442879
Ni 1.2159040461088475 1.891601071825275 1.0174077954042027 -0.5094080413598839 1.3708774957049616 1.3593270718632007
Ni 0.42483599909492675 7.528177557919202 6.295634140330142 -0.5048600169778853 -0.6235503664329584 0.7750148249952589
Ni 2.45766956791393 0.5574260131391483 9.485246616179 -0.1497551891806776 -0.9293766597100123 0.8524569664338222
Ni 4.779198823717031 2.113412234547903 13.444663992059896 2.036779330520937 -0.37656428322256436 1.295284491659995
Ni 0.32542294086188844 2.495208291564843 6.668017713463032 0.2101583728590832 -1.0923920563347056 0.9132789828172014
Ni 2.615345401878221 1.9202239951814943 7.693922850881712 -1.2098055959598841 2.4887733527377267 -1.2303721072573262
Ni 0.4753422170645164 8.107893071795083 8.963224623977498 -0.7228687391193228 0.8310440479756849 -0.7231654444241352
Ni 8.331249891228419 3.76031888454324 4.163845555449687 -1.2428450429133562 -3.4618677650506635 -1.9875259928117643
Ni 6.5221529587052 7.764681884129596 11.248940825298774 1.354828412661899 0.37833680174195483 1.0244696814611194
Ni 2.9224410010349713 8.062013456747971 8.045423093895172 -1.5195373949389315 -0.1788179108745888 -0.6265942954656047
Ni 8.107695152338223 5.768579339082799 10.726490950081018 1.4505125310297857 -0.29846831025008597 -0.5493336739102281
Ni 4.749247012579045 7.932206567256628 12.947567599265769 -1.1281059647965475 0.21428859297737288 0.5826068341410612
Ni 7.7912690645009794 6.017590290019471 2.6337396592092492 -0.41991822472816714 -0.30661253662377513 1.7146172761983374
Ni 1.4281114028057968 2.5101370734536315 10.497633854694211 0.5449424868210679 -0.2679349175479192 1.2820744207276242
Ni 2.934457539487121 6.339982235770605 1.1830107748524954 0.047655911315066316 -0.5651796398035492 0.9126675744854474
Ni 1.8562111879916878 7.187982285786803 3.4148834591721 -0.9586090742125684 -1.1534686119310522 0.7230348323835418
Ni 0.38032108582653845 0.5855334034339302 2.8188565546302295 0.025927775609355348 0.12186591896957723 -1.8908211464888465
Ni 3.9782093570728527 3.8611729849169323 1.102655475367765 -0.3916245199897965 -0.6092655743791702 -1.4078098499549367
Ni 4.303438148372298 0.4173329667327647 8.084901428223302 3.203223014555419 0.5007398241619246 -1.522649715315668
P 4.445798786270124 4.160813617865329 12.70200610172007 0.44100487019513723 0.5968859697678945 -1.04474874342513
P 6.341329973024454 9.366199005351948 13.099509423822775 -0.04671385911677116 1.2199691667564472 -0.3957606536453571
P 2.1696402097679246 3.8831231951561924 6.337471486089309 -0.619928710519971 -1.5154470269196418 0.19863006050450954
P 8.242384055098753 8.95066239330858 10.155375507842459 -0.18858116090893975 -0.4641013470032846 0.42156758740613204
P 8.176853865406363 3.3521806902919793 10.546933706450567 -0.6139069298059234 -1.8579177108926068 1.2451178981079332
P 3.84067418402797 7.812182553775742 6.208675870775155 2.108110731076073 -3.2203190508057573 0.5309178904072018
P 7.421913659058031 6.105391130976513 12.64612684173356 -0.10187996276595357 -0.2768607592826393 -1.3595147623939747
P 7.581945677032547 3.260355487045471 6.442070976565656 0.3671453039015096 0.8218456693058684 -0.6263346140463149
Ni 4.82724612805355 5.450682992423175 2.424415329267212 0.1765370852602121 1.1778807222268295 1.1564924863590405
Ni 5.610045854138787 2.5129550695298613 11.008855099392838 0.5633968368715135 -0.1429235109708248 -0.08430801532046125
Ni 3.9266089272489144 4.197739733673583 10.468501053118178 -0.938915452438383 -1.5185300367203396 -0.2995882827871421
Ni 0.47954282191794645 9.337302764650543 4.829118823104877 0.24958238318266052 -0.6760366092571325 1.6825391647168702
Ni 3.762797590121997 5.943474165793818 4.985267849830541 1.0806212889520228 -0.4566780579560199 0.4134963803622234
Ni 5.15577357696731 8.787341142455789 1.595503197154653 -0.458463689101533 1.8673793705261388 0.128263852076121
Ni 7.708472758381657 5.611732881890108 5.011614699432882 -0.3496204076438688 2.3887237583122922 2.05212444551844
Ni 8.007632729791966 5.122164968245454 0.6010634834821286 2.4975806666167113 0.5909500638994338 -0.5799102611455045
Ni 2.086334967902392 6.679894765821777 9.681618531380025 1.9808799482501565 0.4961843435807583 0.8310453335272655
Ni 2.699197278434126 8.815756721619108 1.9398849370364197 -0.668233825383262 0.11793290246375818 0.8515331690679722
Ni 2.2777702063651932 4.47387507493597 8.750988993072426 0.8080997804746857 -0.7784626743345432 -0.4551693346209774
Ni 8.94847585454709 4.13010782784407 12.440967302647998 2.213491507906433 0.21997638739076952 -0.8545470161936316
Ni 3.6832716674088664 8.236201428255923 4.172866912788039 1.4961472981497652 1.7468164866387013 -1.4853597206159581
Ni 6.647775265394383 2.2520218275014487 8.047175152325176 -0.22894208122448959 -1.89908930003491 0.777192806483184
Ni 7.889022426717216 8.664631079203245 2.2559764467442114 -0.7486643600261881 -0.022488410910503204 0.6837679164631192
Ni 2.075260903054332 5.844891426805982 6.875453326302472 0.41342361814275896 1.760848025031103 0.16322596997360278
Ni 4.6092519834274865 2.9766992064224436 3.3298016545628575 0.47996351084652183 -0.4542781902652757 0.4843079038581465
Ni 1.5580596633377535 9.420796501236893 11.535553645617833 -0.892919702434559 -0.6371954680202188 0.15665551584493667
Ni 2.830615797788463 0.08415723800363024 5.949789681414826 -1.84140068707419 2.986695247834882 -0.030687916002160052
Ni 0.19706746072084427 3.679200181439196 9.08356342364215 -1.2051837809171568 0.9309941407087772 -1.3117367236787474
Ni 2.3287768778185547 3.0977222419236665 2.588702615564195 0.08942322505983955 -0.6804967019110151 1.1573890300313812
Ni 6.203851348395816 7.2577253324894775 6.134726564377425 -0.9955578835227757 1.0178521761446018 1.330275148802567
Ni 2.765707640674771 2.7936331335639633 12.505027233518009 -1.8086828851261947 1.4526660870376789 0.43106138582918013
Ni 2.842349594159386 5.961041873774059 12.320973448322441 -0.5778875742885209 -2.585194349271638 -0.5340782904130544
P 3.439312374990118 8.3241719144617 11.17998380158191 -0.39600567977662765 -0.8921182895791862 -0.17947817016640702
P 3.155307379133577 1.2689935842272484 3.9982614254734763 -0.09142611442248125 -0.2433122339032326 -0.42829873548237846
P 2.7228439411607486 5.114757125717306 3.3225050239199914 -0.3922732093173889 -0.030461916034283026 -1.3170205977855058
P 5.453180547474014 1.772821123501787 1.6212148195478377 0.7040914585118196 -0.2591422589569537 1.6705992187461742
P 1.140883147223268 5.56702193411207 13.76442455150841 -0.18768076058185743 0.9059053160609495 -0.7816356727458861
P 4.122907329508822 2.0610484011046517 9.440926794946657 -0.10309429478902891 0.4570547245691483 0.6541004713056736
P 5.62585113647938 6.205481827730893 8.711676534098617 -1.1266108683082598 -2.321710525516537 -0.46924072511237896
P 1.0136209364629682 0.31089942262285847 7.302875472967022 -0.3714516445863474 -0.5404749379680176 0.18533642871939693
Ni 9.303533935415992 7.652339030522044 11.892171520301504 0.30117979564397807 -0.7802897002409529 -0.7029054086235185
Ni 6.799909354566623 3.6006544312743194 12.83994653841471 -1.487261051403729 0.213391020863768 -0.3767226631772996
Ni 5.472397584261413 2.675013405753171 5.6551347338320666 0.8623608558110956 -0.3530854833743338 -0.06746728961403865
Ni 0.19738318937821447 7.121528471962403 1.772453558796192 0.8466007647633613 0.7435684335605194 -1.1406578333196289
Ni 8.152227030131487 1.9248986642577817 0.14077351234853666 0.38732177884938457 0.36301868332764575 0.14358634136580434
Ni 6.5034542824000505 3.8539819113177236 1.5663289267400409 -0.8426019280166134 -1.888117888625071 1.1731938582741215
Ni 7.18533393495931 7.505944605598714 8.837201766006576 0.10800124517234302 1.8184186243567197 -0.09053985516278601
Ni 5.7966839019567695 4.262525369218744 7.471494367948404 -0.6559706917451928 1.882791077095519 -0.832242182048844
Ni 5.945707828235512 7.282286194612068 3.7987444758556013 -0.27915084086839664 0.12875236167676535 -0.3762297827012811
Ni 2.0764107208513223 7.664280171085866 13.342187894613565 -1.4267195423752461 1.9061150965334397 0.4996183089629719
Ni 4.6805689610489924 6.186189393055167 11.143195286919854 1.7119196747615162 1.1551503705088493 -0.7176074907203834
Ni 6.157585319171029 0.40416095564200005 9.844691911674937 1.0410329851364395 0.9981665247902165 -0.22664968564588708
Ni 8.768802686663335 1.3541178001486753 9.270210896196174 0.27368853220224476 1.0107273921743625 0.20577695596193593
Ni 4.874011668288506 8.02740582600578 9.507702934743655 -1.7862649224423108 -0.6471443517028145 0.14606514192360007
Ni 5.7217384009595165 0.5004591386135202 4.061410926841936 -0.006903669098368756 0.1809249299152626 0.021954649894220257
Ni 8.365028145199012 0.363274565749359 12.108586079167111 -0.26735102001999117 0.662505407539917 0.6104405685238777
Ni 0.4177401153297316 9.154632530705781 0.5462360240377853 -0.30240415496938244 0.382829804516302 -0.6717053288716304
Ni 7.819675218928259 7.827488325106167 13.77257694818379 -0.15974315363132488 0.5398684147322702 0.6848596068654011
Ni 7.569307106001697 1.657726246970292 2.4882952476788414 -0.331921447702209 -0.022732922821141494 0.6580175469718925
Ni 0.8719501892433376 2.282803015411035 4.396247294061477 1.2334530601754952 0.32222890300479345 -0.3707579609534324
Ni 3.842408335459496 0.9870714550357473 11.859809804157859 0.6465373142464349 -2.359025202806595 -3.5700199339785743
Ni 0.8616913640628159 4.887715234491977 1.9305054397285144 0.4513049665695647 -0.2531387330753511 1.2536521608311892
Ni 0.6740967055366821 4.906140593451941 4.645892529733701 2.5905576704660804 1.575233660059971 0.3760822013798233
Ni 8.112643138759697 1.5299456757277428 5.081370940766014 -1.4212261233608425 -0.704475838434432 0.1875828015514124
P 8.718427472524715 6.19248511673049 8.690005296046165 2.1445324642382166 -1.6046542793139331 -2.0128523873916944
P 9.158138532512996 7.11846543274911 4.163679680095368 0.08411672524526158 0.4935299366770468 -0.0874830706143332
P 0.8739793349129438 1.5300493478241926 12.849561654123638 -0.9356730342416855 0.2282445409368327 -1.439713897752385
P 6.258609064793458 7.066582260843944 1.520104366353833 0.4684681086124125 -0.290564482021977 1.1879278220501865
P 5.964321681916293 4.733177837629307 4.08412925306853 0.0872958943041916 -0.3527062456580442 0.5349049000794078
P 6.345175265329143 0.2116343327456624 6.314462877992655 -0.7508554541402359 0.4186128756531823 -1.0262092898600454
P 1.1871774506561783 5.1848488876534935 10.700958397672611 -0.6796567225082231 -1.6988438154141647 1.020795575043642
P 8.860147228371757 3.3511533940635205 1.889661461148057 -0.7923841695116418 -1.2599889016824943 0.13842536599015515
