# total energy = -340891.1690500443 ev
CRYSTAL
PRIMVEC
9.09290533145260 0.00000000000000 0.00000000000000

0.00000000000000 9.09290533145260 0.00000000000000

0.00000000000000 0.00000000000000 13.30838607753799

PRIMCOORD
 96 1
Ni 6.533107056372856 2.1977825182557833 11.369221541807228 -0.22532531040750872 -1.1440771434138233 -0.04911295547656703
Ni 4.859312305736869 0.2310361780236499 5.672912748083309 -1.5209692422894516 -0.1003414146342401 0.8785819456556482
Ni 2.7001655426023246 1.5500039362748315 4.645465356115476 1.3241420393216357 0.7919116007505974 0.7310926696910118
Ni 3.3728314067124434 4.464625653161558 4.579549066159043 0.09831024313682424 -1.1894542859970416 1.1410069891289316
Ni 3.5790494086881033 2.755068505516432 2.6632210678888404 0.5266827692799317 0.17957227254211008 -0.3268810570648241
Ni 5.244169527555282 4.491231494414733 2.4987695083698496 0.5829626748185831 -0.16670467255082258 -0.2456046294818351
Ni 5.005671711345592 5.14806661019205 11.178272346609537 0.792598599515293 -1.4790175804480141 0.8763507423322844
Ni 5.898940553802705 7.526079606738743 12.316472235859603 -2.145091164955164 2.3691700045500808 -0.56246995418187
Ni 1.7350718402481375 6.614561303107631 0.3231009360907321 1.5430503904592072 -0.4167598816048435 -2.567131064012024
Ni 2.971997950074539 1.6141998485261722 0.22559134625932936 -0.09185780264326115 -0.34812582537621334 0.47347276091585555
Ni 8.20806569890235 -0.0875210332296892 6.852568102424748 -0.7624202761596999 0.8116016229803571 -0.07058320953520102
Ni 8.7811824344958 2.499739721377954 1.236503289724463 0.5020847682255933 0.12857958354432694 -0.34755169804029823
Ni 6.880737923409826 1.0378551315093187 4.8251420764664275 0.9929896085749673 -0.304298800888934 -0.6995452339020339
Ni 1.0506124778108246 7.476195927615393 2.2569291401284883 -1.6882218169239442 0.2609173485795055 1.9369225688325997
Ni 7.541091993583923 3.6073556232544526 3.85251126481123 1.8771379925747995 0.5692170430977164 -2.0022021067667
Ni 7.793729277718662 3.921224532474252 12.365553920725082 0.614248115195426 0.18718376634078088 0.49641702841685476
Ni 8.230561546906575 7.3672811065181465 9.003096609804077 -0.6723655881634485 -0.8477760160183851 -0.1901986419077047
Ni 7.081027351052926 0.6933558610983203 0.18962435887828424 0.3462111248520037 -0.3565945249688568 0.4367406956021446
Ni 2.0749646447743584 6.614033914593384 9.161945121004473 -1.050266073698933 0.2316152571812785 -0.7309342897362767
Ni 0.1729297845307684 5.074914186103943 1.3539681697862895 0.11554434762692359 -0.5915658431065619 -0.15417980061093448
Ni 6.561013183100811 2.2631786940223053 6.93959175372807 0.569668014592206 0.09813875055596646 0.17315531327217276
Ni 3.6838633294418153 4.4208796851953815 0.4749697330922434 -0.03535806778431975 0.2688499731630209 -1.6105601032754069
Ni 5.927483183909923 5.621616031457996 4.586016849782893 -0.28016719794805295 1.2463551129491437 0.10856637364719368
Ni 5.467100289689295 2.7403016271175398 9.193233808547939 -0.752459308292246 0.20446157958462208 -0.7833907077637798
P 0.14521460881659182 5.7234929437616815 12.158674864525532 1.4871888034048968 -0.4765938230433404 0.7341211721046905
P 3.892718273988706 6.410389204851028 12.505783798791505 0.4680755011596842 0.4120154249413227 1.6972085938035868
P 2.427933047291716 8.577510446037191 1.1304172715027676 1.749115824195839 1.3558571110367295 -0.5621251692479415
P 6.598612347004393 7.934632940076562 5.4865554701217265 -0.09437645530005682 -0.1939766208928982 1.1429977943067156
P 5.155331841621061 1.0002923392274081 12.605823034910207 -1.646220275681178 -0.15048332559595373 -0.6750390212305536
P 3.9968865984577366 6.164417020387711 8.22149501091425 -0.3200534926200294 1.8955249797224194 -1.9231046891129011
P 4.801526891805244 1.2263328750143885 3.7432500040175563 0.48505712331934525 0.12563361354212557 -1.444428786729551
P 0.4856420761813933 5.774485957346033 3.4878348372776076 -0.6524873611822827 -0.5342999195055572 -1.5363860910651541
Ni 0.7858707179835953 0.24908832315007862 4.518582953912189 -0.7776710316711832 -1.0776637489855956 0.5529820692960927
Ni 1.9233131682123383 6.968211673531341 4.583767264982471 0.6239527440776996 -0.9626955855771163 0.5582397181506064
Ni 5.994779776908814 5.871470886534815 9.040879450397103 0.674834104308599 0.8318632014428706 0.9893576682493348
Ni 8.780164029088981 2.561716964707294 10.297842686602692 0.13477954170745174 0.09272323596734998 -0.9573934566379125
Ni 2.3836142262842044 5.190266784237159 6.851982519315826 -0.19451835232898113 0.44207650599276127 0.3226690758660056
Ni 0.4271610549852887 0.08157881953900206 9.110508373635723 0.5305265685060541 1.38741765945183 -0.012219681994643471
Ni 1.8471691782416968 1.418193179334968 11.321830228058962 -1.0061659980559254 0.5252545214738373 0.23646538618472823
Ni 4.532158661701318 6.798256178362813 1.6331922000728263 -0.2940827795878806 -0.015314518869883305 -0.7532964594815607
Ni 5.789780224259171 8.253357460789593 7.790156675179915 0.10217486829855307 -0.9185055213234633 -0.36632846442716915
Ni 5.604066724001185 3.128577781373135 4.785802530465833 -3.2489547122645783 -0.8667841816897718 -0.14826909155345433
Ni 0.9676942733037457 7.618399875448073 6.847470619647395 -0.07180139821301827 -0.35165055070002016 0.2436063681048837
Ni 5.346546549656961 4.759954128233979 7.14794749776751 -0.6868478409400236 -1.276147256609912 -0.9798962657261188
Ni 0.7057485818925627 7.615735654160589 11.082319462185701 0.4089131318669151 -0.07645020983893931 0.2775603564528252
Ni 4.611039616202788 0.5204415345067626 10.355361678405567 1.0431045229534874 -0.01807305545162694 -0.35807136662469946
Ni 8.502393954378787 7.41645553901889 4.656417760691501 -0.31639969791752603 -0.5493326454689637 0.04384502220940836
Ni 7.168592030228621 6.2918268111052456 6.8819390962155484 1.365973630645441 0.5191350388396608 -0.7519646280440146
Ni 2.72260683317404 5.159250883856236 2.392208840485333 -1.6388445520423967 0.7692285573307849 0.5172434782439028
Ni 2.4063101182076245 5.509154977247715 11.313126498992817 -0.8114537845485833 -0.2928033986548248 -0.2502403284816335
Ni 0.9866075165732625 3.497986156886304 3.4676194899522277 0.48888163927175804 -0.2845136478422068 -0.45904758662946105
Ni 1.73566287910031 1.1931255844277175 2.4939120782955344 -1.376698730372429 0.07640855796772647 -1.4950635781672832
Ni 1.1847146469160332 3.450002894995323 8.33409700515851 -0.39387269259402485 0.31262197604264863 -0.8183805935754035
Ni 3.860356623605912 2.881496262448817 6.786718190677865 1.47271529237907 -0.8010809259546913 0.936800205867593
Ni 4.237303017710634 6.815578163184173 6.031959757872626 -0.2382582164190929 0.48801363484450794 0.13697860624129957
Ni 0.5662552291649998 9.047422705135924 0.12608131723595847 0.42516918871446135 1.3482690142768263 -0.3803062667634999
P 0.3096743519504588 5.868833943963584 7.875330829521208 0.15591658079638307 -1.3208787951893315 0.014886173083213073
P 8.579210819350365 1.993910485877977 8.01690554829896 0.06324733799542011 -0.903364809027283 -0.4536001903616446
P 2.0437305146634013 3.4938034203940074 10.35328576809863 -0.20551907431485894 0.031056869305804573 0.46469810004701906
P 3.9563777048203823 6.330698981767353 3.8085006932973897 0.4086477940206704 0.8604232724687503 -0.853887785343078
P 6.778406365835239 4.045970101904301 10.21325502466086 1.0344622738974572 1.0730445050460293 1.08753832778683
P 6.334317958123732 7.9589655549752285 9.953475263320255 -0.21578240391408 -0.2711462253963653 1.1318350928216765
P 2.4989668244174212 8.732744527333919 5.718800095275434 0.8445901620912358 0.11839235859867996 0.4935924144838661
P 7.178103209295887 4.205023203476602 1.3979132723811203 -0.16132643895804474 -1.489496368492151 0.4732444469551334
Ni 5.541407512765492 2.8767588587260198 0.38258672333552984 -0.06950771708283514 0.660535685408056 -0.02816952045568052
Ni 1.626157019150891 1.2355985456353682 7.216326146511149 -0.34035929405691706 0.2482248407135015 -0.8138418251647855
Ni 6.9826330215243475 0.8590476929163313 9.12160808327952 0.3381152352177467 -0.23431388705936418 0.03477005649133367
Ni 3.107327661411183 2.001721291632071 9.224707991361932 -0.12745292613905146 -1.031100813624392 -1.0142336055554082
Ni 6.660116759251996 1.820417850501832 2.2116810241872527 -0.548123712762527 0.7155848038634 1.948658112101973
Ni 4.146874073328257 7.1102246703502425 10.279344079820236 0.42578419659064093 1.315043162344161 -0.2817155162717793
Ni 8.22928854014805 7.222640260033433 0.03887035208102432 0.4047374032226707 -0.01810905089588494 0.5439742093705277
Ni 7.724095808027334 4.229710441686573 8.242269571922838 0.2725353924344081 -0.5143026504480239 -0.953567655133919
Ni 3.2146694098711093 8.63611422145644 12.016833723619031 0.031015731655224008 -0.8555374051313588 1.951877390370219
Ni 0.1350250990051396 5.024184866776715 9.99610189462947 0.6663839166587169 0.17905573791700774 0.2867008853015127
Ni 9.131732124171961 2.5985068600286714 5.645736781660423 -1.2751843784760104 -1.5954433022386265 0.6989438528726092
Ni 4.006779679552562 2.868638894187713 11.701850933485522 -0.16419270476224626 0.019845573971017435 -0.9152960132472301
Ni 1.2785170592085027 3.661776662181403 12.453775107671959 -0.4437140415961842 -0.30483436167742983 0.6511876685342527
Ni 3.190091286526155 8.44439031071713 7.824080486713528 0.6971592501683607 0.0839622019452683 0.6227939478829081
Ni 5.586635624314808 8.091230957185994 3.5476034138809065 0.8638850057651059 -0.390763714651398 -0.19838194904944545
Ni 3.221498181840055 8.501357363161132 3.2318086272935664 0.023255370983514784 0.07723208231028636 0.29329499357926264
Ni 3.7232265169964975 4.436783176771528 9.275426399202656 -0.4406228042653702 -1.1389004843088901 0.23011193316287468
Ni 7.394414336285569 6.135501581158355 11.166228793383345 -0.3351798067385066 0.011635784466715444 -0.9360255324850977
Ni 8.06711657201736 8.902600000542849 2.578526109663077 -0.06361834818159366 -0.9490129458837011 -0.6743934172267546
Ni 4.754871194105297 0.33587919607469946 1.4791211013790664 -0.057084660828133946 -0.1163673577488512 -0.28231921129404924
Ni 6.337327709817102 5.669235577132255 0.08779927613548114 -0.8578046038989806 -1.539807200931561 1.2503454650554595
Ni 7.765086625651844 8.828565564629193 11.472187784179996 0.48313959458165834 0.5596363413878168 -1.3136239133991312
Ni 0.23750850810020857 4.888573275372112 5.335904213155691 -0.27609585609215676 0.9940944116033719 2.035344397846624
Ni 7.3140785169172124 6.082544500003707 2.6666009008327247 0.5668434006592172 0.28636304234611976 -0.3713516286733733
P 8.573645961234526 1.6110718890623676 3.558063892273816 0.3448492115074706 1.7172380016506361 -0.8834906958111752
P 1.8463871883757457 3.23277338455842 1.3036680355947927 0.3135977096923567 0.18375802848868353 0.5626648438014955
P 4.806209738095533 1.0562591720754255 7.767346212648228 -0.14563371081313628 1.261655233641324 1.0997418118315576
P 8.819881839954967 1.7485384331722502 12.272754455900222 -0.4454263963016006 -0.6652441466273188 1.0986694047029855
P 6.5488923401785675 7.701299894144316 1.2889666261149106 -0.6725175403602804 0.8797502549321364 0.6426814308354545
P 2.0440487663530327 3.1700596158902195 5.992819346500686 -1.6122261781239202 1.175286479137092 -0.6906163068435204
P 7.053239432095404 4.302953794828861 5.807833278676142 1.4819591795748412 -0.37797247642400067 1.8476700650226696
P 2.36723790362632 8.882568329906913 9.97112186486504 0.6843628697346407 -0.873752899698121 -0.2311851116223954
