# total energy = -381172.40661052486 ev
CRYSTAL
PRIMVEC
9.14620099923529 0.00000000000000 0.00000000000000

0.00000000000000 9.14620099923529 0.00000000000000

0.00000000000000 0.00000000000000 13.38638967454212

PRIMCOORD
 96 1
Ni 0.6313357290728602 5.50761356995223 10.266918817368184 -0.40668192854355123 -1.2654810351453172 -0.9603576814725588
Ni 3.8043074168476116 4.5175373147982825 12.186581098311539 -0.5092555749424197 0.5223993114132294 1.2413196074077653
Ni 0.0210856517194634 8.350371732475688 11.325434265150918 0.4567942718189101 -1.2695809162463039 -0.4467350878106951
Ni 8.574087808236108 4.205148820620147 0.008655964599332074 0.8331053013800879 -1.0246275471952224 0.36815523322326277
Ni 1.9119767282670885 2.947427286440148 4.570207542332278 -0.30613791098020177 -0.0661493421335635 -2.1052573207876777
Ni 7.035779120655529 6.093052747930513 11.304792204178568 0.7677758840446584 0.5006536922060216 -0.29461756904542813
Ni 7.1997430654698 1.1988931695319607 2.4034057649407488 -0.8568309271318018 0.06421844365943778 1.3989261743120616
Ni 0.44236241232239565 3.897223672516055 6.432226806273487 0.896326928343895 -0.8162586621363941 -0.4104876754428866
Ni 4.7649511972755985 2.5237386726410573 12.967047463463256 0.1464214968217543 0.48196999975358923 -0.13785612375024647
Ni 2.8938762797526065 1.1627656756949343 0.02868980320708458 -0.8016326846931032 0.5231045650103701 0.2830488903712222
Ni 3.2391545126238923 7.85910183969893 12.895229664195636 -0.36209745706495705 0.805373125572142 1.133621238187822
Ni 4.610398693260897 6.116284098397867 0.5269775759891969 0.9268976020419004 0.2327336870564379 -2.819593854066273
Ni 2.3306166391299663 0.17930761156389008 11.31058906635424 -0.7325620551476868 -0.8793080251883955 -1.4791908728010847
Ni 0.3992618548647747 0.8024346252649196 9.609727692769276 0.926130899079205 0.29704160510588845 -0.3772942194100534
Ni 8.53023177457825 3.4165999576700057 11.053182044695573 -1.2309606327709446 0.7139549815694607 0.5238717821936978
Ni 1.652727661732782 4.25027617621303 2.2648966120499785 1.7084417435152446 0.20984932625909666 -0.7106508568968922
Ni 5.0483187957714835 4.521680543838325 10.44257526550429 1.1449716302036343 0.6043676228569205 -1.2713333801610363
Ni 7.509140751930287 1.4095027393003667 10.199572595755482 -1.5708036493130755 1.1947702988933164 -1.5075601679723973
Ni 2.0022131470509117 5.0188680286435785 8.20388892157805 0.9776367802679808 -1.5207275585922906 0.07811268514302676
Ni 3.612209757845317 7.35683821335455 9.015947179505078 1.2387721583955633 0.061017934444269104 -0.03700640202102014
Ni 0.0755714001462819 6.112845126832621 12.514882152939714 -0.1973661061904214 1.5590028000234053 -0.6134112211164274
Ni 7.398590620788987 4.2226637954803765 6.78407475530253 -1.06579219435899 -0.1422804780701872 -0.1503275167443798
Ni 8.12798185585612 8.20225815394485 5.5978664518978025 0.463452400565376 0.2935024816043784 -0.8247268475084054
Ni 6.053504574930184 2.161988131820282 8.086075792245364 -1.334715701072424 0.924359666111395 0.4123735796116898
P 6.692110619155209 0.299876491249261 7.063703386841308 1.1736443155479788 -1.0451932871617162 -0.6618621175289634
Ni 0.8182429190238858 0.5532847938432321 1.34651010935005 2.076114123564818 -0.7333357000889177 0.13654666091020357
P 4.00910914899918 2.1095255230483367 4.539324480132252 -0.9392517527318792 0.6914951099040478 -0.014354726059775278
Ni 7.106012797914902 1.2716329058574973 12.33400505328913 -1.7896919458459886 0.7571124907935411 0.6296348820641414
P 3.234746043755678 5.521790181457899 9.790899300091137 0.3722270892997912 -1.722780271625104 0.848485383380584
P 1.2921112498324598 2.847925766072297 0.5675574404591003 0.32947375749266483 -0.5746868079630361 0.0632437384509943
P 7.918945432654794 3.2989981055797566 4.528816409836211 1.5660982734176059 -0.030922143500153196 0.3390459745621322
Ni 6.012465571171516 6.534302067594689 9.134618222488884 -0.8294183394468039 0.8531529640595824 0.6212847103272332
Ni 7.265275595429874 6.113274998278277 0.645219662147444 -0.8645406370712336 -0.5693314571883936 0.8302830014399444
Ni 2.646965438328717 7.63977594040478 6.694654177645355 -3.1166439438125937 0.33475737448910736 0.29160243636818817
Ni 3.821337643056357 2.2317004756242853 2.1223045950455757 0.10317245632513199 0.4512504591825454 0.32066027296609295
Ni 0.4475318451114304 6.366249770946203 7.452564181961407 -1.9011315272759195 1.2384803381867573 -0.22621439788068137
Ni 5.991282969721756 3.140320664926954 3.8017080665315404 -1.940087853934459 2.3468425446974743 -3.5626778917912056
Ni 6.8990159775301985 6.683824161075122 6.981162581554819 0.2487552592956748 0.22503786107407694 0.5327973668181017
Ni 4.752750165179752 0.41940727712437825 3.5462958313047355 -0.6424808847888741 0.011780280464379712 -1.56711411627663
Ni 2.0859283245421274 5.553454329220883 0.14903094248826776 1.1762570705804773 0.6818339326652 1.1081873714957495
Ni 7.122174135031365 4.408057289170635 9.084365335871627 -0.3934392046010321 0.5553202305109661 1.5959906901016643
Ni 2.937293295763838 3.4081214293695186 6.443954065159016 -0.41908415886264594 -0.18981503331604085 1.809525692742464
Ni 4.646837157930951 0.3290922010122011 11.746998216464352 0.5742916294071464 0.8863266225980736 -0.5194731389053698
Ni 0.3596395976365768 9.13801512152966 7.256534571161508 1.963158105490361 0.5992130752391744 -0.9376702671773721
Ni 5.255580855984358 0.4838559822693418 0.640041997777535 -0.17993659786006433 0.8746281032142227 2.025511728026918
Ni 3.7371468631146283 7.296601333756916 4.645786259439337 -0.05047923969647436 -0.489991327396169 -0.4672064682911696
Ni 6.507549429753348 1.4632732548112217 4.842339032934801 2.0478584711532344 -3.5484190678793466 2.568248208335603
Ni 0.23373116582410305 6.050742422236821 1.6346922680372802 -0.4053845498883663 0.5120182252892214 0.18245087964148576
Ni 6.434526161197697 4.259669324610657 12.422515583949652 -0.6914688846518027 -1.0029518619940017 0.9848492388560199
Ni 3.2361271201023594 0.38823702421385026 8.343174586931294 -0.09756873698510939 1.0220492449450849 -0.589972530477513
Ni 2.277806474721108 6.637837062590926 11.269251896443906 -0.43672809719665434 0.45777231946146324 0.28584033707343026
Ni 1.5789086736926203 8.132591541145704 9.106693956303104 -1.7427322892669983 -1.4800326519760898 0.39598716783386645
Ni 1.5898841148582992 3.9516435682958795 11.981876315890268 -0.5429180001918714 -0.8614010630009875 0.2877920614831624
Ni 9.072446006765702 1.476361468401294 5.129450171488279 0.797731292756168 -0.42483340264159736 -1.1584205566196888
Ni 6.8016272295867415 8.478711224506359 11.127878153408892 0.06705359911538775 -0.29075860031065404 -2.486254442970615
Ni 7.953124785684912 8.596980749267521 8.790346986344549 -1.3471084183098219 -1.515921652563215 0.29350119605279773
P 6.924872287676344 8.30854615543348 1.7459731806361956 -1.4452466546451561 -0.8006592650362404 1.4900689531661693
Ni 4.734201669609755 7.690601379202845 7.0429543153175915 1.8289961427622503 -2.7560276992788535 0.12661423228784
P 8.347362632356097 5.937119167569131 5.593222011044526 0.15961562691452508 0.32976326370862563 -0.0871439421073596
Ni 3.2681662621051704 2.2503587256059396 10.949156813327269 1.2233067157701125 0.10008558986969215 1.9114347089741404
P 5.259147874363204 2.44988309979701 10.05892140259721 0.7678962116726066 -1.2624183370595936 0.5645630892654728
P 8.198114924904807 6.487747904650269 9.355305991107674 -0.8255904810602813 0.163968247456266 -0.4889281762389774
P 3.3325555169438195 5.791694572123886 2.088678587174227 -0.20835911486681535 -0.7521739158413432 1.5924405108565607
Ni 8.391822315278068 1.8956873443370268 0.6567466192316983 -0.35208635268585814 2.641607180843728 -0.4643551148853035
Ni 6.253513697772738 7.879946031712748 13.112076028406438 -2.615246945682644 -1.483594144075103 -0.7903026043922646
Ni 7.598746082847084 6.408468634630181 3.44308644106308 0.47839925168319547 -0.675115897215076 0.21820129776821776
Ni 1.807408212561083 6.967722239227349 3.163056291301658 0.22810544425580717 0.305352696074745 0.3651760959902807
Ni 3.7884844891670917 8.003401452424693 1.7381422033644838 -1.4781837716928092 1.4924068572707265 0.8913299893499359
Ni 6.261644670436312 5.227566042408962 4.959362845123657 -1.0120934192839537 0.8457417591971756 -0.5940371874651897
Ni 5.871513468001285 8.218236567041886 4.851374564874445 1.9111290048082634 -1.7944788257116708 0.6085991444397647
Ni 3.499354784059224 2.8520324103084556 8.747577521362091 -0.20015523889978432 0.1270934859171037 -0.5421402414855825
Ni 0.39894082321067864 1.3508938834756417 12.05611694379521 0.5683716643782857 1.0304007022335737 0.09168913827588081
Ni 8.926939095511713 3.2622669624786176 8.614918278612627 0.7036649124973624 0.913438391213201 0.019936591022926956
Ni 8.760167266999222 8.231516850852357 2.9149930285553727 0.9180247250323028 1.3837466383581458 -0.25206709727772714
Ni 0.2464388974537649 2.5595369032431137 2.8285175276109884 -0.27608222924540193 -1.1323392861516046 0.41826192007166674
Ni 2.0023137552615973 5.4642148463429425 5.739896892162561 1.9618674117033954 1.2172558815903423 -0.021745876317523838
Ni 2.1567839434675555 0.5256751569708696 3.1950368976182517 0.5416787284681316 0.02733853991395292 0.6802051388125253
Ni 5.501055743855738 8.969880509072432 8.805058650607045 0.4589933363527579 0.48729732550377364 1.5281773300021164
Ni 7.733167798523736 4.245300642884589 2.2587659135388494 0.11218340157449067 -0.6120747616931911 0.5092838570771938
Ni 8.218940824516684 8.765965958415089 0.18689255602947133 2.1910483484115684 -0.8630383414940943 -0.9096740390747624
Ni 5.495659485282611 7.031727353625199 2.7826557320801024 0.16993294968013314 0.009647807502409192 0.4280485671447854
Ni 8.073616837282124 2.0028533811189098 7.117878164435099 0.36350256494259975 -1.918219850216774 -0.9844440329978014
Ni 5.158521371275872 3.337585927478089 6.038131640337456 0.9238274477570089 -1.101145891267936 -0.5989065997423492
Ni 2.40176493648648 0.8606245850851547 5.770484532071212 -0.6047430039184682 -0.2861709809399716 -0.09449086939073405
Ni 0.5101696024640568 5.019993011363061 4.161052241876741 -1.4694972996624047 -0.8353933260833161 -1.014268829668718
Ni 4.777243691381159 0.5484674897915962 6.239610557676115 -1.4267768779757428 2.5510344155604776 -0.2841513794067816
Ni 5.011953500709201 4.550500223099204 7.9358805383734365 -0.31691828942515743 1.1009327468158652 0.5997769181624445
Ni 1.2824254230037482 2.701485942319227 10.030274586534691 2.2788170685871205 0.9872956435139835 -0.013261750105912644
P 6.315406039746196 2.773841538203965 1.0296975977620493 0.04739391590293128 0.6725100841611128 0.34823252615740674
Ni 3.9204275843804943 4.586389915710974 4.109715530444375 -0.7610586199254828 0.1830653732970331 -0.3576563905744679
P 1.7054738027348404 1.847422841810954 7.6962903162070555 -0.7015280686600176 0.8271390564943238 0.1574121915053031
Ni 5.447193766335168 4.779255855594866 2.127980727368426 -0.1786245639168601 -1.4107727892380026 0.1214645697661005
P 0.982686124769058 8.46714128027754 4.638812281198645 0.7294883013183695 0.6029051793787811 1.095155735122772
P 1.1860336109661735 7.6865221735696005 0.3920884894429064 -0.31690646235061554 0.2027422829006702 -0.23580744088575514
P 4.30930575728244 5.527021808413539 6.161554134725904 -0.7656089583003266 0.773245648909978 -0.7364698748425251
Ni 4.636602559043955 7.236757740801052 11.20064624295744 1.110832008207448 -1.314995339825361 -0.5494920538649634
