# total energy = -381169.63804786635 ev
CRYSTAL
PRIMVEC
9.22396059045788 0.00000000000000 0.00000000000000

0.00000000000000 9.22396059045788 0.00000000000000

0.00000000000000 0.00000000000000 13.50019869635887

PRIMCOORD
 96 1
Ni 2.487388501748616 3.318541124309726 6.730051467757105 0.46854369904535437 -0.5758414903927696 -2.2272363682963507
Ni 3.6200723893641347 6.426047258922914 4.165998941647119 0.24035315127490867 -0.8265816413289572 -0.5357255962084903
Ni 5.45695953273306 8.53544708796842 2.484805792840227 -0.19467184718770988 1.615562955806637 1.9354719524290023
Ni 4.858462863015858 1.864356097401719 2.5435854804070432 0.4728150727271986 -0.6427817038587446 -0.5933602160028233
Ni 0.4610061609791165 2.8289886507246016 2.9795882519648385 0.6196703146522617 -0.43032167944967825 1.3674209046149288
Ni 2.083222229466908 3.2918931027513842 11.255182539887977 1.8730034015811354 -0.6912367140363386 -0.7612478531181536
Ni 6.944839686935156 -0.23018946583639674 6.706965739700262 -0.5954047572366779 -0.3213393013109885 0.7135567176897776
Ni 3.0148145566831865 5.46606358163513 6.218137347005526 0.4155846303498198 1.3755617885545084 0.9471036446761302
Ni 8.386212632865476 7.814585359755906 5.375009256673841 0.9539070407512087 -0.9648229163327642 -0.8319755586510187
Ni 7.353885434261642 2.594321874516305 13.091560520643535 -1.5779199486428823 -0.055014408562666546 0.7842738816996816
Ni 6.271472130755836 3.340217431219419 8.52112227748725 -0.26664936596727623 -0.9205058395829436 -0.35422551051604806
Ni 5.765242736790828 6.193151483108941 2.593415159210253 0.15581965020720262 0.6468697578851892 -0.06351139029008418
Ni 4.117741948089909 4.631488869770406 8.203570838032519 1.1397366070569404 -1.1494867444651686 -2.0983580225646827
Ni 2.1184116383437073 1.143595832753462 1.706708468029697 -0.0940920912904186 0.4387019330935735 0.031596543859358485
Ni 7.048240282874584 0.43440241443063293 4.271733199564484 2.1084457458179884 -1.0311720331819598 -1.2754350610342358
Ni 7.330392007155688 7.188665855807846 9.589987427976476 0.5805052144170261 0.5413635112205579 -0.004690463497133857
Ni 1.9871731299560003 7.814087265895002 0.768076414245981 -2.192588953425811 -0.06612800197732482 0.9954056742156276
Ni 3.3996289600727514 5.063871236876263 10.32827321736023 -1.082578926899026 0.6075316224071989 1.5423407659866921
Ni 7.209170719748377 2.6082500547008314 3.6275982186439726 -0.7924487042009901 1.5877248505484463 0.34852614613842553
Ni 6.599217891230393 7.644984400118237 0.8785591669706276 1.22420480210435 1.0595642111714076 -0.875790241843124
Ni 7.309370601433481 1.3417172779080555 1.8540224945800472 0.18643197577642087 -1.5543506459633747 -0.5037865814080486
Ni 1.2366932649404965 0.5277332128154609 12.913358217944891 1.7129810261464948 -2.3414722815244966 0.4040917992188718
Ni 0.5342730007299172 5.018655383058682 10.145020796349648 0.8387571003492265 0.4759924420139157 1.0590109097710987
Ni 7.646552473384044 3.5477565399292446 10.992158542261608 0.12992555604926012 1.5625439804074444 -0.8581159644918124
P 1.7884797992574069 6.004733644281581 8.66449490576419 0.8565383355920475 0.6270820337353006 -0.4676918925680203
Ni 5.960025108285291 0.7408325248466325 9.194336715924143 0.15848562707513997 -0.04626288762228161 0.33174995512135125
P 2.7861249068057328 1.8078039962683883 8.184913533357525 0.4721902946590062 -1.3957467481428156 0.9045362036275648
Ni 3.05065886674747 7.930318390732891 12.20679824031258 1.126259398506112 0.2705924097754243 -0.5118133083672669
P 5.21679527613405 8.461895227841659 7.772752854608315 -1.0412394447202908 -0.9659434030904527 -0.18033923261512166
P 2.31455915597546 1.6648602821494474 3.7639089828485477 -0.2582783682947616 0.11215357677781974 0.432312741737778
P 8.248747951216474 3.407985868183467 7.326098253595492 -0.5671974415645263 0.8190297971236281 0.05855841716018303
Ni 8.945701174105617 6.569415275219661 0.7589760549280649 -1.4439703590358937 0.013436842231196212 0.7165641370575336
Ni 3.7290627052981478 -0.04560418254987774 9.332983909294772 0.29681406247611464 0.43431408843852304 -0.1543078415483665
Ni 2.635008763783818 5.3829280266661685 13.054745849946528 1.5192378614206417 -0.2170568997511294 0.26063324168018337
Ni 2.0959420708407235 3.7930400945430973 8.827023854973069 -0.44535337697182004 -0.5029561150869531 1.467362255597273
Ni 9.174879693883588 7.213515205090702 7.721330197846252 -1.182854778402653 -0.29187985839929087 0.44767096936140327
Ni 9.14162731668808 8.531803623615515 11.211820702108204 -1.1276606497290127 1.2734717666602777 -0.44582800261539346
Ni 5.033266136311854 0.8838269707477024 4.7226391239197225 -1.6759525126382877 -0.14836807902516383 0.31194423324933374
Ni 3.5013600191821146 1.0070904429847196 11.876110958870576 0.3491681505977987 0.9265157932224496 0.79582379132081
Ni 3.9404020856874604 8.164606984565317 5.701053196456977 1.2825739860718621 0.6761186274479776 1.2161153402279958
Ni 1.6849408439121716 7.263997940289319 10.46080400259817 1.1321701075635922 0.5174329685468896 -3.228530382971956
Ni 5.191420161109128 7.572677774643733 10.529885009125303 -0.23955019575763908 0.12043201473652808 0.050228557138248975
Ni 5.917742473870808 4.091204614056213 6.114900937560988 -1.398386756868824 -1.4066322847070678 -0.7901583655049166
Ni 6.209477892994114 7.497271898479163 4.726190348668757 -1.7572196842498964 1.0726832650518687 0.1191336076400787
Ni 7.02421186606618 5.471644077669329 4.389251989272413 -0.3612700760676552 -0.9330484521346447 -0.6072560001483089
Ni 5.064092611925554 4.603088295738514 1.1027908767929944 -0.5764994356917426 -1.1789788403870147 0.5183534234786299
Ni 3.1271531702377184 3.484849130089199 2.3642624665213665 -0.6852146762119747 0.7674028169759558 -0.11932438349464612
Ni 0.906227358547783 6.9613597999884576 3.150122676393683 0.736841399249331 0.146161044071516 0.027451668453049496
Ni 7.063183098701691 7.60035887976543 12.122354727760724 1.302304374621254 -1.124665828766747 -1.2451382098229071
Ni 0.1608077582006439 2.0405152928746193 11.760265395576866 -1.48631925631575 -0.26119142817649854 -0.5179050230873016
Ni 4.132242013818436 6.9681117389918175 0.817727148217681 4.047356548725211 -1.5890636239645277 -2.177516889584037
Ni 2.0764149467012256 8.074285964454802 7.830142491344794 0.006075516770118569 1.3283841024274412 -0.037216204038981064
Ni 5.6152426929757535 5.3408298714594284 9.73636983452773 1.4064353382049133 0.10424434923307209 0.6974891227039537
Ni 4.138551202723215 2.6453119275362127 0.26063314709403135 -0.631073671393197 -1.309364623902145 0.1145102499354544
Ni 1.9372069365390616 0.9802394942978617 10.256883453548205 -2.0622047125725773 0.26976811410191603 -0.9192179740094556
Ni 8.549642763004174 5.240510078289293 2.6742539480428267 -0.19779830863183356 -0.27931950523577703 1.713197255922359
P 1.9496408351408767 2.4749453791864138 13.294172189714569 1.2486919886124366 0.6948995075999064 0.3369135016001617
Ni 0.12552149773978002 0.23834805879878965 6.7856996207725 0.3468230474043898 -0.7737439287026352 1.0107081089006527
P 7.608725011836533 4.4065625957308905 1.090092250528069 -0.6426528915903642 -1.2879864153366851 -0.944878097779721
Ni 1.839359164752669 4.333794772237032 4.591633059333771 -1.101188314470097 0.29427689787655775 -1.033702512913297
P 5.752034025516497 0.7956366854866072 0.49754964724074263 0.41330868983144947 0.27451925563365626 0.22086521775362608
P 6.144744138997423 2.061545922557215 11.016729327940775 0.4209541221918492 -0.7526076609446523 -0.9741513928225416
P 4.379167433381194 6.173310744316281 11.934296623388462 0.9978068274579525 -0.5016993598617165 0.5930514265131529
Ni 7.898412711753901 7.855226129221483 2.8820762323365363 -1.2380568774960936 -1.1695287507177083 0.8504360793490515
Ni 7.260631194748026 1.9503603040510709 5.959892283255717 -0.4980221681204455 0.9667414735117159 0.5061332272633542
Ni 4.451095876479825 2.004163664989045 6.737597589749795 1.8322123357067026 0.1024836577882235 1.2618544941363237
Ni 6.491804872522574 5.693222054088326 13.274150661298322 0.24357757174947728 -0.9174323428639426 -1.8992805901101095
Ni 3.887770167718649 6.907787038060161 8.686783683643586 0.2992617526856588 -0.6460945702820615 -0.23227140270803873
Ni 7.941276455672771 1.5065586739859798 8.353396548996278 0.23873798426898885 -1.3768560818858997 -0.3559615193705482
Ni 7.894142018094672 5.002854738915574 8.856764670449206 0.024999350257815012 0.022923955786025036 -0.13166619288945064
Ni 7.499467201051294 5.626689627816149 6.570262957179236 1.8100723092745536 0.9233844466823193 1.089495194402885
Ni 1.7776416458025603 7.5420818980397115 5.474559771547692 -0.7732507911163006 0.9023685065522845 -0.07779669656450472
Ni 5.689458678250387 0.15568846018580157 11.834287677683372 0.3559648618046579 0.9761457975447511 0.804319487496647
Ni 5.093101967342993 3.6031464220538 11.856617040988471 -0.3989987009666806 2.4871216760669164 0.9859738393787665
Ni 3.166032163269359 8.410490096604331 2.986000749225953 -0.859708762900229 1.1695125527677923 0.8157549830270983
Ni 0.4413858748397089 2.3343076551642485 6.061926810661815 1.1572105954719876 0.10597238766777234 0.26299094327908257
Ni 4.306814688104755 2.6727993294897807 9.91643537722457 -1.2751967197711844 -0.6499746220627579 -1.2153206122408424
Ni 3.8140338283841446 3.0483713245714683 4.598789007802086 0.8758244375151691 -0.45715576892338683 0.7766058236314626
Ni 0.5135504513242508 0.41184983128416525 4.408448895630053 0.31509203484969606 0.12027054945799932 -1.0567018020219479
Ni 0.660390366310704 4.241887230939934 12.63074529564443 -1.7125642503240508 0.3633382714505936 1.103990816915899
Ni 0.7492835173532966 5.001286665649767 7.0678937752713855 -0.777700342247222 -0.8218508115121911 -0.5154771303720993
Ni 0.12411484378074673 2.789583891950896 9.492853590724048 0.4845958674122106 -0.127294031963684 -0.01057366175078824
Ni 3.8503577843885575 9.10204730266702 0.7478086060873989 0.7077095148803813 3.0730809716199783 -0.9692143605322404
Ni 0.927450769002469 6.911670325383132 12.438839877394706 -1.0141382176281242 -1.1429101196889153 0.43097242565979976
Ni 0.16968950965738575 8.930721462436962 1.7778141338617994 0.5100616157834829 1.3660859878535894 -0.5731580300233355
Ni 8.648680425680501 3.863123745564309 4.86344656881301 -0.220241211016382 1.7382721966131158 0.531062386404866
Ni 1.1462338854241738 4.651006769949516 1.4662158384409056 1.3168478196530677 0.2764640380648529 0.058836610522234156
Ni 2.5028570833177883 0.9316661188993753 5.971191634729918 -0.6856818456563804 -0.5902910901591963 -0.29275763301855384
P 0.35670807369402263 6.009234936950487 5.124122146124822 -0.7679653743476451 -1.1427388842183739 -0.4294750151786668
Ni 0.05056944042625549 2.2767593663091104 0.8632307895993393 0.16844428094974861 0.18632064700953718 -0.968277707650584
P 8.49284161494039 5.552704241551194 11.749411561389364 -2.2285466024673424 2.158173966281051 0.44541636899927156
Ni 8.193644011863919 0.14994101046859742 13.253549868169767 -1.1451552069693502 0.2904930053540933 0.1491365817600722
P 2.8140550588578814 6.386291989654498 2.10858258615521 -2.472934843043573 -2.6021960260359576 2.166099648886031
P 4.986177818535692 4.73894800828016 3.9312851232408477 0.1944319632627619 -0.8217219992438106 0.4442125784991576
P 0.31842679329546625 9.05459925043576 9.181957238688613 -0.332359306570576 0.09908003142331323 -1.3630178904512267
Ni 5.214516957918436 6.278620700055841 6.688254936055023 0.3029957658067943 1.0210467718224996 0.27212041638417656
