# total energy = -381172.8222637331 ev
CRYSTAL
PRIMVEC
9.21768407699412 0.00000000000000 0.00000000000000
0.00000000000000 9.21768407699412 0.00000000000000
0.00000000000000 0.00000000000000 13.49101238446271
PRIMCOORD
 96 1
Ni 8.097219042268812 0.5232031075565564 3.665373255253853 1.3154198289572894 0.5720141462268794 -1.280806095538162
Ni 2.1210627875862227 0.7181340760603878 0.1896446268352206 -1.2059792802352587 1.0570352741019666 0.07846338361422617
Ni 8.574612104795444 7.417663738284514 4.542491176471518 -0.1935737290275247 0.42228235408496945 0.8130337274411933
Ni 8.198890094761886 5.4571269143580245 10.638958483860373 -0.11177922415753652 -0.41702624789235276 -0.630067855836502
Ni 2.5988153397816873 1.0245732092259783 3.1158029631409563 -2.121509778090798 0.8695717717372378 0.710976358557111
Ni 2.4938535741662182 7.894291733054397 12.191854302234443 0.6739573581306006 0.369037635828216 -1.48020465877758
Ni 4.20991898791852 7.9606959272665545 10.172978757435004 -1.0753556696777093 0.7009541984344185 0.06895904366821672
Ni 4.148354077709886 4.1809846784193585 1.5196411804702403 -1.580330614966904 -0.7812402370796804 0.33967203818190533
Ni 7.373842869422131 3.907127292239014 12.602507646858005 -2.6645306224091208 -0.1860853910702795 -0.07369732968415049
Ni 5.906507435767117 1.3462980274640313 2.974417519925634 -1.2305022050772871 -0.019941990339565653 0.4972958314773823
Ni 1.423293340381043 6.058746701676056 2.1046516233197976 1.1308814706591557 -0.6654714321467765 0.4513103658862034
Ni 0.9902189016428701 0.2671487558988884 4.965757999629218 1.6344587642698754 -1.1274976417885871 0.5184220719330361
Ni 3.0554133076188923 6.244151193955808 0.0741387527023604 -0.38208161349636777 -1.8560955700822035 0.8598252338734353
Ni 1.2292795314169271 2.715990536453668 4.3723428726760165 -1.0985665605765338 -1.0503144104383653 -0.5164685477510911
Ni 8.48775387019506 4.125024119970995 6.847767531588436 0.9579850674753242 0.056843748461921466 -1.7731186148683398
Ni 3.87638631671187 1.1495004779874123 5.722267136953355 -0.37559806265455314 -1.8209850995323156 -1.4492326358760976
Ni 0.5368784632663227 9.002202021662956 11.982123420595265 -1.0028127653129761 1.058107938340855 0.775101214061478
Ni 7.399053234659535 6.0114046775958725 6.264430098351526 0.17016126364085532 2.3504539161978166 1.6621078934457116
Ni 5.6230267876826225 6.707266064251091 4.650823849058585 -0.6524994453671408 -0.2747961634441268 0.004921862781649588
Ni 8.280429725800301 8.296569890162528 10.272771245966327 0.11126294664275031 -0.13437664984207826 -1.1086658537940648
Ni 0.9436788160546992 8.835159155545144 7.774518993083002 1.265636329776259 -0.441390278559014 -1.6297598161323095
Ni 6.3631883627586685 8.218302536878877 2.5003972079073638 0.7082682155973286 -0.5618179224201679 -0.29386012205411327
Ni 8.403024920556227 6.752497238737357 2.465063982302971 -0.3747701674366191 -0.4330843297964799 -2.0070092983473566
Ni 2.1497943080414275 7.1523972334209 4.467723777732891 -0.12207032167089944 0.22785964679358822 0.6399735449859882
P 7.097367661037977 6.5001539265841055 0.6123417971330761 -0.7012455044225923 -0.32291050245285036 1.046269036724398
Ni 3.617968550923719 8.439342594792194 0.9993941841135505 0.08638161002003833 -1.2801368373852793 -0.2805803742260716
P 3.906970591614138 2.709298498003081 3.30320677104045 0.05714148220799836 0.2643410295490738 0.5311711440685885
Ni 7.492686466864851 1.2899042378763053 12.187887932888318 1.884633015400264 0.20909239348841407 2.0110410452145686
P 1.8546901606646613 4.055504348628951 7.697013942250952 0.43258116490781623 -2.573463948208587 0.20227665611816134
P 9.017383546908295 1.2997487241920442 10.535225435497606 1.1637504534730345 -0.8720947952694077 -0.25659583838601613
P 4.123908780229231 1.1151185173528555 10.195899450012453 -0.3590098192785688 0.08202641837513615 -0.13558301144535356
Ni 0.5554318172516407 7.021248028083507 6.513366554566297 0.1897258160363442 -1.5485394385982363 -0.2702820776238571
Ni 6.003117979845077 7.74941739651463 8.669715557569448 0.7995282367555908 -0.011347820912651425 -2.539527700472459
Ni 1.3186726290667747 1.8143443586010004 6.79696058016173 1.3053881557529003 0.7299678120579493 0.5723774431035691
Ni 8.469899216643013 0.7813452645986015 8.312460255293336 -1.352148808947207 1.6421651317751977 1.2810907166581162
Ni 7.296220754005615 2.91400482019403 3.919287260729391 0.8643429192381309 0.06489901466623016 0.4480448077610542
Ni 8.897009813952081 5.197068400850584 0.070601927422071 -1.3665382448996595 0.7477351633436994 2.9351821675572545
Ni 5.521171381513225 2.7848374168771275 9.52128205924851 0.04656396380246819 -0.8280700529490255 -0.3277840284950677
Ni 6.025406339312734 0.10778514216838171 0.39760940025520847 -0.5758461183784599 -0.3926498759305173 -0.4662351055168357
Ni 7.4789982063977405 5.167544159587183 4.178854471689426 -0.2728863480159236 0.5957048049755999 -0.8026629257298306
Ni 3.5282251812888545 0.6446248911626762 8.059624718824297 0.2960342468872966 -0.30494749021652645 0.6107254467541482
Ni 0.94778990303674 8.493229174381904 2.848668033767792 -0.3449206881753543 0.14285306274420556 -0.9529621603394361
Ni 2.5217094146588805 4.667355764983003 4.096896357805753 2.2031333046005606 -0.5009187729419502 -1.1995227259766374
Ni 7.4602678728831515 7.669564601614586 12.404971760907706 0.2511697822744384 0.7156128288878578 0.7576881607913531
Ni 0.4345428157700992 5.241967738719465 8.65297347845402 -0.46463613646083207 2.719132626024717 0.40336571968612467
Ni 4.891539053077655 7.289998817429657 12.502107712963191 1.0816085925659567 0.39781213685774713 0.7687634447689082
Ni 6.1624364269248835 0.3614862191477648 10.75493999047815 -0.8996989301399214 -1.1484667878410868 -1.6914176981534224
Ni 0.1646278329579586 3.1449170174745347 12.36787150531574 1.9224104912593538 -1.3462298723596104 -0.7903103177017485
Ni 5.9406128658871875 4.2301702392627885 5.9912096541228825 -0.3737478968196918 -1.0021633046544354 -1.2999245615351678
Ni 4.022790788765132 5.055623042690456 8.706492272459464 0.5194487134253376 -0.1575877978512189 -0.10862370924769035
Ni 2.309951564348512 1.790258550789178 11.495110783238012 -0.9860910816829209 -1.1042810944628079 -0.7403522406160669
Ni 1.7108482047123128 9.105320250515177 9.752450508139109 0.8555114369894299 0.014506164035975018 2.21902323635794
Ni 1.5607382237649243 3.193494211186094 1.558670697284943 1.9657184100183693 0.5883658481120254 -0.35896713896609145
Ni 8.327301648005855 9.18713641206808 1.0375968746899369 0.5376341260851127 0.09207248975722852 0.039272829457693656
Ni 3.805419369010676 5.596876218695964 11.086926856108818 0.2720072878450799 2.4270833319270975 0.8290930948969011
Ni 5.279944596042354 4.46897277388999 3.4765121315430125 -0.3666588511833943 0.2334919053787011 1.7608017451741997
P 2.1366591086032924 6.844978260465644 10.138279708477167 -0.08163715335651747 -0.3270085837816239 0.6534304418218424
Ni 6.08934019426214 0.994726349029009 8.24411481686948 -0.38134884909540134 -0.7259496920374917 -0.8229728409317761
P 5.143919235966172 5.950438916835293 6.975514489829257 -0.07196697725660509 1.2726472138764535 0.7453887745987099
Ni 2.7699600751977242 5.468630583760686 6.600396238085661 0.4236908043967219 0.7465041191500756 -2.107969834622834
P 1.6008812367846281 4.691469225846273 13.110308926526015 2.004783494340631 -0.8746149905881002 -0.18197188312253823
P 0.453106309207615 1.4824800881650886 2.1978884951210156 1.3333327046819683 -2.5426094247215763 1.5001049972459326
P 7.022400238560536 2.690706429745735 7.15926164255885 -0.48859136172484885 -0.8486054538982158 0.8585196276881343
Ni 1.7136780336438968 4.388935625313621 10.861694595595875 -1.929351441353561 0.6403797792854714 -0.08481143731944102
Ni 7.386738409081045 8.667627752185071 6.67494794302299 0.7457896095815543 -1.042703430860327 0.022574542866406287
Ni 8.506207673195163 2.7167832572618638 1.1351282653811388 -2.258056953221634 0.17562562918953625 -1.7387167403497024
Ni 6.708418274728121 4.290066748700684 1.548579177042929 0.17554952453596218 0.44376880609351954 -0.113343740431179
Ni 6.228951233342836 6.870041142761986 10.59739226045944 0.2225307783815071 -1.1314725672759354 1.1545348484120375
Ni 5.472253133500466 2.5044078221358075 11.965043974252163 -0.4079993618033942 -0.07103212414716153 0.8127707035877938
Ni 3.689175158404135 3.541434122197519 10.512115780401924 1.307819133791896 -1.8056428127482904 0.7916694028328043
Ni 2.2729056930910634 2.3811305187774794 9.176883582359283 0.19343360390523462 -0.07589099490135963 -0.8753194728542926
Ni 0.5482411021065957 6.3996627376195105 11.89104533034381 1.4777412848387517 1.6711185815847545 -0.7997285256918549
Ni 5.126009276311228 4.901070138143643 13.111752415811637 0.8074050684005062 -0.03512204051411371 -1.406696819396416
Ni 9.03424269060819 4.3142816040859335 2.722256717911944 0.022559116247438567 0.06062944075659881 -0.12226469706989268
Ni 4.237498297896695 0.2719769786818324 12.241258322184319 -0.6956124745065311 1.2264678871069137 0.39541329760826743
Ni 2.9683891547098162 7.180695522736741 8.115383409997085 -0.05309508005276662 1.2122275751378155 0.28267119531682927
Ni 7.704536494013381 2.90702703354514 10.217485421973311 -0.08609493201755494 0.46256819818820977 0.8234209842127884
Ni 6.097285837711735 4.546060263645165 10.74263622612024 -1.3857302444470778 1.1854284526671004 1.1456838257793105
Ni 4.133928402537478 8.696534408632784 3.2725957648551147 0.7587813938555319 -1.8388100435288783 1.0368518571755563
Ni 0.5360562458699145 4.963980830189447 4.794489747250043 -1.5091377968721622 1.4757468801165423 1.7356815530678043
Ni 4.8965073846546066 8.443545858612397 6.51385140473503 0.4591779415597382 -1.4919785114840565 0.06451052097855986
Ni 8.545262999524551 1.5344770425724708 5.744661499784899 -0.9696671317989428 1.410050052139365 0.8758594045181626
Ni 3.1844332279947345 3.107880363900902 5.8338776179054745 -2.1845920512632633 2.751329779582552 -1.865652103422387
Ni 1.0647254399294983 7.797146563315096 0.5737178584062879 -0.3411689344424059 -0.38351911727384275 -0.29459674310982165
Ni 6.20281909972381 1.2607026155464724 5.663095137463416 -0.8495667893702207 0.9926116564102583 -0.44324790059304314
Ni 3.9958014105511954 1.44756350186919 1.4000970390574876 1.7718050382632387 1.5787049064380232 -1.085134089220712
Ni 4.525366563477717 2.990428636714435 7.463294960248404 1.0552195610494666 -0.6468432755226279 1.3025365452367181
Ni 6.754368428552053 4.793057319185 8.505583636000804 -0.11812239276674497 0.03790911634094762 -0.584540046608032
P 6.2846536966443445 2.1336910144144645 0.981978292311156 0.15802642805053427 0.7581540446841781 -0.9691020033240924
Ni 4.9971184035088125 6.479469444100474 1.4958162331104174 0.23298205562181812 -0.026749757290018446 0.5071318437311976
P 2.655172258634148 8.566629590610583 6.383838739812179 -0.7307604831625737 -0.04526555670601882 -1.1012932154790775
Ni 3.2957644131272215 3.0702814316144793 13.017544921904571 -0.3943113227933403 0.9242789334721307 0.5952214375812781
P 6.608765894990803 8.64018670746414 4.617865098805255 -1.1788310019552406 -0.7367658088163892 0.20624052586191574
P 3.767479382423052 6.216387530301309 3.362553906522898 0.7918041286384557 0.9818119946915929 -0.8112005308871965
P 8.37143591811799 7.392951127973187 8.254529877813443 -0.3078626069807924 -0.4504202499717662 -0.22149076715276694
Ni 0.10517192880647906 2.974454390660899 8.591130194194138 0.03371744685710322 -1.094049646542787 0.7478102395560089
