# total energy = -340866.2271998127 ev
CRYSTAL
PRIMVEC
9.28915085694963 0.00000000000000 0.00000000000000
0.00000000000000 9.28915085694963 0.00000000000000
0.00000000000000 0.00000000000000 13.59561124090212
PRIMCOORD
 96 1
Ni 1.268647190262898 6.949687449513282 9.026833527800846 -0.27733769891905785 -1.5050808531939692 -0.08947850377780718
Ni 3.862809751899085 5.046879224257686 9.605027429309372 0.6725648486584481 -0.8238413595796586 -0.7081589437129739
Ni 6.670288372179346 5.266456170531359 4.369738217494377 0.10287780790284863 0.5308566981519631 -0.08992870394134835
Ni 8.370955387186132 5.491160728038769 0.08156338847432051 3.000031559932472 -0.8214936852830884 -0.439474806703856
Ni 7.02535687181404 8.934017262064662 6.58994186245796 -0.06630257988197613 -2.0332990852818207 0.21713043330154216
Ni 3.605063685046745 3.0076040848085643 6.207646861870219 1.1689358543287158 0.9769274129057819 0.5164022132895301
Ni 8.920074246735243 7.971559060001815 10.317355739249118 -0.4475213311574164 0.7205120659616882 -0.2577942295694915
Ni 1.0632919338422153 4.2492291354357015 2.248482606700656 0.44140030586134305 0.050089203346907286 -0.1202911182832896
Ni 2.0367577795861815 5.801288316171981 5.43339057038708 -1.232101174133291 -0.18725472878803234 0.037223917348464926
Ni 7.4816399584103195 3.7168864822056618 6.258182628889961 -0.4332859042843248 -1.1107379058317453 0.8453008150050151
Ni 0.8292601400308289 6.862991805229831 3.311388111870184 0.4043162565248521 -0.9035905518848438 -0.19041384324230431
Ni 4.979421411251534 0.43862533986763713 7.793290038357315 0.31273844701585496 1.4679014159301946 -1.1813781938571266
Ni 7.110129661884839 9.101147663001964 11.35860266044658 -0.6976413320111018 -0.054780181064673396 1.952453574588663
Ni 7.384252501572465 1.0031261042028812 4.539384120464462 -0.9000653123404047 0.6868738090819524 0.23193561663517476
Ni 7.7108961998027485 0.6745939216178534 9.310002142523642 -1.54686693599182 -0.13818522495489105 -1.41615436526489
Ni 8.742187009188038 2.818281902644095 8.34350408878407 0.30183542695010596 -0.19149602056288956 0.9417639776307716
Ni 2.727759128236914 4.403884206867734 13.530909586128653 0.3261102403370706 1.7885668311026102 -0.35485748767309205
Ni 6.959914804528398 8.748540788325496 2.5440243702700753 -1.0416155971127867 2.190806407604091 2.1770114107025282
Ni 1.3028777109084047 4.616726518821735 7.985640483677941 0.4412020738076079 0.5989845041681362 0.8058996874995733
Ni 2.2075202384807127 2.343819947960094 12.987112481064699 -0.3094052688775639 -1.3380285674957408 0.08249873002586437
Ni 1.6988184740004195 3.052832959984405 10.024315543986303 0.6803894869091895 2.3563425137681095 0.6232606031066814
Ni 5.991139979931238 6.4105172704557125 9.992067328118477 0.11132799555273085 -0.09161123385009383 0.7943554343053997
Ni 2.813897423473218 1.8537429308052389 4.2869951068702665 -0.4892526494579317 -0.10828175252723932 -0.7894225157801565
Ni 6.221250823195957 4.191478485000664 10.647878586847533 0.5504603313155036 -0.3212791374970144 0.3347748579906041
P 5.1931183250778234 3.720871527892751 13.532011279411844 -1.7823519605411497 -0.6144635736403418 -1.0030140826905047
P 2.1149631400514513 7.786026851357934 6.902246827535352 -0.3750853846841928 0.6219102597263741 0.18043256365987634
P 1.3954162310360945 6.258788281521192 0.5426833358847416 0.48025481683469556 -0.6846639459148274 0.41947728053600664
P 8.56264630280097 5.387270865650887 2.601805674902706 -1.6481437179561358 0.14866864098471813 -0.806476900159282
P 7.189746973269544 1.598086922879694 7.170298278269409 -0.10239932560453331 1.5478997481317083 0.735923515420752
P 7.187591890287249 6.99102417050989 8.343164105865311 0.560164703087461 2.3654660733359325 0.24398174916643145
P 0.5534559640509815 1.7628950361205566 3.810374353543656 0.6124650551530743 0.5956798652749354 0.6630785064345677
P 4.655276494582618 1.0597341890912713 5.519641264347893 -0.33500548594417145 -0.05421068171444857 0.15978969059854417
Ni 9.101361313470036 4.898299257439536 4.560212254356281 2.2349931294236347 2.8190390100040674 1.127741125257961
Ni 0.3596536244625422 1.3304664887420965 10.319613002890057 -0.5768344504336582 -0.8221819695993646 1.0860213769216716
Ni 1.3216325063448435 3.335399637736282 5.81841843913599 -0.8931210198120876 -0.3158561667092302 -0.06426215241317965
Ni 6.3531753426552475 2.279306795753026 12.172598867906258 -0.7076331531164909 0.47052036315575096 -1.6387861880006356
Ni 3.7744699279265563 2.419099225927851 8.614559650882239 -0.6808720829725629 0.41146160932038167 1.183040669161214
Ni 2.7419622397883328 0.9025329614288632 6.889984219583078 -1.0243041024175326 -1.197804714844266 -0.09858303718223667
Ni 5.996267591164974 7.490947687497645 4.712674157287797 1.1407421655033192 -0.36577670568875714 -0.9436966758771103
Ni 5.869080538606418 5.563253827287012 0.6550978519487112 -1.4538552222497736 0.3750527316740444 -0.19105456215009678
Ni 6.038821190914517 2.685326287447585 8.71523546709825 1.265114138724202 0.5519916803583655 -0.30026216892571517
Ni 7.2805298438987265 3.5785896053073434 0.47467467623699455 1.3742554110382592 -1.1007234590185366 -1.2041399130336747
Ni 4.791836300283999 7.488216677166633 8.0432861667091 1.73371337359784 -1.6192404046582243 -0.726908199296019
Ni 3.337461829210719 7.329139969960582 13.370114386027236 -0.7737416147097901 -0.8994567322221284 0.6917702179423053
Ni -0.0670890337199573 9.065375143326023 3.131246397427276 1.1050994765990452 -0.2979440623154998 -1.0764075079809914
Ni 8.518197716291132 5.6118082184441525 10.742000907184194 0.47501105193725296 -0.4590807538602416 1.1449703446520538
Ni 4.581279119423295 0.4647343559811583 12.437360101431999 0.8848071006297537 -0.4472688488269781 -0.4573426881232123
Ni 3.7906516285953415 3.3817525001571984 11.438422475318415 0.36897207269760324 -1.7137672694932162 0.03793945535825079
Ni 4.311104168819615 5.294407225245695 5.55618664136921 0.96792598073812 -0.3329614589309492 -1.7276913357734762
Ni 7.4569772630741396 6.9245417183362425 1.4699170781680055 0.7625097505497127 -0.22489516484862557 0.7085224976999799
Ni 4.111777571258886 8.039044740460325 5.841612519732942 -1.1195171946862719 1.035718000681429 1.2749105559893334
Ni 6.964447910111845 6.678472114021597 12.345562855537013 -0.3215935834136397 0.9086620528704802 -0.694007077692624
Ni 9.129999765342518 7.5198648138937 6.850855529728243 -0.4738026334514486 -1.5932159555700045 -0.9735731517215683
Ni 7.779264349585905 4.9676985029599106 8.699573029958389 -0.19681666144485457 -0.5205437462617293 -0.8158128328482273
Ni 2.189917297741707 9.30336318645706 12.911153237259425 -0.2136247341411289 0.025190126112382423 0.6854386192973227
Ni 5.430261055487359 8.222171059050696 0.8229927499956802 -1.08471448518479 -0.13131369464603837 -0.5709972749265908
P 2.116189307955171 5.156463336077235 10.804174122308329 -0.5440145756901598 0.11270970639160588 0.4798742935668251
P 7.549636542162045 8.85947182700898 0.43879161566670216 0.8806252013379221 0.8172953309310247 -1.3157576719126822
P 9.01551098190809 5.05389253310093 6.671760702578889 0.6260636197731153 1.1237867685959033 0.797417103949859
P 8.16756943073203 3.089469370683422 10.69561274599029 0.2769772302558456 0.3066395332069687 0.0246908178784607
P 4.852020708224906 4.481374302722501 7.638340500845374 0.22224821414408177 -1.1845254812368569 -0.4090758826970245
P 5.184795245973787 6.552631988326976 2.5597546182106723 0.8792198363499631 0.7353216201706949 0.693548907109283
P 1.6876993605098711 2.4934402996662475 8.048125814268479 -0.6410287257233799 -1.3187229251885935 -2.2836360872423187
P 3.822950005877411 0.8872857493291253 0.7785367321652145 -0.3719350119806691 0.22061684918824587 0.5558084830012944
Ni 6.186620869066663 1.3925737508956535 0.7080348644465709 -0.5924114789363089 -0.35116795463664685 0.9316597993172342
Ni 8.332266074163464 1.4853630780945586 12.983019681228496 1.2524627685087786 -0.7373710465005558 -0.20596798892681947
Ni 0.46249659955686995 8.533822067912771 0.6874603243712024 -0.4768848719211981 -0.023480085399811175 1.7942754514516133
Ni 4.427998842307554 5.411478392598563 11.997664651393842 0.8615345032550582 1.5347267010848602 0.9408237252046894
Ni 3.5168353308836453 7.200206557054305 10.568942170215424 -0.4805031854000757 -0.6701904348890007 0.9501051505066154
Ni 4.561669722114566 -0.18406823848004678 3.6634868699986716 -0.092581311072847 1.4429917971727084 -0.6816837802405807
Ni 8.583741964235418 1.5388407191681495 1.9062405664709325 -2.9639186162599986 1.0393316861746165 -0.21082300302627566
Ni 3.363545764617119 7.057952501921254 3.885258842603019 -0.12376287888197395 -0.23875906731491134 -1.2804569397288592
Ni 1.600019066243131 8.878588899326063 4.810576233079181 0.4587277413961971 -0.27841730513648183 0.79439991439009
Ni 0.5754647490076704 7.234966559294599 12.421711598018316 0.20396767066733906 -0.5379729974817702 -1.4788969957097498
Ni 0.6768075262500988 3.963662061980026 12.113512437588229 -1.0288464703725764 0.4378141311719815 -0.16698775100888016
Ni 5.394358487700417 8.67605754474425 9.743580686769375 0.020460324736880888 2.003477631045014 2.346146547071714
Ni 9.236592770609054 1.322645023780491 6.504860672581074 0.09403886945497998 0.40147595886257953 -2.215982392649087
Ni 6.372459619686475 5.90502955214729 6.747814695722178 -0.26503394185104034 -0.3302173205269087 -0.7037189056637493
Ni 3.2939700252318147 5.995078579864398 7.5353674776400466 -1.690522697142979 0.1668517396516481 0.24297361961689126
Ni 0.4381097919990277 -0.050700184988650004 8.133723480929053 1.4044177935542521 0.2041252792911259 1.8889732946468307
Ni 2.8685733649981713 1.2248952900619927 10.907514066969696 1.001058758736347 0.2885022001763096 -1.1993144666205733
Ni 2.859535021283632 8.535382645244779 8.960228458836827 0.2513541303711026 2.4485379022564473 -1.1819448649938742
Ni 8.10886199776606 3.181914999303254 4.0394188022981705 -0.8061539696022244 -2.805993746784335 -1.770837275033331
Ni 6.449977582993599 3.9373644761055537 2.45317833341555 -0.7350963915337663 -0.5196441172655955 1.067737491010819
Ni 5.679637597481735 3.2099775238270194 4.907593981715762 -0.9912965371432606 -1.3515505132415755 -1.1879386206834637
Ni 1.517633587924271 1.4383785534202107 1.5619995009921148 1.3765894584880745 -1.3493313941030696 0.612200488637778
Ni 3.3545167100533653 5.522130756758475 1.884908960606525 -0.19026497636926587 -0.015138398303335219 0.5937852193553838
Ni 3.2563954103034365 2.8707563154328235 1.8227088069451107 1.431587926211141 0.4574308769616445 -0.2880681979626845
P 0.2639753713692672 2.943230269863283 0.5732669359317609 0.49954554674350743 0.8691107729404193 -1.0977756892441224
P 1.650942190850639 8.848594231438861 10.931931528725132 -1.664378177537127 -2.12105803526536 -1.1214663479928428
P 5.11025910006889 1.57170573464815 10.491692663366008 -0.43029571130774924 0.16628069763952652 -0.6324119305886464
P 3.317378685211917 4.0241344335952896 3.6779798030546065 -0.16238830456365583 0.6261520657218635 1.184638095555321
P 5.971381956209937 1.5307777362861141 2.8919086406870664 0.3920001581616604 0.7757185359305028 0.7029666008787571
P 8.437586465772352 8.513906128628113 4.910394660677668 -0.3522401046549031 -2.104978356094678 1.7716551429489358
P 2.1400902929269185 8.476972465103952 2.4454014563777156 -0.20468809377313135 -0.01492911050600655 0.7162430062726891
P 5.0145622686740445 7.6193701971107055 12.092113020923083 1.399960272003531 -0.44624117889341214 -0.6298611391423347
