# total energy = -340857.26847658446 ev
CRYSTAL
PRIMVEC
9.39486124669367 0.00000000000000 0.00000000000000
0.00000000000000 9.39486124669367 0.00000000000000
0.00000000000000 0.00000000000000 13.75032908166456
PRIMCOORD
 96 1
Ni 3.139631132305405 5.840597398848618 5.693845906748221 1.2824032648219525 -0.9521476348579407 0.037423434953780706
Ni 4.6855085917596995 8.969142594770931 3.6487189391981296 0.10322722082246738 0.4347164660832642 0.5953643909170457
Ni 8.190534066224124 8.301017635601392 0.7263759179458876 -1.6038958038813538 1.489054652969042 -0.04881110796543207
Ni 8.727929529825238 3.8098511455541213 7.196990839390228 -0.7894721380711693 -1.4414424504077175 -1.974559148238451
Ni 3.474670677469701 5.072699012231241 12.753113715787332 -0.2848689742990965 1.4158417191204777 -0.5321257946723739
Ni 3.4427563334922713 6.701880707201542 10.811045558696241 -0.8904869246233502 -1.1164809789631094 0.37116908034892204
Ni 1.8922941817032735 5.529768411361637 8.785979438568877 1.692006994997989 1.224119441479395 -0.6169840260693502
Ni 6.05035646802262 6.35895887337164 7.520412699019495 1.6929426194383814 -2.031679804510843 -0.9387172203846479
Ni 5.658637724384424 1.9097686237986573 3.4612463600986825 -0.02361403987451417 -0.5801689141235298 -0.7140444559594735
Ni 8.433748236635578 7.324130558440026 3.372612419743584 -0.402302568528933 0.2863740980897132 0.6430686389715441
Ni 1.8514453245899773 8.540126251606566 2.557616653734611 1.530457384285545 -1.1153196116651567 -0.26313235395295326
Ni 1.6337663873050037 0.8969443230333861 9.4266761000516 0.4004925119033877 -0.7362834698633319 0.32383892780439066
Ni 0.673003710664233 8.057183404341393 8.798285767440245 2.9535773822349904 -0.15790301509879257 -1.078605801183891
Ni 8.6167977150154 4.69007449437172 13.236547914300672 0.3094731460010219 -0.14080723595877043 -1.5801382964504398
Ni 1.0333595886857503 8.940873456994042 0.09332855256749803 -0.221452971936296 -0.12426090156431502 0.7728124180273013
Ni 6.353152849062528 8.5888198179401 8.030701169191678 -0.4102714456670224 0.4061723358969843 0.36644030741468503
Ni 5.015427937492821 3.4356162388726514 5.0640951982146 -0.9645048708717131 0.4758476889059353 1.1399335535590946
Ni 5.796563683740518 9.076413121569368 13.606734575230044 0.839320171941548 0.13994771617195254 -0.4976982091221235
Ni 0.8710426903145828 0.17449357815602085 6.891609931995243 -0.8513493351919401 0.5866331816916349 0.4847979561206876
Ni 0.47658816305371254 3.8284059967037893 9.140943605666447 -0.23014201506986173 -0.6613640948466223 2.4410860739640925
Ni 4.050951472163715 1.240206250843854 13.035628470162989 -0.9712087652544499 -0.5765647417120393 2.2718313812979063
Ni 6.995667416214854 1.3109683464688184 7.291084133670933 -0.13507496146068348 1.1993239797022701 -0.6488176256401793
Ni 1.5553286899639487 2.4888772717564938 2.8761428511187686 -2.032203281114481 1.7609706666518963 0.04610065101280447
Ni 2.9759820425959984 3.1502661153441016 13.556958720869957 -1.278089467937947 -0.14938109367071045 -0.11931101375820742
P 5.899747445855359 0.4482927196650684 5.2210682994546636 -0.31524115883305065 1.1532135584974526 1.3077813385754253
P 6.666800294951991 3.9667453299589144 6.779050098261481 -2.128726093333579 -1.7167908868108885 1.1787322715938475
P 8.351787466291423 8.05735251184554 7.387804231182749 0.7383948597793799 0.22813166950805225 0.1313131804254061
P 6.576976025664912 1.3285367371776187 9.476727223848998 0.4158016314566323 -1.415456567866917 -1.0014806767651139
P 7.07036595874195 5.582774219050969 9.412938933797905 -1.2044965250421449 0.42711191426312894 -0.1218008700595967
P 8.148670564085934 4.243602498834654 3.2838535277326426 2.1384304651055364 0.5037217896083841 2.876843065496729
P 3.25753664214254 3.7243860919295457 6.681532377021762 -1.2129217729913626 -0.1383081236860005 -0.37680622403004144
P 5.932225481513286 6.5668765497226875 4.455739407414215 -1.6734202331347374 0.3621648199677827 -1.244323941451728
Ni 2.601765925637212 9.360748600073025 4.887018033189639 -0.592759606304347 -4.081180182142874 0.43957533683746225
Ni 5.4801823332006485 1.3422814193203858 11.433797095530364 -0.10918806639159259 0.778904132747336 -1.354588528736951
Ni 7.331411575979769 5.16702342010095 5.319328214740369 1.663330452998903 1.8115440087240737 -1.487183146977942
Ni 0.63750052965431 7.662993812170355 5.422538282466967 -3.628519987096996 -0.19422704634080742 -1.3039272549366576
Ni 8.662870115034627 1.2359879581014739 10.393502220202244 0.7491477274205097 0.21253895727611782 0.2046184168774605
Ni 0.2294779436438947 0.6418635032613511 2.229271886762342 -2.221243641048026 0.3387950348935907 -0.3779035708592782
Ni 5.539182062425925 7.481240824655677 10.33133736219098 1.0886066211503445 0.3732048798320282 0.244132930032315
Ni 6.184637221178171 8.157971476814124 2.0864202016048448 2.631771939920861 -1.0766389072655072 0.7642303327852451
Ni 1.8175016905627608 4.7020153631368995 2.135027335214038 0.21563662236483508 1.3269113745366568 0.6839790040326608
Ni 6.86588680164193 9.063034839018924 11.2263876811779 0.6052011745018093 0.10606854692600443 1.3657592006417898
Ni 2.22042850378149 7.566959539536475 6.720597149966286 2.0090124448203146 -0.5653704156581166 2.702398601099488
Ni 4.934237545778676 4.844901809281359 9.328608779423398 0.2522136501579205 0.19623224969629433 0.7267763017038451
Ni 2.8042157926874456 8.356973429751989 12.451198572741266 1.3083634363311403 1.4007691410580714 -1.3750226282215867
Ni 7.428601416558667 0.19466152699804298 3.7383158528407425 1.380807867444796 0.5732043098802386 -0.7088325727412308
Ni 8.386426320057918 3.60307964228675 1.4424231253328155 -1.002482378556751 -1.7708177346493053 -0.2518336411106824
Ni 4.314815547804016 7.146746181449194 8.58540290687016 -2.6932621860158585 0.8179669030767526 -1.2902366448234426
Ni 0.23366993077451859 6.786030480238293 1.222744022068214 2.3786324355145614 -1.9572779925605002 0.37963649438998487
Ni 7.55732980666133 2.147167375039659 13.043768178029355 -0.3407629572532389 1.4933409390492218 0.45058042969871426
Ni 6.532998679724861 5.885504836061488 11.547031480308457 0.5588398136284505 1.3810917172338022 0.20184651055927819
Ni 6.9666936638373445 2.9684755483840566 10.673060411713694 0.887455079775562 2.446689536193799 0.2599549846662362
Ni 3.7028060954278805 6.902639499210286 3.4582493993307106 -0.23524874016880776 -1.350435940021158 -0.014167549749633664
Ni 7.359821636676781 2.862416958698684 4.7770709103949756 -1.5053773013884655 -0.7707431942030984 0.9428078455142538
Ni 7.458411311595578 5.807189271917873 1.747556947874516 -0.2702710218802636 0.8162694607696716 0.257993232954175
Ni 8.155603971756038 8.15243790348392 9.693239319355346 -1.6158059250553782 -1.2325567736134708 0.14650762877765736
P 1.3232004559355872 4.926204939331605 0.011731363357261403 0.8770652519008056 0.2036920484084492 0.05933771852836878
P 2.173745437775058 1.1974972111849205 1.244367234932051 0.9537741147177703 -0.22259814128433275 -1.2120113453619514
P 4.263463235710805 8.058263813395676 1.5489195155567062 -2.6104053013196267 -1.2659443479349812 -1.6059753121182019
P 7.447757538834198 6.469771262895864 13.562733742136642 -1.0270868073689925 0.6891134970457488 -1.5251984498794506
P 0.15202858571597644 3.2085894145527813 11.417640752481207 -0.9065426925346324 -0.27984401028067935 0.22380141756381455
P 9.720581184317815 0.33085037649207444 4.37397968710277 0.1616146596224249 0.44123806925186587 0.7812188969234417
P 0.41530736149469544 5.303436806781045 6.11497808227471 0.8030755877872169 1.1181902483447321 -0.36145725237779686
P 3.2428994481723206 0.9524228582278284 11.110266255509536 -0.3392053829581319 -0.2426949120342078 -1.6928973680227426
Ni 4.505690945681391 0.6337407061454 8.825044211513402 1.7789863865030264 2.359885493924361 3.307336237527265
Ni 4.947803725555953 6.856275858489469 13.011043057518142 0.35661277980130196 0.8016491397533355 -0.12291364350780123
Ni 1.816834655407507 4.676029176666021 11.12225597755369 -0.6725977587789127 -0.006858417682730124 0.0048408730320690825
Ni 3.2338615915616975 1.3579332583154988 3.4059153242273035 1.3976048843974769 0.6481020876303935 0.4752622487161105
Ni 4.949184770173169 3.0381290503707112 7.665368833117513 1.2378756147232228 -0.08088587701278974 0.7895970936848078
Ni 0.6749597207955551 2.6482329098327875 0.4113276982303918 0.16802184870034934 0.45281883211092977 0.06731919407194857
Ni 4.808271244910444 5.559362224587691 1.297069588600049 -0.3250897694923563 0.28949464599656594 0.062073115181660844
Ni 6.179808262448586 4.401032190335919 2.912236968907078 -3.2766290382513956 -0.8484864118218484 1.1042273584067368
Ni 8.955219410262673 5.886153081494058 8.173442934471478 -0.6554225325512067 1.2579677574874075 0.23216727303000664
Ni 8.616966822519547 5.36594081928674 10.879219370021593 2.3960773704638862 -0.5581152767576001 -0.6911297561448291
Ni 5.60186457729711 4.169477042849395 12.323113730640504 -0.293805614667094 -1.6881048317301057 1.6632936862236969
Ni 3.8833659355521752 3.16121112880707 11.22099784922622 -0.9098265054922267 -0.15505988922304262 -1.0316692845333524
Ni 0.12041205884307517 2.701699065727858 4.801532310870112 -0.6560856200565023 -0.6386268011501066 -0.8345291783108079
Ni 1.8495381677376317 4.160044602062425 4.799607303781217 0.4073128772593308 0.3045836791192045 -0.31966139938793336
Ni 2.661620587244574 6.872228333047514 0.3596766295465192 0.020635159751848334 -0.3937585356136638 1.514842046345791
Ni 4.525523497973519 0.8543010474038437 1.5792386120783317 0.174991338039647 -0.30038763875998586 -0.6991161167844153
Ni 3.7769315514131394 3.14071154135969 1.8597043471953818 1.5757566224429764 0.8116270769016539 1.3516518147061303
Ni 3.902681770470514 1.1914563153422688 6.519539601366879 1.7271393199247478 -0.33200577988589913 -0.434372195369968
Ni 2.80471372033855 2.845017675494033 8.844843881790833 0.16569628589096624 1.0182373273981624 -0.5450016221937776
Ni 1.5675326148466928 1.3875270715415524 12.503463125870745 -0.10155703220889606 -0.21816787342712105 -1.8745728029507847
Ni 0.6883661879300246 8.615858228881239 11.374959897406299 -0.8201127457751617 0.7409050277957433 -0.06767863429389634
Ni 7.0256746033399375 7.914663357789253 5.5803785294088595 1.2302245259358684 0.34029758758104617 0.5589711969999922
Ni 1.9484754525260677 1.8363665721367024 5.639862093993228 -0.13097019526369058 2.822130504445198 1.135257488239664
Ni 4.535998768369407 8.015629932627476 5.872435644449181 0.1724392610417546 -0.32852142088172454 0.5650521130867494
P 3.7638820890096505 4.565555002150095 3.6426273111042335 -0.00348693010733593 0.49380658737720123 -1.0381320094395605
P 7.588314059365942 1.0763598690462737 1.4567925657547993 -0.3676081024705411 -0.029209017463788404 0.3778500919135235
P 3.2316256145623954 8.977109437188611 7.849498720551616 -2.4363395604180424 -1.735609047958656 -1.442064914483065
P 8.348452290515153 0.27298272805846213 12.766410263044106 1.525256813921212 -1.9013521279271575 -1.1605738555172658
P 5.618127082279426 2.704996662058761 0.22632596766378646 -1.4743345731500481 -0.10418649941194315 0.32287630678080526
P 1.137642549577559 6.742466508197273 3.5965361213623224 0.7844772559597393 -1.1786880486194733 -2.053059041517568
P 1.175851450653864 6.762111163262569 10.479868241029477 0.41191566613866476 -0.7884609231978356 -0.004320995972857074
P 0.5070331507173157 2.1390220302564877 7.953410584420432 0.6936715487300763 -1.6094434731724605 -0.7189226099873812
