# total energy = -340870.83951590833 ev
CRYSTAL
PRIMVEC
9.20839621698456 0.00000000000000 0.00000000000000
0.00000000000000 9.20839621698456 0.00000000000000
0.00000000000000 0.00000000000000 13.47741866251180
PRIMCOORD
 96 1
Ni 5.136517082619016 1.1233414641342119 0.5405917922637629 -0.1103401777181648 0.05756391445739764 1.39819109591825
Ni 7.385271900038527 2.252198757608427 0.6571304923944556 0.19006443032268558 0.6680055114225398 -1.1185643438546995
Ni 1.3555588001879908 1.3135961385813182 1.2957281665423477 -1.4056292973638502 0.6318668567184538 -2.4868378262779105
Ni 3.3622156724020957 0.786327053978853 6.3688482036569845 0.2793583288935124 0.7782094206731566 -2.1807770483925473
Ni 1.7508015830454855 5.910197325219637 7.349007394017153 -1.4550610696324167 -1.5430051390435684 -1.4449113827929245
Ni 6.726558484332641 7.187982010873953 11.54642828757129 -0.33482242339908785 1.053419274615934 0.4082947815566259
Ni 2.445464577621779 5.2859785617802855 9.753675092994605 0.7893430686924727 -0.019371976768708575 0.5966532849317983
Ni 0.00665582879291266 2.6216856562188595 2.5861145424333833 0.12101822625730127 0.6353453021853573 -0.5500767227238397
Ni 0.7466158452496945 5.143948258374246 5.1082648021548 -0.9984596305506029 -0.3217069690630524 1.3787905799044513
Ni 1.0652456923377451 7.636522991093621 9.38789825722405 -0.7256601858215309 -1.1867055196073113 -0.9420622255974808
Ni 1.032334884222264 3.7514269557308717 10.87104767469444 -0.6898202933047862 0.17177180266108483 -0.24896943218900994
Ni 8.299978730856436 6.7667623422599465 3.0037530657546894 0.304216782698089 -0.29841817373844093 0.6099659428803043
Ni 6.426245058179818 7.166176528608295 7.577961274448065 0.8539078399477359 0.47057178521897663 -0.31595849661504943
Ni 8.496817408605885 2.2641880894960478 4.766760377999131 0.3042430079503341 0.430343019605917 1.5462583558735434
Ni 9.077204206004472 7.337406656450313 13.18464893918447 0.47897055080563317 0.5591020661509015 2.062522500923312
Ni 1.6458626996420092 0.6035210512398085 7.976636947419005 -1.0835258641933274 -1.3080186513972119 0.6420229713158491
Ni 6.484607873466868 4.766431638253826 11.362811945964266 2.7188490333460273 -0.6281145887648731 0.572801160904549
Ni 1.8788443325826334 2.74244456434041 4.125316388577457 -0.21457115721479822 0.6835218618905841 -0.9306786663508876
Ni 4.075350709809855 6.581645952907535 6.246797357544779 1.3995285837827511 -1.0499742534901273 -0.5523254095487004
Ni 2.936419430863245 5.093513872238687 12.331002062908512 -0.3196981661631398 -1.4823859826996146 -2.1130616473234447
Ni 6.394080130158727 3.6997494361046606 5.381506464239715 1.2276847902331502 2.2689795136714084 -0.19211128554938525
Ni 3.2827472129626436 7.052010832185314 8.307399777375817 2.279033041252669 2.029056250845067 3.559969234610792
Ni 1.4431214399110213 7.405788206832397 4.501848631141207 -0.05832213277966085 -0.6083320068213072 -0.3312280211796102
Ni 6.90309264840144 2.598996167915405 2.9106644674558053 -0.4890927268412997 0.4530947114801358 0.8451581187795637
P 0.3905704426118889 5.14434421941201 9.076407679730833 -0.2939313416116809 -0.11468019985441541 -0.9622029622114139
P 7.398329405888485 0.5476546321699112 1.827793904739484 -0.37295856814917705 -1.0585745935646287 -0.005676481559486998
P 8.755600967774708 9.294678899698743 8.906524740256833 0.737509114740317 -1.730030525429614 -0.39632629634084005
P 2.5357897362129256 7.968550133852409 6.555672750509514 -1.9468593683303375 0.9492867683703778 -1.3235676548754043
P 4.91322268250925 8.084907428577429 1.5860357493548571 -0.09627315810213742 0.3777241078586205 -0.5167973918454195
P 1.0609545796959394 7.9806315497022995 1.650956784434814 -0.2646598463410732 -0.10705327943677692 -0.2919099403062779
P 3.2590724262628945 1.237092782726976 3.927751168365695 -2.0473288239020095 -1.07660085493872 1.2401422992702127
P 6.92264207359147 3.126968773989617 7.652060318047524 -0.4611463781400187 -0.8910991042860524 -0.3623149723924018
Ni 1.3772261565102424 9.076191282419497 12.69931304932075 1.8445639152935203 1.5197831924011505 1.434147202297885
Ni 7.925077295264498 0.06789718874053985 3.8587600221533815 -0.9294663912103412 0.5485338037167521 -0.01746036156829251
Ni 7.985162080646008 3.5288047685456805 9.611138327796079 -0.22888268874146386 0.015968093293482175 0.037339874101038915
Ni 6.812141318866855 7.137833085021432 1.1535845998627163 0.47290686111005653 0.10760195285139533 -0.6784920127761604
Ni 3.694399357896743 8.102559924144686 4.350295004357151 0.2780640355621211 1.5086994237831628 0.060069968708703
Ni 1.2319176640473735 5.820111584930395 2.219178369577844 0.036123999416066824 -0.5185979353892681 0.3005493611488308
Ni 4.7084371588158564 3.314912140983733 3.5122959557898232 -1.2218332165483796 0.9069856936093219 1.194753329612452
Ni 5.232137069040717 0.6697312617915526 10.902395817970193 -1.4626000583219392 -0.14153537237404656 0.12906809314497125
Ni 5.762780110020773 1.6495921001139648 5.0317135626400775 -0.02659446265907678 -1.9437028249792268 0.6279446388459121
Ni 7.640915396093924 9.110179472893543 6.310073773058583 0.2180660577419341 -0.19553393807768904 0.14971507997136152
Ni 8.16466134829992 4.5783409369200765 1.5314796850680692 0.1778321499225518 0.47696997543583664 -0.15338995771978745
Ni 5.08775862459678 5.907582140691154 13.243207893311157 1.2706584655811988 0.5713718846571901 -0.5297652648599972
Ni 8.067669310840389 3.738949578843217 12.408214465272337 1.8010955596972402 -1.856424671286848 0.018331708429652302
Ni 4.147351159909169 7.02822554473084 10.771341922866798 -0.27355920571323206 -0.12479260569806896 0.5461611897195174
Ni 6.054538936078666 7.784419042896291 3.387239489149108 -0.5894860777593978 0.09601887599948626 -0.21451407872461767
Ni 2.7756224159464757 6.878865357928069 0.09375712786496794 -0.6751449506807986 2.0640780183358904 1.3907696066431983
Ni 0.7704932166664383 5.1430550439402225 12.733802176549549 -0.30822281853368855 -0.3878133737738224 2.7699977883057003
Ni 7.028870132466733 0.010175277830891657 12.96015560588594 1.4886335062712235 0.13551873386632143 0.2723268759680278
Ni 8.671482268240593 6.432948770633111 7.38938529063315 -0.6868136452679784 1.3299007961822837 -0.3417772574503662
Ni 2.9543297615248596 2.415960876110307 10.728537613844974 0.8552484131360304 -0.6168498144843313 -1.1177441619462491
Ni 2.6828662407513884 8.899270365709162 10.445457701231076 0.6726514948349835 1.6471713267405372 0.12256320214691796
Ni 3.5907496499650544 4.705278678909978 0.9708890978783964 -1.6581905606691767 -0.3300211453557026 1.1558841633510804
Ni 4.720039738061941 8.415405977562525 12.907997407976676 -0.6988278961200352 -1.5051448736626853 -0.7581753848404169
Ni 3.5175244831675427 6.635818947911278 2.3380495564728494 -0.07620955458304295 0.14267488529512848 0.7376278997063683
P 6.391676738743467 2.5139013783812243 10.909835281282026 0.30477085542934607 0.7302300645804004 0.3979401777951792
P 7.689590978550116 5.83174178936516 13.085562912422906 -1.5078429893201386 -1.845369441913951 -0.05588935496845213
P 4.592623159468233 4.8912698659039595 11.215934342784305 -2.7685248033045995 0.11837204688370583 -1.769801891790281
P 1.8214299821069688 7.173303827288033 11.695609831487257 -0.46865528492255415 -0.8260787335506096 -1.7067322170233057
P 3.6601349155358855 4.8018931721242 7.9908556320331945 0.2678906945735451 -0.278441730616514 -0.7345286919557543
P 5.653283070484907 8.153215311789694 9.590005058454995 0.45942425324258945 -0.38762388347083565 -0.40027628212752353
P 5.630740916521085 8.677633476920263 5.372072462305101 0.49073489043041296 -0.34646540695465494 0.5351273005028591
P 1.1562614806459202 2.8760031432175617 6.067345052711626 -0.8301127944106672 -0.6312379648852031 2.138177725664782
Ni 8.888008497123478 1.7146678362505363 7.5964931718550055 -0.44324841481367533 1.828491949432322 -1.455877394886125
Ni 6.750389813768249 0.9339155453475401 8.406176402024151 -0.9766538475294212 0.5455477245052346 -0.3644731563859852
Ni 5.770809831530761 5.071008551859774 2.3048809132630104 0.9043935074021134 0.6068428238702904 -0.8444790904346683
Ni 4.695232318626265 5.893723504369443 4.169212813391811 -0.6844929675546019 -1.6287452588248659 0.2370413132928563
Ni 6.042172059945736 5.982299067677449 9.55256556107505 -0.26306936192550173 0.5642650984090798 -0.8477297361614818
Ni 8.848449226932065 5.855278450121503 10.896910376337738 -0.8093585925824512 0.6692666375231506 -0.23438664927882857
Ni 1.9965000111756677 2.752822426888297 12.97898309281177 0.09593557225706058 -0.3112155826134253 -0.9056978280358338
Ni 7.546998962974228 0.7003068206238536 10.582792643400941 -0.4554596121678866 0.6974441283986311 1.2431317209158397
Ni 4.732443447779779 2.8463060653853214 12.596089690134374 0.05954494944316842 1.534616657869557 -1.7696895345821329
Ni 4.939429778171438 1.0433757512984985 2.985113430111892 2.7418256967468584 -2.3429660924612037 -2.061850414556952
Ni 0.5087463955917514 1.6034119930353028 10.16134000236239 0.8075097122991706 -0.3679981388201082 0.6317349591262797
Ni 6.7474247101831395 6.4090713992163675 5.166595388055057 0.3640836342570504 -0.8234366679420722 1.2910239166114283
Ni 4.812676204106077 2.6557290970702683 7.065064654676782 0.0955139113386097 -0.7033311833070274 0.9222886425149793
Ni 0.8547546463420711 0.3461850519578791 3.178056035417675 0.9485167229735729 -0.5402504806620374 0.9070134615234637
Ni 2.9615215189781865 9.035821673360104 1.723762048364372 1.1319695615170118 -0.37758963916328514 0.2677253726402744
Ni 1.9359455975865785 3.232423327581808 8.166614449139676 0.23117739831291154 -0.21107574246703 -0.06832475251832748
Ni 1.1127886420580109 0.4827335970899543 5.522722745419283 -0.7341090879198324 0.33860811569376525 0.5154149096755962
Ni 5.7219040391688925 5.049230694782797 7.362659762263379 0.11751715508257825 -0.962173394525059 -1.0988437254973205
Ni 4.9102483705279125 8.779736174285809 7.5575167931447655 -0.3755047316097984 0.7656092154106426 0.17392073068328756
Ni 8.791964924475332 4.165860036325542 7.272590597087345 0.3119953982022433 -0.38864435431555006 -0.9165352849709699
Ni 3.277286634000002 2.4906133443230116 1.7734127999810099 -0.9915683027474085 -0.9309640588017902 0.31466291773207744
Ni 3.378735535233426 4.06830628669616 5.752714412104984 -0.0634414562840972 0.006164991160131318 1.1000588288513442
Ni 5.209198954039132 3.5629034597744513 9.258420839554729 0.04403682650524029 -0.10019100509930487 1.1748861583748798
Ni 8.966767910053447 8.322741886329707 11.187281497084212 -0.005172802450191091 0.20382060356651346 -0.8578187449663678
P 9.012708598830205 1.3624743057545063 12.46402471312525 -0.9341841084009848 0.5922808668957155 -0.34128926207035415
P 2.477500588095691 4.91313059854698 4.03701247295815 1.9542579747872535 1.8021329998228188 -2.494346218839814
P 8.58567843219693 7.54321431212491 5.0509185938112156 0.8968385778729909 0.17633988164774145 1.2440326354635542
P 8.187535004527914 4.532483123709361 4.072188546545485 -2.0008772173076896 -0.5376531522485063 -1.5936214185385391
P 1.3185318389590177 3.830453412151426 1.2154972518952956 -0.13662636510820342 -0.0633380979370135 0.38902307781120743
P 5.162825470639701 3.3195715894746214 1.1924937572804988 2.020424800422314 -0.5325070892711926 1.0094747507141841
P 3.4166465025001957 0.9723974331803873 12.395788655403555 -0.08675159176494737 0.15269498853529184 -0.07224619905992073
P 3.536723989300944 1.0299038676183225 8.590897751178423 1.6917118323550737 1.5599183698591392 1.371416141817251
