# total energy = -381171.9225737484 ev
CRYSTAL
PRIMVEC
9.16648222540163 0.00000000000000 0.00000000000000

0.00000000000000 9.16648222540163 0.00000000000000

0.00000000000000 0.00000000000000 13.41607329909910

PRIMCOORD
 96 1
Ni 4.797003473845665 6.906330196266073 1.4210577385575867 -2.1672404473586933 0.554939964353412 0.9317960677847823
Ni 6.7973040567760465 1.978621852486972 9.751352364892284 0.11387493034430066 0.6973446267062893 0.859054674255998
Ni 8.176309641514528 9.001797197574245 10.178211608888235 -0.9903909946098555 -1.2471279865594265 1.9319515979805697
Ni 3.942430669711132 6.755321568221792 10.076141912752755 0.5428084711972007 -1.532351001763832 0.5735899753544315
Ni 7.016401314728847 5.186505636214101 7.461067367079709 -0.7498385828399473 0.084495448740919 1.0493852137558766
Ni 0.18107743966099027 4.813603973140809 7.241446702992313 -0.021360210843330958 -1.058067829131539 0.5964175147719083
Ni 1.0627161158379141 0.11698539599912203 11.593419298494876 0.8871696873246592 -1.3145027164596585 -0.7475708698516931
Ni 3.695632302498298 8.662866517597475 12.883173595830252 -0.4343855651064067 -0.43887085457126995 0.39154738689495794
Ni 6.714998212948828 6.897713702982012 0.24244337151149703 0.8194483727182855 0.2732517017751423 -0.8181360816647651
Ni 0.7653077670081019 2.717403653255269 7.355188080934808 0.8856272825382038 -0.5948110895167369 1.0325892252444604
Ni 6.9047627278069506 5.447493717898986 1.980292902195147 0.1475000745979137 -0.4498597494826059 -0.5032430501997526
Ni 4.6627511752942175 1.8803296636731546 13.26981123250585 0.1988779148492575 1.1605676848696789 0.8522440790920677
Ni 7.008508973539936 1.553911231922707 12.16431331086435 0.19691693446814473 0.6456484838835783 0.17676899876536006
Ni 0.18231491476029693 1.5420039715227118 13.177562505417756 -2.0547865657316353 1.2401402423876835 0.7835552583661022
Ni 2.8844902911083206 7.0550747032027346 3.6019068551250326 -0.3906667840622175 1.1163367400757611 -1.3970695807192972
Ni 2.7150753667721292 4.599447449103018 6.683350933094338 -0.9777231693342 -0.2588913192884122 0.6711394290658312
Ni 3.1597230861585577 4.222393369585386 10.530276024585646 1.9307820031525003 0.31733197992380835 0.5383563489631179
Ni 2.6459967567841662 8.345055412648872 5.711262910288535 0.9062948381898843 0.4708430366024923 -0.38689189040081756
Ni 4.725349082354701 0.8606391820658005 11.173039840778184 2.2189895549065266 -1.19447719313293 0.7889062382653703
Ni 5.2931118243988164 5.3033507850353026 3.6363728282612775 0.0024970553902408607 -0.020402989136384213 0.06984787403107326
Ni 4.625214430615249 5.809001443576441 7.58685625260012 0.928320450531356 -0.09788935354932174 2.291893956375737
Ni 8.309507794611012 3.6892157649463373 3.0622320478905127 1.7479282316456413 2.6502594572020874 -0.5280238566888584
Ni 2.989217350438533 4.880097635143554 4.160002625023009 -1.6650700613978293 -1.320476160434274 -0.4773589833441391
Ni 3.150794932479115 8.934652715334089 9.993069751012188 0.3623921054872404 -0.2909653170048215 0.8607675431820466
P 7.980751909895206 3.747551257775875 8.965035937290843 0.11562302338365893 -0.2654998257438653 -2.2288633623768126
Ni 7.736144331932255 6.361813653124488 11.309132768958824 0.5002405159280029 -0.7945744922947413 0.2281098151311813
P 1.0588020279312182 5.39012987218446 5.401472477279882 -0.23118022652638895 0.1909280638745615 -2.205819593183472
Ni 7.7203688160366495 8.00254063812522 8.163412401035087 0.5863719576104482 1.7248063009161974 -0.9492276329976684
P 5.774370473760287 0.08202809941604125 9.415480540031355 0.3407354464494132 -1.5350529740760275 -0.19733139629774402
P 5.494756100210283 5.385289969573837 11.58887089001876 -0.1873190063670645 1.7584378729277137 -0.4943588603362455
P 1.1326838746009347 0.45993282848341965 4.57213041544788 0.6919764204158405 0.19922552799666335 0.7156092293434321
Ni 9.217722852679934 1.5433056119975381 2.5686948955992546 -0.5409745033122554 -0.27989620367485346 0.4276832133855667
Ni 2.3049761188619 0.8904513321804307 2.7702447566438857 1.1978479093773757 -0.9426150127771573 0.08269901896212853
Ni 2.260032856551525 1.5254951370497392 0.3889228406923163 1.864626747481666 -1.8078254222219057 1.205244716062079
Ni 3.3239039491487925 0.6664765890399194 7.704367804678503 1.2588267630535934 0.5790273443199189 -1.9733648708200338
Ni 5.365325371305023 3.925060185909754 6.174828415674585 -0.8476801138704692 -1.4994794478467917 -0.5456888780687893
Ni 6.061895521463637 7.868618332933588 11.539110641303305 -1.598835615749627 0.6258029099125609 -0.4582762556810753
Ni 6.45188350738958 8.248055697827663 2.483449360925016 1.364589862924037 -1.7470548279017526 0.18627488137326628
Ni 8.578874041042312 6.002157556854885 9.017909123367218 0.4906122488096196 0.1998585335949719 1.8170106882655999
Ni 3.9785924420575385 6.179281492735646 5.584158634569971 0.19531847963277327 2.0130555045414367 -0.2801664266171046
Ni 7.257479797038219 0.8913276478803842 1.2836393370483574 0.07382074263589222 0.7482190449586533 -0.3261079263442255
Ni 1.0275626565353877 3.221211848870773 1.458621982683207 -0.09784024547894117 2.260798520522513 -2.657139472151372
Ni 5.956315979287236 3.208562103411194 2.226611862388028 0.7949894683449729 -1.2807315335464846 0.2127888685033948
Ni 1.783980769089359 1.3000180074738474 9.033846885998067 -1.5939461488678097 1.139486181609031 1.6685639334837006
Ni 0.525081767544918 7.469308034592869 4.621809999119823 1.8055253133338194 -1.018653846110291 0.3013772563667648
Ni 0.8625238108096335 9.370894770527448 6.986608414226872 0.6117986252136689 -0.22886597657091554 -1.5831220616691124
Ni 8.661198217833965 1.1280731340457402 8.43856269774537 -1.2948818569049378 0.9894520277353539 0.2862511993586038
Ni 1.1031678018619164 8.175383826810602 9.038824285841944 -0.6468921264826923 -0.633601065800741 0.9937691670534691
Ni 7.927265486158507 3.795372795502415 11.005231800774649 -0.5397154340941738 1.8225750697272545 1.455271900091642
Ni 7.642765377586795 0.4116557165906906 6.244953837931741 -0.44770285104060314 0.1738168581155716 -0.4165739908462825
Ni 5.521815555715123 4.4983044843196875 9.346026104272491 0.4054076898168179 -0.3902944883244633 0.5900830879134483
Ni 7.184835425467809 2.290254748421259 4.149081678109572 -2.2193333113991907 -1.3513247703840148 1.7047144152623286
Ni 9.024979231101257 1.914419811038499 10.872251809954934 1.3116228238087022 -0.6447794510150637 -0.6392109557883507
Ni 0.07075607623369008 5.736897894456838 13.171659290869954 -1.6434961918817954 -1.364670081342669 0.7151122351023554
Ni 7.019490419236004 4.323673831601974 13.192776115953453 -0.6966874527382647 0.5705241919449142 -0.25422862370542026
Ni 1.1732088924826738 6.787129261515081 7.118890835749868 1.1826159229189697 2.1098935340081084 -1.3848717531015244
P 0.7714685597062055 3.643346687932037 12.619573983361718 -0.23282727521150873 -0.9478304955398257 0.152013389087235
Ni 3.3736137822120518 6.109799557530132 12.395337995478021 2.5983368001908675 -0.3851949623143689 -2.066520823449428
P 6.169638353443272 0.4489138002102601 4.165530013799913 0.007879916968709008 -0.3817406852171813 0.11656918934701214
Ni 4.292397794277275 2.2733334222485175 9.55335726565144 -1.4871846896398389 1.220166627479234 -1.410675601538506
P 8.770710180881498 6.6554069120555495 1.6029253289856897 -0.9546297778498463 0.9069895502640637 0.79829899233418
P 0.6166457584113944 7.137967201891847 11.054817886327978 -1.1309426629143942 2.173158612615341 -1.56563778884142
P 7.923232233982989 2.9843224489346087 1.1283646281802437 0.024617541438364053 -0.7802290222063466 -0.339127478532345
Ni 0.3059203442165988 8.760397888387274 1.2400701304223238 0.920256185465983 -0.9223128108846955 0.6902668939239016
Ni 1.5454597353185533 7.363765158345337 12.918202390974628 0.8729221762667095 1.1987282550998 1.49826023072771
Ni 1.6434585967014244 3.0683699243830738 3.5262274612925455 0.6961359511101688 0.42844785946573305 1.4756095832077296
Ni 7.391337936854332 2.7552795577762703 6.895365250237995 0.8312096270192718 0.037128529421181215 1.062690415505215
Ni 8.115251703466516 8.617409932282944 12.753345958244994 0.3816632950120265 -0.4716313368317425 -0.5158489118892213
Ni 2.946189882911529 3.499084590799531 12.897984797796619 0.16593745536749485 2.644731585405322 0.6287470801425494
Ni 5.636827408092906 1.5372099013231755 7.771059462697138 -0.30214575910167313 -0.9595673243607796 -1.6610892223732103
Ni 2.7079805095361045 1.7973913325729567 11.508669670508581 -0.6326009066710008 -0.045474330282715233 -1.8042191929278866
Ni 5.043508513627554 7.811492815756706 4.346620286536006 0.05567132542037508 0.11437295302664173 0.06010133616727069
Ni 4.566484779050376 1.066951030622208 5.4140828068659275 0.11999467008879333 -0.6010544993232875 0.9591274086098837
Ni 4.299510984477734 2.9592887859997457 4.078365934397637 -0.027150592272862914 -0.23609129067476112 -0.8764787832697163
Ni 0.028037519157402234 2.2588045479344356 5.281385143698499 0.10227616976310773 -0.9310339928077772 -1.0662099986226994
Ni 4.514336661717372 4.5979258130549825 1.2472282363856466 0.3820926692399613 -0.6314107430176416 -0.6075910148902246
Ni 5.697115361634683 8.192048491481266 6.772930380560814 -0.623305597412004 -0.5365617189565405 0.1034118260294477
Ni 1.7774359007863594 5.689333018232377 8.993115622266442 1.425517551647345 0.41425177047100914 0.3569740197954626
Ni 5.445642088491135 3.30799093601993 11.494234294313115 -0.7684389715499541 -0.4650225732659733 -0.10074379227898134
Ni 3.327763038162186 7.628786492205739 8.058538677989402 -0.4146004120596795 -0.9493273918003262 -0.9287891626376584
Ni 8.31926093168999 9.096633622592222 3.892056266687134 -1.5649628742615822 -0.21755440821283822 -0.36501385938080366
Ni 0.9574299010924595 5.529359570579785 2.844637176373094 -0.17428197067744822 -0.1242372474152312 0.6607627138171975
Ni 1.2280977879985875 3.4900097734046156 9.715571001557887 -1.2974483320805332 -1.1562600586332603 -1.6039971053459086
Ni 1.1024344832845496 5.148565566317581 11.178781725238967 0.3239862520155324 0.3147228244357354 0.14994570792492884
Ni 6.293532527089411 6.828992585800514 9.357912281763387 -1.3376698986047415 -0.053205123268069664 0.1325524521491459
Ni 7.725502046078217 6.330170956511106 3.969574456852369 -0.279443432408151 0.4357024841456174 -0.6223257499972379
Ni 4.720646676977335 0.4375290292966388 1.747577918260644 -0.8641382594264925 0.04831282817277486 0.5177253029763278
Ni 8.02931593268133 4.331712836506359 5.331467135939771 -0.1904387829429688 1.0081004960744768 -0.5912318568059107
P 3.7869487983449126 2.9352909355554133 7.442673903862904 0.34164484563756004 -1.1510607738205079 0.16745414912233741
Ni 2.33970791998244 2.3012361941173287 5.648582504888098 1.4448869573128924 -0.8569988201682337 0.47836608445241485
P 3.7547102803874197 2.5789072734373106 1.9350003969123013 -0.36373345000648327 -0.08349554672149492 -0.2941270025622547
Ni 2.5281799608479547 5.476120641862948 0.8163045741746404 -2.3786370635002516 0.4986253489220832 2.437596058532963
P 6.162204336365215 5.81809459393579 5.573237687656534 0.5073169631588101 1.8325640626191666 -0.5720239164188924
P 5.850094783355639 0.07988772581835156 13.221352624265222 0.03952222646433839 -1.365137765007707 0.27613673663242116
P 2.6838084959296475 8.012092112595424 1.587081064473456 0.2633131025051917 0.27143316050916483 -0.7661866851806676
Ni 8.164200718505757 6.8992628384767 6.266741649513533 -1.124631633094702 -0.008457386738733821 -0.5025012869377217
