# total energy = -381169.73711363046 ev
CRYSTAL
PRIMVEC
9.28632455699332 0.00000000000000 0.00000000000000
0.00000000000000 9.28632455699332 0.00000000000000
0.00000000000000 0.00000000000000 13.59147466523052
PRIMCOORD
 96 1
Ni 6.9288795526867775 0.8360914359840783 7.402120861630198 -0.2707111947414757 1.0104301726489178 -0.3682359658625271
Ni 6.124126675825076 3.7401507492723516 3.9536916372715463 -0.9340838353776946 -1.221724201774341 0.9570386444016549
Ni 4.880093507167092 7.609715716083876 8.246396335352312 -0.33640390895359484 -1.0010878122020694 1.1384078609431878
Ni 5.9619688782742 3.9094032987032468 10.848483878798662 0.16296166056862257 -0.15804596843456004 -1.5665014223932958
Ni 5.709334421604194 6.458415783386437 12.08556623360561 0.49720198621199535 0.3300823376109412 -3.253206545562397
Ni 4.725039747820682 8.159586845758604 2.3316855622056143 0.751249604254861 -0.06595136719014447 1.3518531320836589
Ni 9.00492096046805 9.002747960546683 2.8806178444784187 2.4768861143818373 0.17309206413440512 -0.5901051994006353
Ni 5.549851085494999 7.059380270186633 0.4852132384247283 -1.1782910702913707 1.3704974866577238 2.3457117735271407
Ni 2.6028081622236914 8.690040271007785 7.660290896305018 0.34414755745475567 0.2711863346056813 0.12254314754225992
Ni 2.7791833225079556 8.093598224214878 1.1442367543205516 -1.3516039921873304 0.26057307786620926 -1.1848808076937465
Ni 5.846818455090665 8.260844927564511 6.223400270095959 0.5386584535845691 0.011453750362896404 -0.692265412411169
Ni 7.963747549426542 7.337338533632566 12.43717805079653 -2.833050493791811 -0.8229242470820278 -0.19151453250565081
Ni 7.222949589053954 3.5429927948683497 1.4555654246785825 1.2580392341552915 -0.9242586217571566 1.3388981145848877
Ni 0.23650225383496928 0.27882189161980825 10.197302663901105 0.5558105398838235 -0.44423031911097044 -1.2554025678633927
Ni 2.3846538282375955 4.593053218408781 12.002141609274029 0.6830104694718043 -0.7224478495318203 1.484838043784533
Ni 9.364701028645444 5.175760791339717 11.760309005204597 -0.8974736403538286 0.24983975060910524 1.1324680984199853
Ni 8.108409911713084 1.151643526702099 11.667112381653979 0.28597814820287526 0.24018268713531538 2.2792456714841074
Ni 6.022162833360947 5.2401428787535425 8.90600396105606 -0.3549294785616081 0.2844033475165876 -0.5239730836582525
Ni 3.683188435094303 7.023145032181621 6.3719554595920584 -0.7331050721353504 -1.1408948890310997 -0.9071816116702119
Ni 4.205386317907181 0.5178045227154487 13.238367764966657 -0.17818541949691247 -1.1720980541067814 0.38028389816599667
Ni 4.692825488302644 8.130641372447066 10.679664072087151 1.0962340557886154 1.1070031213796614 -0.6791545860608239
Ni 5.586439203829123 1.7500171289806659 11.810107848701694 0.1365461466895713 -0.5811744725699087 -1.800205958003435
Ni 7.041151215290724 8.962751761139307 1.1127542571691953 -0.04884761763032232 0.15174445169656445 0.19906586249034747
Ni 8.42237125505277 4.003845218362645 3.612151767579403 0.8117546036184535 1.6501923729550483 0.5843986359341613
P 1.7860202088744208 8.916524438025787 4.234886184788403 -0.6373628468360184 0.9205186950987501 -2.087209719257347
Ni 1.58074600690087 6.409077541582072 7.652584175643727 1.1758210114843233 0.04274793249048767 0.00594593317078976
P 0.5225758362180052 7.721309477002951 9.198369956886609 -0.7316634545928173 -0.6646080557052166 -0.76946664148352
Ni 1.6035717923996706 5.24951278012388 10.050352151270015 -0.20586951567574224 1.300275260006367 -0.5208540784132966
P 1.1121487888150368 6.683813450443756 0.1671603405322459 1.2245614141128203 -0.5608339612403439 -0.17893721006127247
P 4.639531272282458 5.505304587106982 2.4933558277228522 -0.7320923146001198 -0.009962510529350583 -0.024326235450190366
P 8.809471689762901 4.551561920764907 0.4809220278962516 0.3737671800934015 -0.05263665235910935 -0.3984099183427461
Ni 2.8196438381378472 3.6762144054321393 2.68388148920446 -0.041054603948464774 -0.36658223230918796 0.16380421107457596
Ni 2.6242131400815984 6.946718581955776 3.458649753048636 0.46312278514009914 -0.06006739760554171 0.33299925414742004
Ni 0.06745678943931555 8.51195642702467 13.529946280483824 1.187484820975497 3.2151408490389275 3.028564634375158
Ni 8.006548218817906 1.8659940350402757 3.219127586502434 -0.8555703152518234 -0.25670819559416436 -1.811378943901119
Ni 1.0397897486984158 2.4206383354824497 10.677937744371844 -0.27884153715809396 1.041638222820606 -0.9186726430289469
Ni 1.9389473999217148 1.5839126435384172 8.143209483958081 0.9445466825822314 0.8750690474063832 1.1781501738381324
Ni 1.8341419421757978 0.6658155335987618 12.489124821138981 -1.028335849284745 -0.5618325777081872 0.5108895110014169
Ni 1.2166942294763456 5.2699426939145075 2.012924117757575 -1.2171975175485812 0.02613834895826466 -0.7340908330873873
Ni 5.886693932280188 1.2082901058488378 4.511852668783043 -1.1611186722771423 -0.19194467806453394 -0.18954789569758324
Ni 2.871489387543789 0.5787748145262401 10.297730548301159 -0.005855944560144754 -0.9347350958084482 -1.1729516603563281
Ni 6.125064594594556 1.8576827746572704 0.3758602675955068 -0.14020662626029404 -0.647243339174524 0.1400389903341782
Ni 7.788133867747202 3.441743999386892 12.235806890989435 -0.8285210244435149 -0.25442377043536185 0.3236872327178748
Ni 3.8899020173576484 4.5883729108858375 4.583031417062033 -0.017654736967285724 0.8241236667067678 0.4349406662789284
Ni 1.5029358943319315 0.9342971029431777 5.9587065924948135 2.8908476073059375 -1.096177491519067 -2.632851031917653
Ni 5.421476936294259 5.383180134261283 6.586768574040942 -0.6960274505567626 0.9750654199963787 -0.27679725303455555
Ni 0.9307961586254202 7.561900431489358 5.5389740136663805 -0.3558062247396066 -0.8638253561717639 0.9501956533378927
Ni 0.683056523573161 2.821816838059214 2.0698047122804617 -0.3164341506998873 -0.5928544800109984 -1.371643941557341
Ni 2.5648085225731254 7.480663665198264 9.904025679641983 0.17702868018464996 -0.019177087149083102 -0.14479604540318936
Ni 6.9065459423838425 8.961414530418464 10.371681264428558 0.19979965533257849 -2.0579539077160236 1.396309305514505
Ni 7.4747482765234325 4.241287248231984 7.106723809499076 0.05520518441723396 -0.5665397533758695 0.37141333514924424
Ni 2.839674439977112 2.5371352757112757 0.2613598871234923 0.03303327630588505 0.31824523576669705 1.5998784551918448
Ni 3.32666786679896 2.2042576894663584 4.719721469808004 1.1105628137064616 -0.08045521723327434 0.5576959298319943
Ni 6.564140587252932 5.165025800275187 13.562660144257288 2.2925634716389354 -0.9740449491516644 1.093604074364936
Ni 7.257160408328804 5.941641114052525 5.211501068251529 0.45332405388212255 -0.033299899703710396 0.14759391986330064
Ni 8.799470318329945 5.884845953714582 8.410241458055808 -0.945191772365398 -0.13569434021223728 0.31620892206295864
P -0.05329143012285075 2.1297813673750725 8.691598516250544 -1.2473056497878714 -0.16226412028096573 2.0136697410866677
Ni 7.074851286720809 1.7707906367759534 9.77115602077486 0.022940667956573395 1.3283946439504026 -1.4716500843393494
P 8.000317095111765 7.92065900397722 5.615412536114012 -0.093673001475129 0.07056289782022686 0.18318775780751032
Ni 3.3230647729122498 0.7902987128548328 2.798647458555753 -1.4593100747167576 0.4778474929447835 -1.1055579042927024
P 5.411661291350308 1.0034430748 2.3161504700327327 0.9701165606315356 0.06433851417706983 -0.08846831734573796
P 5.434162055493348 2.909461168221004 8.763279654682293 -0.0052471073315522535 0.5002929664324933 0.27761434961921216
P 3.475128335785667 5.842333160381178 8.686650762583431 0.5739746123873599 -0.16252354458993945 -0.8198263248829945
Ni 3.775773089863645 9.02380934439993 4.928621981479391 0.6867943619942688 -0.7686683139519407 0.20743994548665562
Ni 3.184392089896143 2.2940564469006146 11.61221627466612 1.5817331517413855 1.6070333210690708 -0.019105096260567094
Ni 7.544637154336278 6.315276378309744 10.39217711112278 -0.05192882765880734 0.032234434553673516 0.12076497259591461
Ni 0.6891659964290036 2.9863426483449143 12.90821757221279 1.063692374407168 0.6576833035609254 0.27454985176127555
Ni 0.02061099711740764 0.034585058150196565 7.295183263790496 -1.1209176745782243 -1.553585485662576 1.7473204228583135
Ni 8.167080909589984 0.7896709573219934 5.110081404400186 1.9490368355976304 -3.1556187824138946 0.7456145174562708
Ni 8.386488897376868 6.808380206619879 1.4860514992164233 -0.05151076628478225 -0.01419377500187878 -1.4702483188958164
Ni 0.9639669095618383 2.8045535609061343 4.456997421622765 0.5890302211689017 0.45443888421285605 -0.13546679758246347
Ni 3.0967663323832535 5.453793345381251 0.6430658959604535 1.0703134792681113 0.2883831580999421 -0.0022142340424994127
Ni 0.7949910925995618 7.591514520161318 11.675022472820732 1.724205691217721 -0.7585919035525452 -1.7879096571345854
Ni 6.806912967356734 5.519726248978274 2.765552855479827 -0.3275253755170424 1.7853658076668093 -1.0439113351254992
Ni 5.147344638521845 0.524264090003067 9.045887580780484 -1.1201836246256773 1.1167874544599348 -0.8862530890476608
Ni 7.239377097006508 7.888890488032795 8.423493043046365 0.711883957973045 -0.6942474758382043 -0.9172526227529686
Ni 3.2401936135179055 3.614525352108896 9.363492877834462 1.5079491758807 -0.38403076680293863 0.3415471437174311
Ni 4.884866677934538 3.2855573084575482 1.6760190525985692 -0.5278749898158198 0.7660866692676935 0.3581197033641317
Ni 5.207668602150896 6.69144680914189 4.377881651836116 -0.8430426150984578 -0.03850355539183692 -0.45511611278553876
Ni 4.871494370726128 3.9835360267898725 12.699166622085308 -1.9281844176286536 -0.5850157006928699 1.380607835618848
Ni 1.2529480401302584 3.9842975053947955 8.275128223201495 -1.8718137521484084 -0.6075107964715925 -0.7810885419931645
Ni 0.15077462103971792 5.096845606161194 6.1466218681734475 1.113960269423785 -0.18310625383729753 -1.0361553453291639
Ni 5.3934879544011 3.090238046294703 6.491682183464693 -0.8358417264746444 -1.4841613294324827 -0.12788718546299266
Ni 4.2021453906740325 5.5366273594777935 10.746167156005423 -0.8445798776785907 0.04537071482531541 -0.869613937829083
Ni 7.001350028696803 8.239764971062364 3.4316302634280866 -0.8103402397694301 -0.8026595832957208 1.261477827523195
Ni 3.504361685155164 7.35605976372434 12.28510241570133 -1.8842306377555225 -0.5799902224538205 1.9108317852828187
Ni 9.114258144545706 6.326605694139092 3.594469677193615 -0.3444805153141422 0.9073705877525663 1.6628763961806199
Ni 8.008099035001104 3.8836616073270567 9.698754263565768 1.4291795738799644 0.7382344229421156 -0.30468215237028173
P 4.399776947624999 0.7611015801506916 6.7270050740944765 0.22606090302195264 0.11037540183147443 0.47275799423701803
Ni 8.490022128673097 1.6252367873421858 0.30905073497037616 0.28601800030187513 -0.7695252626355974 1.664721676919475
P 6.246678299595488 8.848697124240905 12.647233781229534 -0.25408464192838826 0.04936672335858595 -0.7298878507496332
Ni 0.12571175998084366 2.434400668317773 6.651504470416325 -2.1109217181623063 2.0720926611102506 -0.23236293398058047
P 1.3733080913304028 0.826079849594226 1.1448152923338044 0.04053215578609149 0.2378391266038033 -0.27845381480137205
P 7.400114086916492 2.5883772140279486 5.533592588647441 -0.6772486272873627 2.6232965554599983 0.04871237760403868
P 1.5631577083920303 5.120934331785234 4.289414553328031 0.315501868693605 -0.845874171009982 0.5605395699283766
Ni 2.5059239392338677 3.7512850522882433 6.355930978120647 -0.32133467332529825 0.20347119064689476 -0.29135355358217563
