# total energy = -340889.21575160313 ev
CRYSTAL
PRIMVEC
9.10027391476660 0.00000000000000 0.00000000000000

0.00000000000000 9.10027391476660 0.00000000000000

0.00000000000000 0.00000000000000 13.31917074404448

PRIMCOORD
 96 1
Ni 6.5342968123384795 1.8736735488285274 11.593232684695497 0.03923014914521631 1.4028404217648034 -0.82505594871305
Ni 4.614129965271239 0.260357919999948 5.717360693814634 0.4466846941887339 0.4151794244916011 0.6658648109304532
Ni 2.66438722873917 1.7855464984970164 4.7902930631974465 0.6856687330302579 -0.5865686470022866 1.1113292595588407
Ni 3.209138711586607 4.397889262051767 4.8795576477391425 0.2822194524913914 -0.5312799017323109 -0.33502605476946173
Ni 5.403442203034933 4.474577268365651 2.6545507429168516 -0.7909507794992249 -0.44744008429751975 0.5502204473905556
Ni 7.2910118697750885 6.025655215459178 2.7290710640398044 -0.18714828511715512 -0.2826650246692422 -1.0514369540785828
Ni 4.787699485198223 4.767706183919998 11.240380493024293 0.28058911597681996 -0.41950402000888404 0.9478261246644515
Ni 5.609099287962835 7.8793627638305255 12.486096026653453 -0.3236208982563136 -0.41238129292117365 0.3692908894896027
Ni 2.115977435871775 6.295805939967774 0.4549736428701044 0.7828983415083935 1.3451726347396897 -0.8535730823161364
Ni 2.794120730342435 1.573373617613169 0.7005900295334131 -0.07677699705073873 0.5002747116000481 -1.6292563941333296
Ni 0.737112157899321 0.13313882401487734 4.769714614321502 -0.5563126763312225 -0.489035648351119 0.03566865704620309
Ni 8.659019611218163 2.1502581668299334 1.340015299598822 1.0108664888553882 1.007437151458865 -0.6090565436921574
Ni 7.1331403219486695 0.7066808427084317 4.897139376491774 -1.6177298815509689 -0.0805223230257839 -1.3527612457202252
Ni 0.20882853030590132 7.475783826603982 2.5756340795783723 2.0438120689980024 -1.2011281227905444 0.1743231083280288
Ni 7.694590807001633 3.789681570823328 3.888864543650477 -0.4676484409245946 -0.15309865173161374 -0.6713831696455212
Ni 8.032110857574269 3.901341928895162 12.708433003212152 -0.1359023424579853 -1.0278946479822684 -0.25852210887445154
Ni 8.22673841080021 -0.04757623080680911 6.768056452422179 -0.40126769950651536 0.49416165672377477 1.5489235614105323
Ni 6.784235829000494 0.49282077108403677 0.056228771023166056 1.1571581449674975 0.10907493785249602 2.490198000999395
Ni 1.505558378138735 6.641652740958969 9.3305579270508 0.6108956537834253 0.7317295319440623 -1.0877147054636944
Ni 0.19036134492406168 4.970687788385544 1.2172007360755905 -0.5892060846251337 -0.4039948686296913 0.9108179228712184
Ni 6.368453424767077 1.9851519014267318 7.166059651964077 1.1333039640577192 -0.4507349529987076 -0.651252203223601
Ni 3.5853713264002844 4.296448511324242 0.8093610507113752 0.0095948427772867 0.22904363979936038 -0.5891937433299594
Ni 6.261124796967631 5.658950587190016 4.96823708468312 -1.183285952402801 -0.11713020405680472 -0.3909007544498945
Ni 5.484052427305536 2.7056478696110275 9.347114054959526 -0.2749995377041845 0.6823522670625151 0.5363485745044698
P 0.4273970835330972 5.899552723054827 12.533432920262438 -1.9453539874294044 -2.1480191372352357 -0.5523243811074359
P 4.2446770543502685 6.26681246801856 12.775122538832187 -2.505670642713697 -1.2174751966900001 -0.6312441355327902
P 2.153434162344772 8.078649657181389 1.9463701751057108 0.3520891808993356 0.7337856431421427 -1.4666762852738418
P 6.430280684159093 7.804822422105474 5.794571965865202 -0.5055704127813487 0.6819285492615352 0.0635016200980713
P 4.780837878842382 1.0434373803191914 12.742903019862885 -1.2437156184437677 0.8442993703236944 -1.130601991745524
P 3.904709030157312 6.126122236902785 8.275679682659243 0.08274041372302525 1.2909167016096024 0.7881601041279652
P 4.909415645688099 1.0330812688696602 3.6881980488095 -0.046730571287319514 0.5610584185463241 -0.32391708934049374
P 0.09206746883559444 5.572588989952713 3.6548073246173916 1.0536964395367208 -0.8022325230606313 0.5910860752566659
Ni 1.6612094591868727 1.219736982350621 2.6781122615055866 -0.8346567050276078 -1.5635091725341914 -0.28031503637982697
Ni 1.8920015000230406 6.615180044819527 4.66152328057705 -0.7367367553506666 -0.26649844221170876 0.3993206030824736
Ni 5.9446718799676335 5.761328666106735 9.277535182445622 -0.29931266052825223 0.10474699990110349 0.03463121692062423
Ni 8.713621253307078 2.436225166996951 10.491603604320044 -0.37675120242238985 0.6112856901329924 -0.4832334398470452
Ni 2.2389676346770595 5.3543553267969966 6.9388085276173745 0.87572210760935 -0.31374426257255 0.23113111845600842
Ni 0.40887438648180047 -0.010552677361051234 9.106157008421139 -0.5974313007484033 0.6441019653320649 -0.5356703174905226
Ni 1.3584706546248757 1.128524939241086 11.358668580418355 1.174692811417151 -0.7046568440969865 0.02642965494643835
Ni 4.229261190733831 6.91238588298318 1.6216087082345179 -0.26891039408731104 -0.009080879255345653 0.4833303704362256
Ni 5.850220139427491 7.9348744332875905 7.933523952673259 -0.837736372394196 0.5280102298421036 0.37850700877123195
Ni 5.289042662584971 2.9602735272190075 4.881116524620781 -0.10475805564469702 -0.46832746926949015 -0.3466649245599707
Ni 0.7017939957414737 7.358190090091819 6.693655344884454 0.5480568640803336 -0.3673041980768771 0.9459330214067968
Ni 4.8198598523885945 4.7369290583292125 7.036384392112374 1.684553881154054 0.19721955331022809 -1.0230509467367221
Ni 7.949389369809561 7.29940232210942 9.54148043033081 0.8829016560769246 -0.6075190240017085 -1.2075006019757915
Ni 4.850900885916143 0.4017233914228887 10.599529210072996 -1.4914794603604509 -0.1184088136589122 -0.16631797863536518
Ni 8.239797303533145 7.283859054661441 4.766797976606585 0.3644266194187659 0.1776452307227263 -0.04868898056527098
Ni 7.396365738185653 6.387181788003575 7.043310610411352 0.9678035962276428 -0.9716584511973588 1.090141312627316
Ni 2.3312717106283727 5.427203017617292 2.5728903470634044 -0.8019242477915931 -0.8146380958138356 1.0088998520473205
Ni 2.1358888346868667 5.434637941215067 11.253779735992914 -0.05209774913650383 -0.738688993981031 1.2509046799930392
Ni 0.9620354322382987 3.313036536208133 3.6879314107906325 0.46088592538978046 0.9468779018185695 -0.013422186943176885
Ni 3.615647936938589 2.6422917642405217 2.777833060507311 0.7976978684150713 0.7846937428459195 -0.17395184103153913
Ni 0.9814463160009084 3.417534978892637 8.467050247934582 0.6137377512179106 -1.0065303233738796 -1.3235044057376368
Ni 4.026689098583951 2.654941144657787 7.197267220499997 -1.5260111755887331 -1.1347558660128974 -0.39023946671681176
Ni 4.146366797769175 7.0036343271874415 6.061727790305221 0.22527388834428302 -0.9446757519609278 -0.6198654613822034
Ni 0.8727872281892286 7.69616515434853 11.674093166492343 0.9508320013703109 0.03867941884806887 -1.9721903908959582
P 0.3686238759885876 5.39975659219393 7.893419956586317 -2.190569609002937 2.033911779165155 0.7204184778066174
P 8.497471552824422 1.9032676388407201 8.194925674064473 -0.5639213419164159 -1.600204985293328 -0.36791560640863086
P 1.7405820462367938 3.540142966203299 10.44304181387353 0.4279364670469533 -1.6657364913372343 1.0219985942128076
P 4.107663333801814 6.035911223898214 3.8094428151226754 0.6242857019370861 0.29265144645799274 0.2214138911682445
P 6.781360142517144 3.929115964171057 10.745506700197716 0.655575256078987 0.1643549413717234 -0.8192979631833501
P 6.152913442621079 7.816416170775687 10.41877411404711 0.32824117063714436 -1.0007553685633153 -0.5877297571899233
P 2.476621281869068 8.5274660548786 5.8248995379361235 -0.07343610560296385 0.3443733003123166 0.28506334969808966
P 7.204777676369328 3.9778570300090967 1.4266025836234257 -0.2162799123757888 -0.6959914551125045 1.0039286240849743
Ni 5.481868361621979 2.9429739069505025 0.32917691966145 -0.030577615676540888 -0.2064485281076638 0.19458314412864552
Ni 1.5505774320410466 1.1282519310306416 7.106043347034676 -0.08667882954548298 0.33257476501549177 -0.12388912004719309
Ni 6.863399109755741 0.7411253785928564 9.322513285116365 0.5616677699955489 -0.5457780953484858 -0.8568725790030147
Ni 2.8935685211337145 1.533441616698808 9.302734750297024 0.103746326550731 0.30934459084295757 -0.032844300223530534
Ni 6.567722117570577 1.8909003669075806 2.4063080172690654 -1.1733293554107211 0.9563066513316368 0.8957142344605605
Ni 3.7671856942826945 6.94306290556347 10.659345308981404 0.8794162686314855 1.483768207759122 -1.0786708500938713
Ni 8.173674714963466 7.1569648384468 0.3894498523086684 -0.936634112603374 0.347993156453091 -0.1635715262384796
Ni 7.502329324932877 4.091619551301354 8.1561939992487 0.3239327730697776 -0.45315307552189704 0.2004357462546806
Ni 3.160679754232693 8.604245063929298 12.686962727515422 -0.05001361291396547 -0.5675291138723323 -0.34569587577848204
Ni 8.876752759321398 5.031304711377922 10.047475667623534 -0.03812945988186981 -0.42203578529180225 0.6355250222963312
Ni 8.644886886190815 2.3484166262442923 5.72669757461184 0.8075336235585706 -0.26154624041275604 0.9013986864398476
Ni 3.404394183696571 2.8896463031769937 11.913105484544996 1.1256665021171195 -0.7778620646360669 -0.8553661696608171
Ni 1.282965683889586 3.0678842635025796 12.719541707295141 -1.5965229084560504 0.7528447166561228 0.15320586673343936
Ni 3.2349197869262563 8.279993212384268 8.006219668923073 -0.7795492225305025 -0.2758189482816863 0.32686871576965
Ni 5.87115986916859 7.934537723161376 3.5816047231235175 -0.8538499901266068 0.11266214098312208 0.6193633249348043
Ni 3.362860534614269 8.230988238609465 3.682391164173344 0.506948781186114 1.079152160605664 0.3467682829070544
Ni 3.569163738973558 4.200704531921327 9.244089856611424 -0.9031948591083219 0.11478921462845393 0.04009995334467932
Ni 7.191136366120779 5.83895400060981 11.715409319033657 -0.03006879436092241 1.5858124640170816 -0.9049532365603253
Ni 0.7693953787843928 8.888719619212551 0.2336040254037471 1.4389893608815345 -0.19435123062349755 2.655149952525169
Ni 4.637071755222266 0.35441015852547453 1.4255378516026918 0.6201110017341063 -0.8722346632813817 1.8607724067325824
Ni 5.983293441471861 5.467744736868313 0.42741892418993277 0.3254697785395943 0.8431107493322318 0.03929854048930652
Ni 8.0698951938998 8.969857659356682 11.246640571289788 -0.8431485445487027 -0.5016132279058135 -0.32746469748243606
Ni 8.949136336183939 4.774686093833697 5.832824056257962 0.5786190531379067 0.5585647055901929 -0.2345648267279057
Ni 7.825889555678113 9.023594775445856 2.2133530943457806 -0.06856206534011419 0.5402165421003085 -0.03025108557505758
P 8.655670710503376 1.529209989436917 3.500238266109983 -0.11971056318947126 0.6887347735500913 0.6252807188605037
P 1.6883646758524269 3.348864313692143 1.5300262839861465 1.0949204791835143 -0.26006631343311987 0.8057868160707928
P 4.704195373896907 0.7916555582366759 8.094738941050256 0.7664219411199252 0.9469563204649886 0.8269169131811888
P 8.705267202067475 1.2098449848588455 12.677519373516144 -0.366072382552305 2.9673415258986187 -0.5190167680942417
P 6.268405015912819 7.6810404994899 1.4742989380428304 0.8502656152094583 -0.2617799536901169 -1.1931870135665967
P 2.013599356955057 3.198819001231801 6.3542833886176355 -0.3690139816791322 -0.2889398019343604 -0.5672599193713456
P 6.910402023320616 3.830377994726934 6.058917625792378 -0.3806453952704735 0.463182434733441 -0.2925853691067477
P 2.25170801783114 8.653149934693603 10.042188408614592 0.9118252810898103 -0.3282159738261638 1.2828699200457263
