# total energy = -340887.97211448837 ev
CRYSTAL
PRIMVEC
9.10301599831843 0.00000000000000 0.00000000000000
0.00000000000000 9.10301599831843 0.00000000000000
0.00000000000000 0.00000000000000 13.32318406050022
PRIMCOORD
 96 1
Ni 6.4434605528958615 1.7708005756886167 11.105060365811605 0.29389174662299705 0.9707714206067153 1.0027605719188022
Ni 5.153808984443171 0.27105049047518204 6.010061415446828 -0.5170809845241094 -0.31738648731082764 -0.1668622811746094
Ni 2.924261923593844 2.011529830576502 4.466423870083442 0.5922574698569478 -1.0588962385701053 1.198960168604948
Ni 3.669334670174239 4.454105668997631 4.684165278975171 -1.0068067169637176 0.4571115459490127 0.401662878062405
Ni 3.5626837361501713 2.8366636018019697 2.3302245958543955 -0.25847531479691616 -0.20771762462807453 0.011245748117148374
Ni 5.16090933682784 4.663921081964577 2.285458694672238 -0.2580857926679813 -0.7232549188141479 0.14507295321365984
Ni 5.138825420308346 4.477045269009635 11.202998803339048 -0.49792292353841994 1.264963986299583 1.9251273759698846
Ni 5.830144858130451 7.873362286977504 12.568319191275783 -1.6746985856265288 0.485042468031326 -0.5690920874840779
Ni 2.0012980407298775 6.617847028066488 0.5112863619024918 -1.0588651282218537 -1.1182259866786741 -0.7794744034285092
Ni 3.027144209044511 1.7253128053473514 0.13599905721402944 -1.070850068497872 -0.6938106454111018 -0.16193836151043078
Ni 7.977810291159149 -0.02724805742695812 7.05309407773871 0.25809427730841356 0.2618689138594974 -0.7434267657763326
Ni 8.71887771075332 2.267497534043791 1.2588396803095814 0.6398915267951432 0.7799886240607663 -0.16874895667436102
Ni 7.03960795971578 0.8486769011901693 4.591622198958486 0.10858719958280008 0.5487364066458613 0.3137344923805371
Ni 0.7805999969481935 7.438183509924365 2.4500002581710456 0.31401679950764627 0.7735917193954871 -0.9342789821076363
Ni 7.5936630211168445 4.049412892119177 3.4810151189010825 1.608325043297301 -1.1934574936191638 -0.39897864636202257
Ni 7.698693618314667 3.9204322601469155 12.659809052355408 0.8511768141698178 -0.2910915581700407 -1.0321701354291708
Ni 8.279183837824803 7.910138471123735 9.225719070002693 0.5248256614665348 -2.636153356818008 -0.4327863389400869
Ni 6.922479454416388 0.7353343401943458 0.2934511919472224 0.14694548764602433 -0.49702946518987307 -0.6229759819867271
Ni 1.9885629215168639 6.602299076947241 9.07969668200564 0.07934887154297302 0.47962643922207726 1.067097543433975
Ni 0.18947563428963435 4.893062197640049 1.5993152316782384 -0.1912844187727157 -0.9363746882944003 -1.3823317602884901
Ni 6.698372306521327 2.3317648261409163 7.002012504140549 -0.19056091034312986 -0.39626921785065944 -0.9826468318880625
Ni 3.6152445498284718 4.099224595002387 0.20816776709306728 -0.31527921115983765 0.8613532404821875 0.12424470361439892
Ni 6.073295515241826 5.616406045320182 4.310942538287789 -0.3940824946119858 1.3945288165753145 0.8906507038947242
Ni 5.573667385774007 3.1968517340539586 9.006445623538735 -0.4108766833511892 -1.06424413314558 -0.2692590356759815
P 0.2496957255274985 5.678661570908318 12.785513508913256 0.02755836923424286 -0.1967888935307127 -1.0700111175363443
P 4.174014973454226 6.011349492193535 12.708118757618784 0.5650914509651171 0.9481333714922253 -0.7638654932466586
P 2.4515150000131083 8.614802930222664 1.3167594394351305 -0.3303361054929601 0.23778564765804858 -0.5089619549614008
P 6.731106751617824 7.858023705223446 5.721788018930887 -0.37687358693286704 -0.6702313154292651 -0.024765379870137993
P 4.701070489761795 0.9574825190725073 12.32940780865869 0.6109835855115413 -1.8389627670566588 -0.06805735778955375
P 4.361700954822289 6.464452107510022 8.004329197014297 -0.17017129094318434 -0.32953777796138084 -0.25851311001338706
P 4.865716737943198 0.9617700395509415 3.876313583393668 -0.1253829309839002 1.1111575098676671 -0.9198813186250674
P 0.2042525599640342 5.656277254864857 3.6344710296639304 -0.48939740256591197 0.010582403501536613 0.154200883656857
Ni 0.4953833931640106 0.2941812538206204 5.187062301444701 0.8766117093031549 0.06510675980166207 -0.6772378286540853
Ni 1.6838667740558202 6.879176407885789 4.659543441628952 0.8813823912189208 0.30973205608936333 0.6064571583960975
Ni 6.075207148576159 5.755545643012047 9.330771514438622 0.7627367789588542 0.635602412501486 -1.1017858388447799
Ni 8.814996455406797 2.5962620554856843 10.157128730998062 0.3229860928857921 0.6087138156407581 0.6637806747079148
Ni 2.4657703228777117 5.845556264011532 6.935316527407233 0.6670878847042769 -0.9849227724064327 -1.041324291124613
Ni 0.6410125308751432 0.5099036137906571 9.166243605463631 -0.09678120808680753 -1.1484914704314348 -0.15493981870541057
Ni 1.7462042267868558 1.0356592194308798 11.215695689885376 -0.2801476575640272 0.3670861685288 1.1065277244051395
Ni 4.103129788813955 6.926084248703988 1.4318561515906023 1.2093764788422654 0.7856710191575244 -1.1951374524247482
Ni 6.0659948965078465 8.166333749987967 8.29930423381946 -1.6951949058076676 -0.5429622231662455 -0.9605785392341134
Ni 5.497038198114857 3.0548082742970837 4.434475015257199 -0.04793436178743358 -0.7821483507162464 0.0587453363600085
Ni 0.815045809029712 7.64316522146021 6.8095856721033385 -0.12282494044873686 0.12278688812194984 0.8616610015305934
Ni 5.194881792083714 4.761459897094986 6.5837043464136995 -0.9467318631590083 0.17095239208358298 1.2932322371166567
Ni 0.689044594154248 7.254466443479015 11.305254801297325 0.7219559974970663 0.627524520589358 -0.01538959508219285
Ni 4.49638007473404 0.17274247050309963 10.156676311108939 0.6105644956962517 0.2534061278041249 0.24052952895177285
Ni 8.284490896081548 7.657447853372447 4.218666176636323 0.2043970448952738 -0.6766541882364734 0.9185700560128116
Ni 7.16239854089115 6.0370928210958965 6.998055423138479 1.0687546194214237 0.9551419415995744 -0.542525392739143
Ni 2.2408712126012853 5.213406429394995 2.894328476482941 0.8737045629586888 0.4266010360649814 -1.6697636102187567
Ni 2.470667745419957 5.234234129723355 11.596392916910002 -0.8199546229307427 0.8439970085919272 -0.5376292409891064
Ni 1.071242908497121 3.334716909522933 3.7256686839338786 -0.07025770787498223 0.4831766184671807 -0.3241384613226805
Ni 1.576250920348708 1.0421951848311255 2.6757350253050527 -0.22448096012934243 0.26759527482031337 -0.668621547739984
Ni 1.3095780702091502 4.045717067672799 8.352690691037875 -0.15351028534773564 -0.6911076446576421 -0.9262311721024952
Ni 4.199002752038732 2.548899063873596 6.598586867072282 -0.18525955273487452 0.28352865822111817 0.32989593263174793
Ni 4.288858621768295 7.051760485912615 5.552623033667755 -0.2484073890379528 0.08850122746620243 0.11889398082544686
Ni 0.6765061000841942 0.12186480446060083 0.11773476615685216 1.0169810863935582 1.128433266228979 0.03508115997384926
P 0.14411894737700898 5.977113049477205 8.06418971912499 -0.7944595639834318 -0.16266264127096502 -0.5209674640627093
P 8.964358739929407 1.9335989116468297 7.906510008994852 -0.723005264697187 1.6426636686781708 -1.289805727933611
P 2.2285912441821605 3.4944566321462123 10.271548178772228 -1.065285944146533 -0.7970036705615242 0.17533226631883353
P 4.111987023263034 6.287607818052395 3.3857811873909265 0.07998213425159773 -0.572925345187239 2.423877166284974
P 6.996068234772359 4.097103592302864 10.414958911513946 1.8695961756717996 -0.5577203553120266 0.03277796576196936
P 6.468339095289833 7.774712903910006 10.397625858981066 -1.2583955890534457 0.060144273590064155 -0.2458499127234218
P 2.592256728499461 8.678605968510023 5.779411019738821 -0.30086380706545607 0.08580182625716835 -0.4100436459269325
P 6.930699477754023 3.6570729077868696 1.3246162524392424 0.4124489129343155 1.9288500762371101 0.07974842097423684
Ni 5.457603933332315 2.657270467898564 0.015230255865113299 -0.02857986852022175 1.0033928061861623 0.13103832949746463
Ni 1.959169283247513 1.551654571446947 6.838243786689765 -1.3330426842453753 0.1575451175387416 -0.8519715421569715
Ni 7.2751120834898195 1.054038208488117 9.05899187239163 -1.0040507514851353 0.20046222861724186 0.09684599988647191
Ni 2.6622498175837097 1.6518514672136688 8.98967149618075 1.0985519052885144 2.609262188854119 1.4743651692776674
Ni 6.207938223090067 2.0111110918461246 2.3059768924607535 -0.1687877803320964 -1.3101575521170856 1.1503704326217026
Ni 4.243461881585808 6.833943521989102 10.410589463892611 -0.29008728527524236 0.3465271134305258 0.45470010829404267
Ni 8.335222003568415 7.558352422526936 13.518634905947714 -0.9150070212519016 -1.0455946363651927 0.5201359693003494
Ni 7.778936703277295 4.045717067672799 8.301116644280725 0.7799829676338116 -0.26281328005063764 -0.6488443651130568
Ni 3.0336983804765123 8.150494502360631 12.289704094606167 0.6256069918516709 0.5766956108629487 -0.05236797207875498
Ni -0.06890618898844159 5.165105827147496 10.084131646674146 0.3759665017375654 0.11132285334640829 0.9578133177841505
Ni 8.723702309168544 2.59394078643685 5.65954159635863 -0.019414914191502045 -0.26813597781513177 0.8940900685935763
Ni 4.050204854500543 2.517575586238156 10.975505333537454 -0.972090396528455 -0.56924403968091 0.04244891319283012
Ni 1.299136910997337 3.169606407531764 12.29279547879826 -0.8297196727373066 0.663800986422889 -0.01748195883484731
Ni 3.314617450464795 8.905862759898795 7.942229332997671 0.32379470483001654 -2.8840470394443365 -1.2100467654364129
Ni 5.972179214871449 8.04619214643303 3.522422917525927 -1.2847223998734325 0.07383076993822124 -0.2874580751825114
Ni 3.338349012858167 8.456692647441509 3.3597875255519263 -0.180119917515464 -0.3941992226955082 1.4995635229201658
Ni 3.688751403041543 4.639779883856704 9.189026633602538 -0.09509816395742976 0.37813856968821974 -0.6072202618143672
Ni 7.4412057111957886 6.2624470821662115 11.61352661339516 -0.010478016713188407 -1.000972626780444 -0.33694281217620037
Ni 8.16968365983099 9.240380387375446 2.3548191241529812 -0.3126713412233454 -0.550327405282065 -0.2584619450604775
Ni 4.49613429330534 0.381221560739187 1.4541057429990714 1.0005465949866188 -0.3017693495988609 -0.0011266574052754789
Ni 6.29484471567523 5.7321053771267625 0.47914452313963934 -1.0653728474333846 -0.9857103013047347 -2.0195601384291733
Ni 7.958666648768179 8.96537827770772 11.395612247201754 0.7880328345214815 0.12819237540823727 0.36722835053361913
Ni 9.396588139838144 4.847091967457261 5.622637059688524 0.054188313116945386 0.8732425357206057 1.2779789105020118
Ni 7.557778932526636 6.244459522791718 2.300927449553349 0.17704950612025636 0.3504986964837641 1.8601008345868546
P 8.799867243017927 1.7255676897919292 3.6743477010181325 -0.22282516969347432 -0.4874585336719863 -0.7910258557115344
P 1.725449350585518 3.444918019739335 1.102422558481692 0.9167905955148856 -0.7735274418164549 1.7038494961588722
P 5.042670263591359 1.0861718545366796 8.037797345190542 0.8322840910303732 1.378646341017103 1.207284115089611
P 8.685660805815303 1.7590212731427697 12.229616907400118 -0.42631101562838836 -0.5411125715520165 0.6551715928826651
P 6.373640421113291 7.703427186571112 1.3552606450902 0.17402820279542933 2.0365373897134607 0.06366179982501939
P 2.244712685301708 3.6964980695535337 6.263348280738112 0.2372097205499205 -0.2330584173857083 -0.797952921848671
P 6.998061795249592 4.109611136118934 5.637891893696507 1.15252835950497 -0.03537992216119068 1.089547644907375
P 2.363060994728723 8.530263221765725 9.986286059908657 0.7927826905016411 -0.8848142997186053 0.7953949313135075
