# total energy = -340859.6273358037 ev
CRYSTAL
PRIMVEC
9.34314502141755 0.00000000000000 0.00000000000000
0.00000000000000 9.34314502141755 0.00000000000000
0.00000000000000 0.00000000000000 13.67463715841946
PRIMCOORD
 96 1
Ni 0.9994922637979514 0.24906394960521527 3.6843299599348596 -0.6479159397615164 -1.0818204514664467 -1.40904423658267
Ni 5.41923890709018 5.894917097847745 0.5545978667021559 -0.5310981247388079 0.9806513987245884 -0.31637630087875834
Ni 3.4151436792596694 7.20882487223993 13.611378387815035 -0.6690018138975382 -0.23366879727619758 -0.5673992731626872
Ni 6.792111268649849 8.66696277372837 1.6883389759498681 -0.3266771685841342 -0.6302792005163598 0.5358446382848578
Ni 3.9744897321761363 4.8307142127976945 8.000702179944172 0.2437763180238447 -0.22744749895683408 0.25677401583509324
Ni 0.18627054167695778 7.055503865201675 0.24195381637205793 0.1668792504554739 -0.19037656224646568 0.06348413659657452
Ni 2.2452885122115323 6.836500549846604 9.34010552801131 2.8262753798515066 0.6498126425635969 -1.577899379817592
Ni 3.952215674846508 3.5607752780838786 0.9059552377307921 1.1126235528902322 0.2175592933088447 0.16729448361602156
Ni 5.614837644588405 0.7585204119499471 8.370368377626809 -1.0639510273851935 -0.10213064532417895 -2.079898016087282
Ni 7.783923467378608 3.6757520186452908 2.3947844357469563 -1.137678438976331 -0.24879793960815214 0.6357348243142922
Ni 9.105445904826013 1.336340665184314 1.6100518309118277 -0.5866884604096025 -0.04899082807640595 -1.408330498345097
Ni 8.018342971741182 7.9936677261843245 11.144090213694067 -0.6754879358425141 0.06569811352875782 1.969128721251499
Ni 5.986545319421431 6.765445933239296 3.9142965214604772 -1.08728198880165 -2.6493428589250887 0.30725608374504504
Ni 7.766890914311531 4.691613472225754 8.331764371723052 0.6866354678189013 0.3287232524798855 0.21728572793248385
Ni 0.44835322932038785 6.139408512361887 10.034420782845707 -0.8475500160505081 -2.7107343746586925 2.628064923382919
Ni 7.906739106471715 2.412409344197716 7.4054719105906655 -1.2622175339026973 1.0484462468813749 0.30039998005516005
Ni 3.4403514840731493 9.078845971429432 3.1112532213423765 0.3996674448989311 -0.695166645218364 -0.36361209393727056
Ni 2.8986546317840602 2.7126139314704867 12.671397285158474 -0.41415766809530613 0.21099578115871406 -0.6176432569199041
Ni 4.655969374611437 3.7424153571716743 10.227247409266036 -1.021607529421976 1.9846833811566462 1.250110723336834
Ni 4.625557438114818 1.1384808866316554 10.399451846366754 0.2722212036280989 0.49125579593088936 1.7859617893795954
Ni 0.2653499853985353 4.979372990554286 1.7229768168635138 1.0785327818541102 0.2928265385832764 1.4192777413852202
Ni 5.555377870743709 8.167188612394835 10.27640730022475 3.2856736649521667 1.2543887818868975 -0.9717481826976878
Ni 2.378811395306213 4.013768313138282 2.7469060760245703 0.9825470730854046 1.371807977939031 0.6475498146713492
Ni 2.2198938445009913 5.361077830380056 6.26686769444695 -0.35833387625746677 0.32620922780878014 -0.2002783947412099
P 8.989030319957235 0.14772446327128896 5.316453101933005 -0.6903833648971077 -0.3551498221025303 1.0383459252225795
P 0.8862589540661153 5.0648440796698235 12.22753250262548 -1.6001782458204505 0.6126738287297707 -1.3561389039432064
P 0.31019054049169187 7.307226873832063 2.681308790325918 1.0926795056681375 -1.4418628257745878 -1.3763529169972362
P 3.8821140590142083 4.867367370056139 12.60385849395936 -0.25962202680684965 0.2743909575859081 0.6784501037946316
P 6.362448066293467 0.15256514661964485 11.74297178405614 1.1483104647688804 2.834733537921189 -0.14289805704952807
P 1.6114121928024294 3.7015577847293653 4.686954045887547 -0.2983572385935184 1.0123230187962566 0.542157467876763
P 6.323104083317349 3.822701000893778 0.6644358775944003 -0.26540520914753 -2.075164358057039 1.6466671334106093
P 6.991166969743697 4.7701986635846065 4.309288247581743 -0.20838816833253787 -0.601071468604152 -0.044562617101723254
Ni 3.287021133890041 6.824354461537663 4.176698744657881 0.8385339285948269 -0.6105462408638065 1.8849585170604826
Ni 5.111438343051894 1.6984435871084222 13.188817844175928 -0.1970822564014154 -0.8895001352300488 -0.2924658128097479
Ni 1.1431991747824366 6.946048923248405 4.847111432014766 -0.6242826166132927 0.9698743627137425 -0.8897413047065774
Ni 8.789871844270005 3.7121435678478503 5.611100386647193 -2.388042930195184 2.0197843386248375 0.6099646573287237
Ni 0.16657612664125163 7.600461475044472 6.88232213514933 0.2527975476858485 0.7573785999707343 0.33610026167024704
Ni 4.449822226574139 0.7861602373686716 6.028545558479266 -1.4040244147705754 2.1006547890186598 0.6097823661145885
Ni 1.7807286638290754 7.34709407291995 11.774491817532327 -0.5228420553776028 -0.1756909352098329 0.6672730041318895
Ni 0.6000457262107596 1.989949706523021 5.708832484753363 2.302997008267434 -2.345698403790702 0.696268105812659
Ni 7.889585092521547 6.042043599848441 5.889351386458795 0.928766279819523 1.1680318544572077 0.09617211374789889
Ni 8.120276682087761 4.7432904064078745 11.115879522124821 -0.4403034732527385 -0.34894729283624415 0.051238743570318206
Ni 9.263531915739316 5.282660815628559 4.07677848202713 -0.23368473811579754 -0.19984876340295907 -1.923414764154152
Ni 6.184311666525558 6.6090697178341 7.608103233219768 0.26639739785747024 3.389650876566782 2.5990651937164593
Ni 8.245708401739716 8.005103735484436 3.936216473600176 -0.79717927690744 -0.03995082936132474 0.7838056838140114
Ni 7.5536429761859285 0.6146182292380336 9.393654828421978 1.5651775613755496 -0.27153703307688076 1.4286429846502042
Ni 5.467085151882557 4.6524563521466975 2.5560218894191853 0.2683676342099636 -0.5672720035562037 0.4614284281568118
Ni 5.1912007706622285 8.109896448156043 5.803229080147002 -0.15357996224340648 -1.6275818346443842 2.167185425751042
Ni 5.372719388866934 8.259227932342053 13.101300606337578 1.2030402522115924 0.11912717988217547 0.8233988727256012
Ni 6.10696911343216 8.837428451571938 4.08092216676945 -0.3111754734041093 4.868299246600835 -2.07999983177247
Ni 0.7822781606822369 3.519861646772452 8.096246113525762 -1.0349330428862886 -1.3072732885907552 -1.1328249675387716
Ni 4.253307860880317 4.56029557131639 4.438937462820356 -0.5366900170042886 1.0185623148377492 0.5659887659684057
Ni 8.120314054667173 4.90527250872489 0.11294180361242144 -0.4625262892066809 -0.4309467146281869 -2.215049596422172
Ni 2.0614060783590094 5.0871274801443045 0.3514573426785636 1.6519913738370002 1.3780776129978265 -1.3095548855360801
Ni 7.411879439330875 2.3379351365741976 12.543977344281792 -0.5175381266661861 -0.05196225199990406 -0.42242067943504674
Ni 0.5678305627575052 8.824114470156367 10.010450010410768 0.12762570427148986 -0.31444231708083914 -0.8560775939055449
P 4.155924262077164 6.52149642112663 6.6338944537086055 -0.4576113684035668 -0.8960366507969858 0.1553851337729453
P 2.3524824131103683 2.029648729003554 7.419283881626902 -1.4859274201939698 -1.310060364417589 0.5414018206576612
P 1.5395820951723194 3.163392641194722 0.9707817139790693 -1.777523428804255 -1.0092564640557908 -1.3384404582221787
P 0.5546100127904648 5.59359133319261 7.810378582029968 -0.6041372520136692 1.1096942950585793 0.3292199896106459
P 7.354484500498699 6.9056678511936 13.556884495459729 -0.8093449657356965 1.5184721868992106 0.5519317736547075
P 3.433175948826021 8.233702460603569 10.598924251721048 -2.3573861245412755 4.429509895999778 -1.0925771757623184
P 8.629132380218444 2.96305692925601 9.794444910239037 -0.6789237009969404 -0.47926031413191006 -0.5476169483294375
P 2.8126042676876355 2.6291983342226173 10.41148581693746 0.9448526438584243 -3.533257786757876 1.3501418058195072
Ni 4.200575151329804 8.160984764212422 8.47920480339081 0.14433813193016434 -0.8694159628856639 -2.171175263636725
Ni 2.7646552483018754 0.6266708860984448 9.080751972979451 -0.5960159084581155 1.0083511786327022 -0.6221547716370124
Ni 4.314879185461797 6.664315733350078 11.24980883202061 -1.5971988514771527 -5.39863581058327 3.773242498949773
Ni 7.896891431796619 0.28335329121584274 13.564570166415832 0.273255044209252 -1.0224372244121231 -1.3451363821851157
Ni 2.124930120214774 4.277927047568056 9.67140036409703 -0.1618098063523665 3.500178230595088 -0.001336459423236408
Ni 6.243052018216571 1.8127102486610036 1.7703456269539006 -0.47895332441445254 -0.07990757225992046 0.16960693379928207
Ni 2.347007330226492 7.286363631375243 1.9101284171001125 -2.784445331189598 -0.557251128985092 -0.09854241375228835
Ni 2.3523983248066913 1.6435899836762713 2.0762476639580507 1.0820852750920589 -1.520916020454013 -0.4679356331477102
Ni 2.858628599233671 1.4563813902560692 4.476282947112411 -1.5787388449997521 1.718608913856234 0.8416426494271375
Ni 7.795424878692691 1.269163453691014 3.61355003178623 -0.30085429398375924 -0.6698243097988335 0.694846542874784
Ni 1.2001082700822545 9.225094217813941 0.5100254598662816 1.5243119335094393 -0.08036779972579063 0.06687310767346547
Ni 0.15183918426456425 1.018113151490044 7.936526920892151 1.7722884056575605 -1.3777176585552464 0.3020352016657379
Ni 7.271003501236858 6.186208324930725 2.1332847603423555 2.115117244300893 0.3666555087492847 -0.5190957009612931
Ni 5.988432634681742 4.204910370541611 12.368367330882144 -0.7428384973730303 0.7685227895130119 -1.7275604666225666
Ni 0.3694223416019735 2.447296647078937 12.443837517746996 0.5833439694174017 0.25315518813558335 0.320512434534319
Ni 5.922871787248018 2.6609369972883674 4.785165447324679 -0.07791136776549808 0.7598077782375172 -0.22020675823402078
Ni 2.0673202890509788 8.876043669249519 5.769534896863512 0.2887073742085802 0.7061025754045774 -0.17935887097972336
Ni 6.073016125036242 4.8920052430335845 6.47595232722604 -1.621313742247485 -3.9407048756022265 -2.174895907021422
Ni 6.7063879146232805 0.8980537401285829 6.195253423462944 1.5570112235146731 -1.658261523116428 -0.48959280640616976
Ni 8.167272700698511 7.074629282715831 9.062387087456331 -2.214121685291264 0.6146242675879221 -1.8121248209282084
Ni 6.345378140646977 2.7570686146812133 9.365184397425818 1.6341116653431018 0.057170278563404765 -0.6332848201119029
Ni 0.30426511802589895 2.6426991785352487 3.2378257389808867 1.4906217403458457 1.6008881274032818 1.5642442509280026
Ni 3.278117116845102 3.2447247171403655 6.013886164204858 1.10717255707799 -0.6964524539093231 0.911766659937733
Ni 2.222098826686307 0.6687131693081182 11.394308976003117 0.16276934205215837 0.004836502156694897 1.4814164196974937
P 7.670507032007653 8.633785266355252 7.608280752971975 -0.9751065576469594 0.5564959959866222 0.18146306180691976
P 0.35506099364837806 9.085087192191258 12.246443962122504 -0.5010671255943564 0.33885931247262285 -0.5881604169694388
P 4.581551225857037 1.5068904313315603 3.3831733062015643 2.2640885041276944 0.4821116675377761 -0.8091225653122452
P 4.332603131248 7.261174512851468 2.4154879104267897 3.165441682041587 -1.1830656088618787 -0.9802135398562215
P 6.026945077765941 6.012472546388595 10.390358163481299 3.478080370254784 -1.8552699888571147 -1.8462647000347105
P 3.514545397351077 0.18450095004179354 0.3151274582320339 -0.2534215544230926 0.13855700647201297 -0.15790764308448288
P 5.2584433841694995 3.0552924552451417 7.3027617849067985 0.6473906633856656 -1.1131943377920377 0.3684426825566945
P 2.1822690001778313 8.367374834015898 7.796772160180498 -1.305987479899796 0.04527404134645106 -0.0987982385168363
