# total energy = -340897.6612983364 ev
CRYSTAL
PRIMVEC
8.98643632648003 0.00000000000000 0.00000000000000

0.00000000000000 8.98643632648003 0.00000000000000

0.00000000000000 0.00000000000000 13.15255792671473

PRIMCOORD
 96 1
Ni 6.2647321169381405 1.9195386800583742 11.26166682631858 0.963222918835496 1.0197365376515084 0.8364883589197079
Ni 4.673845375078933 0.2362039776221154 5.804117960329275 -0.6388800548114932 0.019554525093159872 0.3694292148396799
Ni 2.7831351817793615 1.6483190544762607 4.634316738948652 0.14497139463878903 -0.04325032604820293 0.7125421603823341
Ni 3.456129375472231 4.214368901270462 4.892725301337701 -0.03648909606496942 0.29916919297185246 -0.10906028256447668
Ni 5.180563543055429 4.49025248714803 2.805953540126603 -0.21236489359209879 -0.12530451233748097 -0.9016984770684536
Ni 7.240730960423187 6.0256030543908405 2.641414592493297 0.2475077600418189 -0.3343154018556823 -0.016078136508785215
Ni 4.952532728995388 4.583783313265742 11.496124739421607 0.47782332457506743 -1.2350702840639438 -1.1129202581950446
Ni 5.5778718524632165 7.831130820637205 12.437387413106942 -0.6897670714693476 -0.2511348152714449 -0.5018366567705292
Ni 1.8547644492112891 6.413673307567938 0.44022393327478704 0.5806072872125291 0.6080381297299722 0.507964624045138
Ni 2.706966150056291 1.5784674872767057 0.24875533281414144 -0.02825745218379649 -0.5861606129305904 1.0255433741412725
Ni 0.46499055095161373 0.045607061455610644 4.649100324848559 0.8122595682793301 -0.2433034921524842 0.6325656825576912
Ni 8.583007949731812 2.1999604161270883 1.2908107715666226 0.09005057423119331 0.44726499217223614 -0.27620924174156947
Ni 6.876061386647561 0.8262991976549854 4.620783166299413 -0.42841494934526864 -0.6614659105318091 0.03729487979571641
Ni 0.8431092248778708 7.50417731884621 2.766601038142354 0.011732715055895923 -0.9552926082448259 -0.8190429097497507
Ni 7.469858119677922 3.7333159945729992 3.901534887757344 0.7477709016776412 0.21957092442223475 -0.2971403354672818
Ni 7.589746162648367 3.878078492452535 12.578961523485846 0.6183315412361803 -0.3616881374416804 -0.39323068813465184
Ni 7.9945132139544715 8.834053026444376 6.789731391714335 -0.5385831202619433 -0.012134578480004907 0.2518866058358049
Ni 6.82840631642252 0.5328093863229764 0.2905701182684383 1.0257914855963366 1.1797080052435553 0.2425583864563435
Ni 1.9493736476516488 6.370960777155038 9.296438409593192 0.09647061882492418 0.13955408027795965 -0.4035009597124083
Ni 0.24759338663648772 4.696796732679301 1.4741124989704106 -0.8439106195257079 0.5152966389301771 0.16894178941145743
Ni 6.330755462392293 1.8534434431160447 6.928517010995592 -0.18142603792139722 0.3535343979862944 0.3097531391352859
Ni 3.357233647049344 4.146422458507586 0.516120675986389 -0.0069278374680848435 0.4649510965980896 -0.5536945219820851
Ni 5.980670874280488 5.530432456702705 4.797302830437344 -0.3690072968109129 0.5482707798633526 0.35265585203608296
Ni 5.2884277346283435 2.87808586478856 9.18419422910312 0.14622892119497394 -0.41665832302997274 -0.3327143759171496
P 0.29238537834489653 5.59286122774803 12.443989747652356 -0.6101685458094137 -1.2533305158257124 -0.49027569140580723
P 3.9781424575582913 5.968188714645832 12.669188037078243 -0.7326813543343704 1.9391316606687765 0.9289308304218453
P 2.3441387956651893 8.466462860961578 1.3105377959222722 -0.17081252407160905 0.04993596559849465 0.6505860303945118
P 6.292769797327001 7.803317801148897 5.68681082178437 0.5599101638744938 -0.9395412589478399 1.0250813469031894
P 4.702799671942045 0.9816153659988408 12.574686675870147 0.18712231697522613 -0.09156829642730036 -0.5703110474928437
P 3.93035259079292 6.166294696752378 8.152047234708574 -0.22638563335122303 0.21771715904294764 0.8999452418227727
P 4.822660755604423 1.0878530126517598 3.726605822795319 -0.5362984379928247 -0.5464617516790717 -0.8774601733463792
P 0.12303329557816896 5.484592646554122 3.787042300974551 0.9726745511666991 -0.759811377781943 -1.8856725124083717
Ni 1.5161735127717122 1.1666370972572528 2.576046358225153 0.183834904473206 -0.19693133264584795 -0.586249573099971
Ni 1.9180828774227987 6.373701640141769 4.7510460496573375 0.0320562571045964 0.47731398903881667 0.12064927295365674
Ni 5.94422188977497 5.514975786744745 9.217364961747787 -1.0312221696936046 1.2297447580859724 0.14765151257411346
Ni 8.41174445202319 2.425484014536973 10.083632232254534 0.6702056043976522 0.188473688796798 0.34116713467019305
Ni 2.2448836098014193 5.296344784763788 6.930621634311961 1.122504302339054 0.19190045509015982 0.4508233989474558
Ni 0.5292049268345238 0.24151406266755696 9.164820371683138 -0.14454099196958978 -0.5193700376686023 -0.3160842235596363
Ni 1.5181415422605455 1.1350947068197852 11.278962121086655 -0.33593391129571176 0.5920875199379868 -0.7178283484819379
Ni 4.008912014497861 6.899399160996879 1.605558895952442 0.5369545835195849 0.1886348969650106 -0.01569478502743749
Ni 5.567231912213085 7.780474280780793 7.976920468154064 -0.6463323973244803 0.5969523042294558 -0.14809965585512558
Ni 5.340252511167625 2.8219386125226626 4.804550391089144 -0.12453266716846297 0.5081476865902216 0.3442324038590781
Ni 0.9174162670571683 7.41841975988759 6.941669558757494 -0.7148522965727496 -0.06728782661338088 -0.3314673908839259
Ni 4.93218743784142 4.595708313867029 7.102210441004582 0.36159429217629335 -1.3540622239198359 -0.35464562877260214
Ni 7.974401570137077 7.288296166288007 9.04727599122725 0.3661266328290082 0.041832105544437635 -0.34143118696485714
Ni 4.703482641079723 0.42474569587037264 10.418311373093704 -1.008241135417399 -1.1354004415754317 -0.5618392625764066
Ni 8.098836749734689 6.951799069441573 4.846230380003109 0.24663898428362038 1.3082166263406307 0.5635256491398939
Ni 7.0216686095131715 6.063103451910942 7.023386816080591 0.956656578471888 -0.09273300615936288 -0.46114252148527685
Ni 2.445622617662433 5.082287878718065 2.59242144194457 -0.7150793249818911 -0.08083316939798338 0.27670649309296214
Ni 2.3832837109773286 5.196244873913943 11.421483401822288 -0.5314390530179944 -0.18019242262461224 -0.08555525746400104
Ni 0.9794226756094556 3.289089502693982 3.8752037315690746 0.6141393575317037 0.8924844146693532 -0.5480586638525464
Ni 3.770906256453321 2.6172815185560263 2.4674857178605287 -0.4887140033456422 -0.07877063044199982 0.17104623734896993
Ni 1.0616845109554902 3.601988218546459 8.005856792145131 -0.8086086017903041 -1.1714740473695373 1.2049811779880473
Ni 3.7332261302127785 2.3816481796213123 6.886666279797207 0.2685782075588729 0.9013758036217122 -0.4332784480851571
Ni 4.103242633421537 6.642737561770519 6.011994894322619 0.22974375119017854 1.4240047145472443 -0.5496771732925759
Ni 0.48763816701443613 7.276568867279205 11.11401608790155 0.9369447018652574 0.5566960278125703 0.18669140008539462
P 0.16720162862664611 5.6924219524365505 8.066252831362263 -0.39420745022562437 -0.4806232559177078 -0.45979243521528557
P 8.495399184952644 1.766823186299306 7.908527399520891 -0.3389073921017389 -0.42150922336437086 0.2316049727686334
P 1.840377165139954 3.3513475314548873 10.16747927491486 -0.8403776666717849 -1.0549282550612928 0.9412692973825401
P 3.9323026474097094 6.082055845481489 3.7699303295013236 0.6565754152087272 0.5940639269380672 0.011941231522276208
P 6.800871876450897 3.9930150091748184 10.481707084655005 0.4736329406428036 -0.215318576903784 -0.4803242366200502
P 6.165324161661995 7.653972220898105 10.157864687014847 -0.08388404040916521 0.2862928512298166 0.4497581909077351
P 2.550350543063644 8.450952272387482 5.727307297074229 -1.2350337743990538 0.06584415218831885 0.017355974779944303
P 7.019637674972183 4.010008359692554 1.5501476327967523 -0.647431286815614 0.38647460035774084 0.007519448305496727
Ni 5.249228900700071 2.878508227281597 0.23717990457411228 0.9560312861830631 0.167899207079556 0.4740204058892094
Ni 1.5165239837765727 1.0763683474155534 6.9478513280970775 -0.40808909330372295 0.5557614318134428 -0.44068219674839587
Ni 6.788272893147954 0.7554204808181078 9.108487998835187 0.08343692556941759 -0.42162620855820937 -0.6026773796386912
Ni 2.8104180015423683 1.6053009852386084 9.024114351023965 -0.9038990842641981 0.07744908341709887 0.9713802578353076
Ni 6.349905557555326 2.139212108617891 2.3724316908370766 0.22982654071197195 -0.8076428954429251 0.48698056559430325
Ni 4.052963523878051 6.980339990247669 10.698460820150949 0.4929002735128479 -1.1562821701204473 -1.9540751693524863
Ni 8.097992024748615 6.999678800567166 0.4780226804708205 0.7073485319965367 0.38983888884428347 -0.1514562310321843
Ni 7.439394101563103 3.9124785695450215 8.196963239234087 0.9573194088668673 -0.721861380900731 0.1261221231427699
Ni 3.0136462521814953 8.342387138804847 12.260696108040989 -0.056450883898876966 0.13243598117593963 1.3715215570468637
Ni 0.14230920084551046 4.88310352428887 10.269556201689563 -0.28091538896798723 -0.6905008643115785 -0.4570015027337097
Ni 8.477102801211709 2.184413881808906 5.713615563151002 0.7771755800920034 0.9416176818608945 0.44891923994620747
Ni 3.6274917239770956 2.480984243409281 11.325693385688627 -0.009897975840002309 1.0517899665426271 -0.3144533728244326
Ni 1.1694857974762494 3.277514973097555 12.475121457963615 -0.7349896907525728 0.7193208738670643 -0.059912617195232304
Ni 2.8964810993257384 8.22244517721827 7.971541187551252 1.3339669958318576 0.4409040829512149 0.4247950932044942
Ni 5.536372490913294 7.8514850982271955 3.614624944880695 -0.5981977466007826 -0.17630311487253508 -0.346013664129217
Ni 3.0180585922683316 8.45115896041599 3.5895168426350295 0.7636526059049041 -0.6828831998653206 -0.5112998590659581
Ni 3.4693304499886524 4.3298535905900914 9.290466922856526 0.5208900738575546 0.4182752898081054 -0.5553587970583855
Ni 7.245781337467591 6.115719034820166 11.293233480133306 -0.24812431057989523 -0.2194318277412092 0.7279610660405657
Ni 0.5357470522585912 -0.07815143950953943 0.08162919025008075 0.0408021216180265 -0.25460914697329057 0.4758402327067677
Ni 4.6841887629403365 0.45053586861011313 1.5321280312852963 -0.5289862206021276 -1.0196820302644891 0.5706074956873398
Ni 5.961727467145963 5.641495819499476 0.38032035075166426 0.08571929384569107 -0.48426213822187564 0.7351323869780242
Ni 7.787277012849501 8.918184040483 11.165403225006557 0.14171946336039465 -0.2464374097957756 0.19344234565598298
Ni 0.21106622013757723 4.710644830589312 5.83760501552192 -1.4509079666959916 0.19458751500401972 0.46936310962285616
Ni 7.745472112474828 8.671299683648655 2.576625084704974 0.6381231220408107 0.5314992168319685 0.06328564743252327
P 8.56751533402976 1.64848979676068 3.461477203548965 -1.140795644449074 -0.412014139389742 0.1586571196559977
P 1.7655650852562161 3.149907581584152 1.5879346976259572 0.22221144736887538 -0.4607540277976065 0.22991730065356533
P 4.624384031213457 0.8932769026146822 8.172565065434165 1.3063656891748212 -0.005409858161661651 -0.4853137194148416
P 8.571343555775163 1.6576290021951259 12.276610187592473 -0.7755133618982321 0.11182421846285902 0.04305826464205488
P 6.269378104361551 7.665564723366576 1.4023917530782648 -0.9676945814536042 -0.24742317074781262 0.4248508861430941
P 1.8589880741416624 3.2283052494406963 5.987557180204201 -0.07317719551462236 -0.7074799153680783 -0.2004390886887903
P 6.85192381949228 3.9094411541695613 6.070194648575958 -0.08479909602426686 0.30280524706254297 -0.25199407794794665
P 2.295324475193302 8.382089213150357 10.212579501378826 0.005999412116544507 0.09254788673175028 -0.5522541899911327
