# total energy = -340856.2390523815 ev
CRYSTAL
PRIMVEC
9.34461078101287 0.00000000000000 0.00000000000000

0.00000000000000 9.34461078101287 0.00000000000000

0.00000000000000 0.00000000000000 13.67678244574065

PRIMCOORD
 96 1
Ni 9.556733336196649 2.0038396236895832 6.9640804493340065 -1.904821831643313 -0.5780287278520755 -1.38161519383744
Ni 3.5917039032305467 2.0684949849422916 11.081941066708051 0.24437127129536626 3.2962797226027876 -2.330105948669084
Ni 3.1505915563691382 6.567326969341598 10.063786862739494 1.5584677534555418 0.5825944928458869 0.8819331215160682
Ni 5.593291475747721 8.932803026111078 3.0399793998221942 -1.1112667817520216 0.16829618540765856 -0.4953988715649855
Ni 0.3513508201111359 5.726218562583935 2.6359399268873447 1.9919377487262149 -0.4852754099777384 1.032270408452461
Ni 1.7663183095804151 4.0807354136277105 7.149989609769095 -0.6506194547356084 1.2298627717210755 -0.28647745643679695
Ni 7.334220478127152 9.029164651380325 10.628843322196298 -0.06620179263805373 1.5852591626167731 -2.2948309275168737
Ni 8.437921789432053 4.743361756513899 12.367709034538935 -0.16609454977064944 1.23030808678861 -0.5779639360524111
Ni 8.97144299124765 6.572531917486959 9.9801124153822 -2.605140453376262 1.7286043345060484 0.4781992198572474
Ni 8.416644110927585 2.1988709930645323 10.467634771155527 -1.1401641815126624 -1.1754340604585498 -1.9974964737609147
Ni 5.261062532458585 3.2336651452601015 13.250422451399997 -2.0042847003273416 1.582682145918216 -0.5837131798313625
Ni 8.10354358568792 4.508326108843987 9.42201769087745 1.2471207874705748 0.8823020748197127 0.5896303166467458
Ni 1.3646775982055563 3.0980187767177814 11.187402473851542 -0.024375086410254796 0.6342646675266689 0.9980665088772425
Ni 6.070118924604771 1.7212585969108736 3.7790586749368877 -0.21721116594080656 -0.27848646781152037 1.9260059219200958
Ni 8.297537703278065 8.742191657584883 6.441244809824013 -0.024997036264969852 -0.7347222960237992 1.2197750484677703
Ni 3.206808734183315 7.557285679523798 2.278031993466334 1.4715372129105688 -2.24972375076559 1.498557964473787
Ni 3.01701034678575 8.257710972585908 4.563135053829608 2.172022442128369 1.6393896259125895 1.8601586844079834
Ni 4.208083767891608 7.622062520715266 0.2708320477784166 -0.02137435191071803 -3.048293223152337 -2.259946199824547
Ni 1.005685689946373 7.0339407587320775 13.753919419120356 0.07463603944833598 -1.9482655046492445 -0.5033494938706299
Ni 9.39899630802123 8.296640620653372 2.4781234695211993 -0.21707875412800037 -1.0217006033564147 -0.6012298485588872
Ni 1.5915273669251317 2.7969073869727294 3.451787047610255 -1.0722770307523857 -0.3673985575628963 -1.2547063131273166
Ni 9.467866088687868 0.149256793988854 8.758392409110222 -1.0770952780766354 0.8071374165614164 -0.027631131453707252
Ni 7.415854996974335 8.146547484009204 4.41982984237896 0.8329644049268493 0.13103035907766467 -2.451010532166656
Ni 0.6824247695209781 1.2829215994196126 1.7819069891066137 1.4700107489637135 -0.035127696941068536 0.6013751158874998
P 1.7060736045657876 6.358194582459735 7.373084713919899 1.3238206514264748 -2.199417803422186 -0.6878189466040412
P 3.0137958007139285 5.5468300714770935 1.5163583842032198 -2.1316409529875293 -0.24417252502099882 -2.150267824060097
P 2.079297354881319 -0.23616541110038555 2.8351287135511116 -1.9566285319019594 2.819222072549151 1.0721304778721923
P 7.857612121972243 1.4576377851895048 5.551146347147368 -1.0451935442720324 -0.42483803062728775 1.3740885464430916
P 4.938523950438282 7.210011913049684 4.154952180521952 -0.14041539983699042 -0.6582268347692213 -0.6165361398986543
P 4.8155114955270735 3.8290570143475846 8.681132102519491 0.08472067737784764 0.18086965119729495 -2.178842550373996
P 4.9077801813211535 3.513947397813032 4.585962068783808 2.662950679516511 0.007154865877226388 -0.6126180357911707
P 7.967616878825384 6.41625264857667 5.506874385157636 -0.19801119597358802 -0.7507179001211071 -1.366197573730789
Ni 3.669993051456474 1.4836251474736184 2.8899722335962257 -0.000287449333431763 -0.8022206959860894 -0.17900920094978848
Ni 4.399246468447562 8.091236733430394 11.55690800357993 1.739861909697739 0.6305573938784108 0.2868163278334544
Ni 3.407643106786755 4.533472456167449 3.3151566915639736 0.6238023345427643 0.4212719105425841 1.928035293645299
Ni 2.115451653578635 8.816107528015426 0.6463807372296142 0.18191531885298992 2.6062416568602407 -0.9950727163562411
Ni 7.704790359011296 0.4255974897595341 1.6287544269278111 0.2070923323392498 -0.8715736326586152 0.10558055154599237
Ni 7.031856910551797 0.782028974694069 7.75592500307994 -0.3521228623507484 0.7271753369144768 -0.08913577572640778
Ni 1.4899421042891743 7.732011209904364 9.122359388092189 0.4118256775280198 0.0004599703555540466 -0.42663831706082
Ni 4.478797139114466 0.9804272072948237 5.919133377641247 -1.0014999600388235 -1.9350405213185384 -0.7904864382682967
Ni 8.553243629758642 5.672786078750581 0.8861363477509119 -1.7661655805892742 -0.06488718759168825 -2.2376539640852497
Ni 8.674517987084505 1.7829236827479338 3.720262384576714 0.2072288579171141 0.27713920975500655 -1.8391147192534907
Ni 8.644998361965657 6.411468207911634 7.436449584438542 1.2665716971063348 -1.273718078343129 0.5121202980847246
Ni 7.364599807427998 4.280672703606457 7.077296948875766 -0.10256850419254596 -0.18211020847261541 -1.1683018202891426
Ni 5.34394922913607 1.5365156438878875 9.271532080584977 -0.3920256120829571 -0.08013074401432006 0.08336210646742417
Ni 0.28624972092928275 9.265611335261996 4.66595754291879 1.7210797439942294 0.25453715608477456 -0.36466136113739134
Ni 2.821651916037214 0.23649527585717417 7.822134373087717 -1.6671788802107157 -0.6255074901593292 0.6085076131672229
Ni 3.1066438523697903 4.30347355365077 9.81488287836845 -1.1115418897902793 -0.23064235174504796 0.4591823124351124
Ni 7.435534747053567 6.11873893394107 2.924246396625953 -0.3886199288355178 0.1856030521172223 0.5646944726370146
Ni 1.2615598194190794 8.119093017849288 6.583989344634227 -0.04049410345930445 1.7613187940199342 -0.5138665913518699
Ni 4.806008026471718 5.852912794100661 12.121349587654391 0.7259633188842465 -1.3721404215777853 -0.047750527911401636
Ni 6.46437739354725 7.725862456080939 1.230468430784882 0.5817622267525787 -0.5649294714659561 -0.9503956851638407
Ni 3.0587153442233617 2.830043376422376 5.119465515839126 0.20694706501063714 1.6038451531490765 0.46253528806774535
Ni 3.111475016088196 2.479536374655093 8.054024624804795 2.0247869340457516 0.28936429106628875 -0.1763321683382576
Ni 1.187008515462712 4.169032639885383 13.589934584248368 -0.3140957323746978 0.8980174286724404 0.3191433221009342
Ni 4.089351144669045 0.89589305575553 12.714141786052396 0.8477312788233788 -1.1476399210644173 0.8034666525780485
P 6.418654213519862 5.469522107371926 0.4459042632149843 -0.07955867356093396 -0.9262936499093144 -0.8564128657577766
P 7.6003363008984515 2.819586757078283 8.50854555352218 -0.41774230012277086 -3.5816557184452895 -1.6788660867406568
P 8.31120886869398 2.572758210737911 1.680151654556391 -0.6244615653933181 0.8612213428900136 0.3733750868613053
P 6.979190684793702 5.480380544974997 10.874874773246187 -1.7203042992807855 0.8244918486794639 0.5959074079047092
P 8.356221858310153 7.80075951063224 0.0497796755209281 -0.10516377572354793 1.030707177730399 1.117020139296031
P 4.553937153543289 0.11004306975690364 0.8283259138168348 1.5602994073476417 2.364154296503045 3.3628124162176984
P 0.9187387599310786 0.9768014983533508 10.69157836595552 -0.04788653926863366 0.11347435247177232 -0.935928344785601
P 1.5024171595388296 4.7330639955512614 4.275539708963284 -0.9320380085922594 0.698383609493765 1.085226648934518
Ni 6.14050253220058 5.355938364630682 4.8651874458695215 -1.8390062187000846 1.910046827487678 0.37388879327293023
Ni 2.8358090012081716 9.472538394024818 10.506381264853783 -0.737913292157271 -1.676010362459417 -1.2863301106801848
Ni 0.00640105831162091 8.774178259921639 11.913078773876663 0.9709544831517987 -2.5415172200986618 -1.1826048671753762
Ni 7.207871997205362 2.257742040310097 13.474174481681173 0.4376716920568463 1.0146663222174523 -0.49624990671137115
Ni 5.458785149707617 3.6553593911411477 10.679884520158204 0.4444732883597119 1.4035940121013764 0.7925772593590543
Ni 5.904280118975084 1.8573535067655405 1.5075370717270589 -3.2040696788264302 -2.346375632363385 -0.49803502363625196
Ni 7.027558389641804 7.351900481522169 12.04962783181008 -0.16373042041384706 -2.3126103629874817 1.11557775042255
Ni 1.0769850693882235 2.5537699618485474 8.918041344629518 -0.5051346107955106 0.24979707029662784 1.8538288855352139
Ni 6.433979375025056 9.452727819396152 12.783756332189743 -0.31540005300841806 0.21042216804343114 1.152318557487009
Ni 3.713267943487301 5.251792678670077 6.143843230516499 0.24708764178526477 -0.16090914891496805 -0.45038836829256623
Ni 1.2198361327601195 5.973990914602372 11.371793135052123 1.440269513145539 -0.4656830896681077 1.632146828307247
Ni 6.021629739817909 5.983466349825705 7.659927817626973 -0.9874239415617315 0.5009956489264726 0.20517454649124667
Ni 2.1630998234048464 1.90744061997764 13.589359890691924 -1.0949608455031465 -1.2162899181326472 -0.40563754643943684
Ni 1.3324293467699304 6.9979733522482395 4.243973614106852 -1.4731315539808822 -1.2090841444128275 0.5969831574673912
Ni 5.728732262855215 7.161130254614518 9.991996891237264 0.8261293842828868 -0.7809610152763646 -1.5239877174008012
Ni 9.056292056166654 1.0246832834464101 13.320748122409626 1.1747329206264674 -2.217479288909588 2.0382911391797736
Ni 9.179397957184602 4.158108790007595 5.651943859103516 1.666761590167639 0.8946150878591108 -0.25059616915915556
Ni 6.4678348994965935 3.693251787423809 2.439363893368001 0.36439525196019823 2.6814564516301824 0.09150787550301015
Ni 5.308589222346035 2.8484802932819786 6.642416522872781 1.0514377254095313 1.942146279125384 1.233330675665018
Ni 3.157534602099845 3.3469778942918023 1.4029092038556799 0.3783054342833872 0.16443773089351682 -1.039920211688235
Ni 5.029213397028473 5.861920998790299 1.9539337959245577 0.6750325934726504 0.2414260726241132 1.5684300068745762
Ni 3.700727475962928 7.14251579015211 7.680320561500624 0.7367215858420151 0.49866108725602504 0.03364725574080012
Ni 5.7861642400569995 8.047457232423177 5.959548818805861 -1.1856835061006998 -0.16590325969544978 1.349682092574269
Ni 7.338827371189384 3.518301986387069 4.615284522617436 -0.2889907097769539 -0.8489944618065185 0.7455062740131806
P 3.0398298860514115 3.5929467364501755 12.62496896977458 1.2912231771064278 0.7953455661328109 -0.27542299839484824
P 6.163181902306134 1.800986815180581 11.425282621010588 -0.36466778889529455 -1.3545430202109963 0.26497274959580175
P 7.807814691691034 7.887318639304568 8.601766455143931 -1.377703003267227 2.1266635543775956 0.9512269228158845
P 4.788935422770504 9.073878613454934 7.708439429479454 2.272246357348138 0.17918172197191076 0.4818303888519314
P 2.4552123530709338 7.884552634545094 12.099712141638978 -1.5815192359583665 -1.0325953958920475 0.40656828578382237
P 2.083315537471096 1.4279966801318968 6.158012463681333 -0.3286047246241502 -2.012223238448128 0.6438332850517106
P 8.886257520344385 2.7175436085193043 12.343651334358979 1.9128027929662608 3.0965042356399253 0.9228100622360882
P 1.0311964770861177 5.257810607944068 9.171322344640219 0.9549125991975875 -1.763683694707685 0.6624467863878397
