# total energy = -340871.9221786396 ev
CRYSTAL
PRIMVEC
9.20539620185959 0.00000000000000 0.00000000000000
0.00000000000000 9.20539620185959 0.00000000000000
0.00000000000000 0.00000000000000 13.47302783712894
PRIMCOORD
 96 1
Ni 6.4412643518242225 0.6224606144002408 7.065848651155823 3.476480372757516 2.842051668849157 0.6460482904251583
Ni 2.9399550393727236 4.20066168178524 13.02588526110213 1.4617729344349535 -1.3300501772759545 0.5036860512744422
Ni 8.497961614153136 4.117003040015837 10.592710302716423 0.47597907227747704 -0.01250815976933975 0.4797693925578447
Ni 5.1088108504822705 1.848084570892052 9.743612830881908 -0.32176918975955554 -1.9186628512914634 -1.2414203946516877
Ni 4.7881132534353466 4.005424431203456 8.936376898819221 0.04579906061198564 1.0243012742040554 -1.3509619877279573
Ni 1.0618700818690425 7.513610174707084 6.6417578837055595 1.1154774773992595 -0.11293210681505711 -0.5990855485223747
Ni 4.949327359213026 6.619103403358452 9.185735435993747 -1.6367565591651165 -1.8877962436195939 -0.2743156242632824
Ni 2.429359321610461 1.7165486628547513 0.5896857213373249 0.08810296358651924 1.1524692241322605 0.2503295457613302
Ni 5.647897269859442 6.884817168177313 5.215139621772525 0.8287056296504954 -1.2333797837353986 -1.6537327820081391
Ni 8.351015872673717 7.76761467540505 5.171055899328699 -0.07928973617026344 -1.0794102993630572 -0.5996126246704383
Ni 4.238422217495857 1.3071846884395533 7.253352448287951 -0.34556552084820485 0.5758936837869437 -0.12227755258569908
Ni 3.2399773162816534 1.0229772824108865 11.198902220197754 -1.2862293234362623 -0.9268999160347455 -0.7013434634530373
Ni 5.06319811170945 4.268873668527236 1.616642496577977 -1.2567058600558485 0.4602495773573622 0.09392651224683178
Ni 6.396756260609978 5.099071541174169 10.794684062326251 -1.1765206086545092 1.109622304170063 -2.344176824939853
Ni 1.637244173545398 8.913318301573602 4.580330888746682 0.8856799901530101 -0.45541744607604145 -1.1181563097830032
Ni 6.238055228028058 1.7904219683344447 13.58337234718626 -0.028709452119550557 -0.6614345430732416 -0.8186572442755577
Ni 0.8727986057433706 5.69824158234149 8.59386527410934 0.5517687657142819 -0.11357745370853987 1.7300279543264527
Ni 5.114628660957431 2.5635187675993776 5.082106916293355 -1.971873373876172 -1.2784278251139722 0.7495663030151672
Ni 7.503695962868875 0.25636844647331636 9.393206658286747 -0.3547723841584535 -0.4094864878718819 -0.005709134569635329
Ni 7.5265713727276955 2.311254086806167 5.3524565186997 -1.7190442016214396 1.7957713192708493 1.693657900337851
Ni 8.32381392654381 5.861701804821605 12.297048007350764 -1.008391287842018 1.07620901881694 0.6663939439610459
Ni 2.5756975069326655 2.0886676037533336 8.739481756359941 -0.4904176163003103 2.6227010879678447 0.7938448132175683
Ni 1.2686324886452909 5.103572979975361 6.47620159248305 0.7640529266671164 0.3864681725998376 -1.7970987798330211
Ni 3.4489858397603377 7.253419647681099 6.890389194570691 0.3557044090544197 1.801311018142156 1.4202313635477413
P 0.5501421003592416 3.1695008020445776 9.120849358942692 0.006036436002067023 0.7326137343212287 -0.7817590856976278
P 9.153109670351238 0.6535546020948587 3.0873444809548376 0.07441158214235571 -0.08614532563951616 -0.48613390132329176
P 3.7606069160343036 8.167340599871682 1.575414288073067 0.11640181053121242 0.467633271415943 0.3913730661006227
P 0.49358782751873764 3.297400578534903 5.615126979494686 -0.9319878720806142 -1.2213917581355869 -0.12486819613101074
P 5.4358785817836415 8.18432455608477 6.62987463759419 -1.4364622235843068 0.15361210103292255 1.2632778568464114
P 1.4661342667221533 6.566779930667291 4.545584199791709 -1.3790204365270702 -0.4077453368110591 -0.10974933821170132
P 7.404627487657352 7.663685750935799 0.4064605924154104 0.3709957879958514 0.5945488369942856 -0.5043889908787378
P 6.602367992846044 5.557251732282054 8.391595100737964 0.6645118964469846 -1.4885874835246362 -0.6842340574662603
Ni 3.720103172219892 5.293102884837841 5.895958766692275 -0.06493578144143655 -0.6692676659644151 -0.7046383321542252
Ni 8.889476325101029 2.8045344540877677 3.5404828764974603 1.047118529208887 -0.02854695839975729 0.5895755521494105
Ni 3.795891200134449 6.364795124581879 0.3091844078676766 0.32898267678885923 0.1732836113199209 1.5398761064962834
Ni 5.033519913969072 6.628143102546124 2.8997458682405983 -1.2130593270104915 0.13153840906233474 -0.5515854460588823
Ni 0.6938015153519014 8.192719877529939 11.37457708305681 -0.8733893457111152 0.5789227004212546 0.327998458498719
Ni 0.11558847945000841 7.525798119436693 2.927594953731903 -1.3538933024421391 -0.9369547291675863 0.3062137585234597
Ni 5.155739960929058 8.774915167880495 8.64709731941743 -1.45730358580969 0.4204869527474436 1.781104975507926
Ni 8.251588387005658 6.52426020505848 7.260561194147285 -1.207626071810062 -0.9172335965895752 -0.5240407036713943
Ni 4.215095743217285 3.2112380689660647 11.231722219702645 0.6485139783568316 0.9705104536358446 0.9506419968466918
Ni 7.475030358723858 8.887800942970523 11.852491802798633 -0.5646584771927565 -0.3138265378737112 0.23549582318260734
Ni 1.1028248901032054 5.1735892243963635 0.5016894968212521 0.9492590004562362 0.49956894378227507 0.6666312567828325
Ni 1.7242443741794895 0.7027629686708398 6.839501763705676 0.6413614264724503 -0.1536820350389095 0.9560246013148437
Ni 8.274196840371157 4.160756288731723 7.2390178051361795 -0.3010386420804235 -0.5231842692083699 0.49135709739544414
Ni 2.3227240106227023 7.43657021289281 9.963586822458712 0.6641516848940885 -0.6417290942245141 -1.4837592088980576
Ni 8.321070718440016 4.989002617358506 4.702316198100471 -0.14888384231931778 0.7203788828179335 1.4950998307218575
Ni 0.6440831698197115 1.2859478391259518 10.151387953892023 -0.2662004513553157 0.12473295610472711 1.122286529901293
Ni 0.4275326651348578 7.622058948770171 0.21475361132290519 -0.4538691277523151 -0.6891939725746968 0.7354100661194432
Ni 7.421197201035976 2.8000146044939327 1.6632724316443182 -1.163883636616789 0.4508439677727461 -0.07834819819260055
Ni -0.17144038055118516 5.046987408787364 2.5849489302357296 0.0642130443427991 0.33280796407222035 -1.1534629555040974
Ni 2.168239049556009 4.574667728929721 3.4928016851712087 -0.5080178458805766 1.6343433217379335 0.4185501407360469
Ni 7.16112634416217 2.872921343359873 9.150004690172011 0.03956336411491896 0.43185045738937883 -1.344599278734723
Ni 2.664907002683906 3.2531870600029444 5.3225601530665045 0.3153185490382053 -1.4549050036705264 1.4512869473019652
Ni 3.410323175210218 7.32823190358558 4.47106467549025 -0.07969597046974662 -0.38506589293567234 0.17702045265453384
Ni 4.644858875880832 1.983210583494721 1.7960621146606013 -1.210601095277986 -0.6270491236148362 0.052143257662458586
P 6.844046467869579 1.7336154676347326 10.910566193918912 0.23757764541230053 -0.5369322149220817 0.9178743154973676
P 0.6470647976882314 5.866691129627835 10.85221410717683 0.5940377016858222 0.45059174255262396 -1.5333899845513075
P 1.088519704219661 1.2515656838653093 12.360829436843243 -0.8266065810296216 -0.49139386417065045 0.07134605584315455
P 3.125968482840407 5.431386348378771 8.039679243146082 -0.4664166254000225 -0.5875837185303623 0.8895502717416937
P 4.455172479280886 5.334656043832899 11.864281153867525 -1.6112249905529157 -1.3457115379622953 -0.6244703071440664
P 6.085402140829334 1.4171799690846445 3.248279663223976 0.8723886723607427 1.1816216773265007 -0.38305169071912093
P 5.927373102178879 2.881187789256541 7.175276879387514 0.35846937339406654 -0.1483588230537832 0.4290240436841773
P 8.425883360956128 8.642734882100692 7.2022091074052 -0.6996102828120144 1.8816291955769338 -0.24952221936868643
Ni 6.491470583361449 3.5675329335880623 3.5786650193596 -0.14669120554337317 1.4889656927996615 -0.5037223038290164
Ni -0.10813026735036387 0.8395772509588642 5.328515123946855 -0.32050189301135773 0.07852431875914863 0.10266877721583607
Ni 2.1730258556431665 6.311201307198356 12.221343748542731 -0.3434150501641054 0.680286642782738 -0.9624402750332007
Ni 6.4708965225829935 4.018707818095319 12.720330541004005 0.16778556431982716 0.21091427718850128 1.536108154813419
Ni -0.41003965050519287 1.7553586137460144 7.649931047752277 0.3204661546774158 -0.4944187670399033 -0.11784497073564222
Ni 5.7301566913879824 6.723658294777564 12.64951618872193 3.71755703246201 0.5551567083499084 0.6984162625039132
Ni 1.6047399191343332 -0.2895796753218694 2.010445669051384 1.5566641245878996 1.6052348344077516 -0.6057562756743309
Ni 6.944909995363784 8.738010734027775 2.3399417839023555 -0.05463594217732526 -0.49811549916520026 0.439256777155779
Ni 2.697650597399329 4.642962564238611 10.238787668726467 0.008459186510946723 1.4952404700647797 -1.034821457009089
Ni 2.126962052450595 2.305242963008255 3.2630055357194108 -0.0378630935943606 -2.5437687351369997 -1.1991841116902962
Ni 0.5495124512508539 8.607312517055725 8.817302335782276 0.7550268119091061 -0.6154917577945399 0.22755908483403392
Ni 2.292088451664893 6.594589432954413 2.125545341956723 -0.480119833918728 0.10545251060856034 0.678894904641534
Ni 4.030113304137604 7.776681990781685 11.477417009141233 -0.4206242496562563 0.2614688502076013 -0.27508104167439723
Ni 1.3167306844249043 3.359141171662916 11.604373232508609 -0.6867529672333721 -1.2047209823481253 0.21987971391190522
Ni 6.537626440517236 0.09668980080205695 4.813091175813988 0.12651113105107245 -0.6930115465485742 -0.14679302122856008
Ni 6.06547245779338 4.694172183974877 5.870279393113939 0.6055493018698473 -0.6485995960921024 0.7441803561129055
Ni 5.070985876997403 8.96700417292034 13.362953734967133 -0.06118042816406237 -0.6668706264871482 0.5879768402037229
Ni 8.011889072191236 6.691264505122356 9.614043195498873 -0.10855454657265177 0.868444343001014 1.698574620913178
Ni 2.4935761663489466 8.822543888447713 13.15777281527891 0.10135468639010285 -1.1253363724712104 -0.1893830879849448
Ni 4.45557751671903 -0.0017674360937197662 3.5470444829953953 -1.1154571656842853 0.24899102945556476 -0.7817791403022858
Ni 8.172661318945485 2.260550763867581 12.458387306518413 1.852349729886526 0.6483026336769738 -0.5675957054442096
Ni 6.779010342858484 5.808697132802654 1.6465121665618412 1.728600992071939 0.14997424717001914 -1.337649072669135
Ni 0.3530214256900875 2.7730796148573487 1.2493932103334457 2.117800704670327 -0.10943617784665668 -0.7563727844140392
Ni 8.321171977799553 0.5436338851599714 0.6139456228028931 0.9441504755850773 -0.38052481053220916 0.6950640582022287
P 4.429047564520591 4.570580532962993 3.9276029312414895 0.8233911594161175 0.10079675700410383 0.290066716449952
P 7.142439389629611 6.7746838065874 3.5951693744243407 0.9926445665307227 -0.4763711655095732 -0.018478775530477855
P 2.9136828382712845 9.333719546178228 9.06718650108676 0.13425169422843974 -1.2182025617743277 -0.17806020677295786
P 8.381504145290382 4.521524975965949 0.4972837941418027 -1.9794930952049588 -1.3926560250326339 0.4407369612457313
P 5.985716904064275 7.705432223253608 10.654591738408156 1.989813246184044 1.104601453916704 -0.27609431343026003
P 3.2855808496581522 0.8995135864078713 5.378190204116334 0.011555051827451068 0.8403447565513205 -1.4397144119730172
P 4.292494715488096 1.831735787025144 12.899993181549513 -0.2619894985977617 -0.03278927861587901 0.05231886400837442
P 2.7926594928330877 3.6847452449491755 1.6560507982301351 -0.08505954877450513 -0.04648091717035866 -0.359026274338801
