# total energy = -340866.08422643994 ev
CRYSTAL
PRIMVEC
9.27067587535508 0.00000000000000 0.00000000000000

0.00000000000000 9.27067587535508 0.00000000000000

0.00000000000000 0.00000000000000 13.56857123786036

PRIMCOORD
 96 1
Ni 2.73749145100672 6.403598667030254 7.405983979173051 0.004356991417115076 0.6464352414509319 -1.2602719801405522
Ni 8.046575612766622 6.90765457126747 13.41246491233203 -1.022577349534413 -0.7398436764107645 -0.62146623021042
Ni 3.2154689447195883 0.7611641865966141 2.4617732144039604 0.6562386006945988 0.6647224697958939 -0.8274568448450589
Ni 7.321256493462006 8.756505410538919 3.3381264726699906 -0.8396670137580056 0.6679173225841077 0.8966817405801526
Ni 5.5121768526084205 8.872073652841271 11.100502107707397 -1.2194893989065516 3.439405065171773 -1.7828654098424586
Ni 5.682516246484836 1.570396826292674 3.0183966306199204 0.40015261206546565 -0.6449530004784506 -0.0681144362797343
Ni 6.304949407737833 7.258373500718798 9.56037403732016 -0.3677250876643796 0.5095579366741869 0.3301867243992894
Ni 3.0547339707874395 2.3089544703853346 8.589257786982401 -1.4816437052169515 0.06456502836557913 0.7716945023727743
Ni 5.125830716742209 8.76375507887523 1.3225249180553547 -0.5372016665333845 1.5707252306666561 0.3886273850346856
Ni 3.7358597794025563 1.3645414741088373 10.654882980185137 1.955962101962554 1.6061552893394917 1.0685196205924823
Ni 7.760742141992831 1.9307479877151343 13.400279536294633 0.1958069892334176 2.2761698607722605 -0.23629003694912856
Ni 7.3844454185007375 7.33473605581622 6.867569096946024 0.1749985371284986 0.5954548937483228 0.2303698148099516
Ni 7.599126453876603 9.169940460572262 8.44270416554904 -0.016408266154694325 -0.17126992332400182 0.07979161550734645
Ni 2.515004506757231 1.8310789541043067 12.553777853531056 -0.9610112558961579 -0.3542787323514866 -0.35729797879378467
Ni 2.136213971522852 5.690396320763433 1.611946140294814 0.09592271674125415 -0.3209927166048472 0.47571296310028394
Ni 6.258716548411519 4.998627776534399 8.612161918173816 -0.5981226703884731 0.2276778698000853 -0.8367557536484816
Ni 5.507930883173599 5.176003613207822 10.734951024328625 -0.05691162558537941 0.0026664910885696013 -0.1250314611817524
Ni 2.7648955681449956 9.035589829459983 9.586805660585702 -0.7609447200554379 -1.913815550501491 -1.6367035944399941
Ni 3.676036109614567 7.13409082333188 0.4328255951640663 -0.4211538969074812 -0.903473052470373 -0.3778506061341557
Ni 3.161050078819155 8.698489522497198 7.035181985122045 -0.12130439003915237 1.157495473702258 2.604510533101747
Ni 3.435814362900423 6.109708979141048 11.211601884360002 -0.9879016525290987 -0.10799147498033015 0.34396629468188505
Ni 2.9056615067876157 3.708539098344877 11.337273308955078 0.36208742976262803 1.0976718166764063 -0.15825011402556616
Ni 0.19522559551578952 7.916063041361802 10.147635182331307 -2.084727576265442 -2.311156918370407 0.9240169380599956
Ni 0.34497852710625954 2.8183132010782663 11.180095493259044 1.1815478866657716 0.9248738867436525 -0.48397186067496656
P 4.425023263781843 0.7346027738723668 13.059152047841703 0.26777036694559686 0.013365622673628594 -0.20223011915094202
P 3.705934038495129 6.454133119845119 3.292223649395816 0.9827180514456303 -2.098149506098302 -1.5295094185499787
P 0.6165815108004664 8.718523452516079 2.052938273614194 -1.3526257485836253 1.1754895962868337 -1.756345509175059
P 7.384538125256957 1.9659950964295205 8.948580830478395 2.9052784380192866 -0.9048298236085837 -1.7561701599394592
P 9.059239322971397 3.852503420077045 5.6009565506337875 0.4337625868104271 2.0402256371983247 1.4422718882875483
P 7.438159713053909 8.125153859337674 11.570639391046843 1.4565319977509883 -1.3630667414112911 -0.7622837505818356
P 1.5724271042538658 4.179109322235864 9.617810508135515 0.2648886745224277 -0.2003809817573452 -1.0023489383026802
P 1.5855636516100688 7.7704670807201826 5.897904634410651 -2.7227527392758075 -1.2498057905019055 -0.632035263975518
Ni 0.06777976360668618 7.479117557951372 3.6134321642075764 0.4726682627366892 -1.2237646292431377 0.7487368651353363
Ni 8.528307730106354 0.8014295120251239 11.529798356662214 -0.4769473497280173 -1.3639535148916186 -0.673226393501847
Ni 1.166733068364792 1.0992796325399963 3.4862542548239452 -0.32554922562727806 -2.0738577234304736 -1.077496370169796
Ni 6.997645019529055 4.9275124238389605 6.171990305036398 0.8212697421977405 -0.3543964888762735 -1.0089265915201977
Ni 8.863266511000484 9.05949890188881 5.440495061632485 0.19939676346720497 -0.3554462702970266 0.3902206976637344
Ni 0.4692612044931775 0.7780470139716191 9.53246374129293 -0.12248118395607291 2.517727573878232 -3.322673639215284
Ni 7.285879595288914 6.449646112844129 2.6365903446057444 -0.09356115848761307 0.10865456248562577 -0.0782155292694782
Ni 4.731789920109838 8.483780675094465 3.4824412259406663 0.45772526827361176 -0.8318449466104254 1.9223693536087731
Ni 5.612856389862033 2.4008824898518926 0.6731344862290564 -0.6488847314326889 0.016837383272312937 -0.2799334846706921
Ni 0.11049069326424771 6.081387065116206 6.444704842737668 0.6716096838340304 -1.3667387909462396 -0.7141935799428282
Ni 1.9325094160832914 2.9181120241478 5.448459499059242 -1.912414042168274 0.021936652172091255 1.5378323365933773
Ni 5.56204381677851 5.297486546556932 3.9199197731993536 -0.2545014177508327 1.1512554063298173 0.6226252835155277
Ni 7.737129731183904 3.9408900414560457 3.806838853166353 -0.3350461093741197 1.2268039302900935 -1.0164974618889204
Ni 3.3143777829294216 8.344108676175228 11.986502431025556 0.035588438627570974 0.9388174934079381 -1.3864365264854832
Ni 8.374090041136386 4.395394184494315 8.165796501263996 1.8903084685184866 -0.5747454291151134 -0.001852479827706487
Ni 5.0383618922497755 0.12672735454840764 8.829136518698535 0.17252025079133515 -0.4883406791666234 -0.8361080927621536
Ni 7.826601021610664 5.327783114489234 10.732319079519572 -0.9216196414724127 0.544448835014101 -0.20923406127260094
Ni 1.347307288127763 7.291061902961545 12.813384582970551 -0.3404914487594071 -0.42188666130844765 -0.3098089320738858
Ni 2.7290829482176746 0.02002929468107089 4.910573972410225 0.2375797022948295 1.4064937022466744 -1.6071274234447739
Ni 1.971817080720061 4.284136806356138 7.32180439039126 -1.1342339320711563 -0.5135256630726833 0.8269667925825177
Ni 3.413981921810896 7.11037643509111 5.1691368237746955 1.2033657538718114 -0.10726590966821525 1.2317126804456207
Ni 8.756078959460313 9.112601331850938 0.049616655928299655 2.5519877806126825 -0.658406297769879 1.4002420649100078
Ni 1.901740043694273 6.520205225002256 9.524702331662292 0.4698248797506231 -0.12461082870456604 -0.6069752356830966
Ni 8.793894045321961 2.051823011336882 4.542418756249266 -1.4553315496849841 -0.9376165311213013 -1.548999151843474
P 2.4565899796637676 5.259346987048519 13.15886743483064 0.5232665445095311 0.3043165415007469 -1.8763741178255815
P 5.118849897998934 3.9336496437953574 7.019808423738282 -0.3786545900926898 -0.19960322305105624 1.3402132338518853
P 1.9382757763201006 2.358116863208162 0.9448802383278401 0.4545234735068624 -1.0930034646664595 2.107039609499081
P 6.650393322760311 1.0580436673738756 4.910655554355698 0.5239391450965234 -0.5081615705472925 -0.693467146028754
P 7.80162582148532 0.894654499011183 1.7444435633502795 -0.7684947644885539 0.04505704023963853 -0.05186557852103971
P 5.813965156127467 6.842203601377 0.7314164426611268 1.8238037999280332 -1.3014949913460812 0.2280897605265233
P 9.537485666277302 5.473341992428366 2.3495062596905605 -2.551151143644 -0.5425282209526204 1.2531276557862872
P 3.2738278477593203 2.0601758900721956 4.175931334632684 1.5237480905861693 -0.15091809914052717 0.15573377536161567
Ni 6.445548474219259 1.516413682146469 6.899414794774743 -1.6948884303108422 0.3975925646477733 1.1773778144484819
Ni 8.6274761472336 1.9926946422205338 6.716049174582024 1.8292753645655655 -0.06936039287169345 2.7950454753029477
Ni 5.4858759458691475 3.163831281505719 5.093953498616377 0.6714595314094113 -1.5764248521545947 -1.1902245885041631
Ni 3.8264157388770763 4.888408714065873 8.917820728764998 -0.273689046422877 -1.4663870361681972 0.020025808302623575
Ni 1.8561932143639785 5.507597138851211 4.174424849844128 -0.8603535955730797 0.48376977196648946 -0.05546743693968512
Ni 0.7023241354921064 5.497112004722865 11.151316534926043 1.126301821708273 -0.6699649491417559 1.6923898322587045
Ni 5.015806338461742 4.91454274864395 13.063969090894831 -0.5770679066007031 -1.1008741256637877 -0.5775659292830441
Ni 1.4189047159555392 3.334624938487607 3.273160359114545 0.2656026698703168 1.8889439840707918 -1.2819949736399403
Ni 5.367174215206601 8.69697840237083 6.410186409127162 0.6367776637565098 0.9376489270211336 -1.243533841450265
Ni 5.18364264992025 6.405248847290948 6.630743198712175 -0.8122410563365688 -0.8976232785578153 0.8598537731185255
Ni 7.136844213991577 2.7272288130932987 10.86202046680748 0.5868044171621765 0.3248465431332986 0.7956782668818813
Ni 3.8084491695218734 1.8285295183082897 6.4849896365849835 0.7384532238211411 -0.23571616672352952 -0.44559146112455517
Ni 2.424624690119527 7.913569229619516 2.508774612739328 0.6930177171961613 -0.09089698139188862 0.298352353497512
Ni 6.530736712508711 9.150555477846913 13.16308744637372 -0.46149296284616 0.8384945907164593 0.741856078855103
Ni 5.366645786696154 7.026143076390714 12.116137069448985 1.1659634019639533 -0.984279225285163 1.6071986430023415
Ni 5.449711040268196 2.5852762279710784 8.97141728573777 -1.9025790583557234 1.306997152111233 0.15745744292094171
Ni 7.825887179587779 4.72873986783024 1.1240471695314098 -0.5795657333218921 -1.1312036298852646 -0.6143648432789484
Ni 0.6889771437992864 3.8537827733128647 0.13340502219884753 0.5048839282372852 1.5341371471299774 -1.2109682488094178
Ni 9.061334495661944 2.6049115189382195 1.8644570946133219 -0.45442011515977865 -0.5014191096171365 0.6187663147807537
Ni 2.4107928420916824 9.229142995093586 0.2850964520618526 -0.9763471149222798 0.3203800227215127 1.9953159211698281
Ni 3.7701890912303764 4.769122930839147 5.484335159580791 -0.9403442144651096 -0.6420800498060296 0.6135919696686658
Ni 3.714611390877208 3.0465943175914294 2.2784075942112416 -0.47527896088665894 -0.2526810767126422 -0.18471576441626253
Ni 0.4856193116279841 8.044517522778566 7.72081519622452 0.22860860914447081 0.8392206702492063 0.8028511304812367
Ni 4.397007282052522 5.101550817288507 1.6664781084378342 1.2955390308729624 1.1508771970547922 0.44176463117929726
P 8.121352882332703 3.9389802822779383 12.418309178938777 0.38947250664380023 0.6813438804026588 0.7226782203750716
P 8.1184697022143 6.610399628127522 8.727874783015869 1.9577325635994156 -1.1374390692720153 -0.1710691201671054
P 4.228132654924363 7.023482392487233 8.95578599957172 -0.8949344188717425 1.289981591389843 -0.2526553656810294
P 5.900265875491544 3.7208876382732208 2.4802394731751822 0.9013668047606477 -0.280882993068155 -0.40084938102217416
P 6.576088857650945 7.112443795754791 4.941252492178148 -0.24260518053387894 0.24982226710760844 -1.582513995771468
P 1.46630568041021 0.9471107628824643 7.331831553143885 0.4071748090195697 0.6735477813970078 0.8519224340865909
P 1.3319457786223086 0.013661267596401789 11.24386754379439 1.8328700238953595 0.5330061403947982 2.65408731558861
P 5.1511025784874525 3.2286147627514135 11.24419294450872 -2.185113985205004 -0.9001838401961401 0.7567023998393162
