# total energy = -340858.7088865631 ev
CRYSTAL
PRIMVEC
9.25984598971518 0.00000000000000 0.00000000000000

0.00000000000000 9.25984598971518 0.00000000000000

0.00000000000000 0.00000000000000 13.55272060552372

PRIMCOORD
 96 1
Ni 7.977774030953092 6.0683011851669315 12.381088232574895 -1.1406449778038228 0.11553714853807198 0.08540356237748518
Ni 8.640177115300665 7.706358684544877 9.098266327353738 -0.196515585264668 1.3029718330019238 -1.5094928662187357
Ni 0.3381186471434883 6.715582940979667 10.723034095737685 0.2738834218218702 -1.058411842734519 2.763316519630783
Ni 4.522230996055414 3.5920702044736985 3.7548490374889494 -0.369195501562319 2.0546932346868805 -0.7527097337401553
Ni 3.761405008464249 7.082458039908175 9.253337264550007 1.4928606569786935 1.7146018495793696 1.6792646077306563
Ni 4.539722845168891 9.156858002983979 10.334843757278042 -1.1028083665720234 0.12236471298286669 0.6601425637346954
Ni 3.065629439095517 5.816618570606688 11.170017048485992 0.25575534476259176 0.32050909210020934 1.3553050951880015
Ni 3.936314239753007 4.319394069199559 0.9859893291624794 0.011293827746264421 -1.3313151600313073 1.749062859470717
Ni 9.391891414417682 5.455354938360429 7.918691583484304 -1.1882219562518375 -0.0364135056320276 -0.4035909483230533
Ni 6.771419812421841 1.4736674531568994 10.860228900211048 -0.5837887702643043 -0.7509960934831582 -0.3518320705832069
Ni 8.866191436720326 1.1969554748307858 11.95226661580661 -1.5435075326012835 -0.514940541142339 0.46607055491451344
Ni 5.745817788011853 7.9208722772197335 5.341045843301548 0.2334973046953398 -0.5046558713868793 -0.3555740541241425
Ni 5.446271029424314 6.908697029524696 11.282938092627926 -0.10913484455615398 0.27328409767497447 0.4602763168302395
Ni 3.5637998946042195 7.2836374543281845 5.176014089751988 1.743887485917364 -1.208833461854602 -2.1471873853625603
Ni 0.9114809042251157 2.641917405355722 13.245643015173558 0.1563708947249823 0.16570322786950173 -1.076110802676179
Ni 9.14769075543377 0.987469978539528 0.9135236262549903 -2.301499083565669 0.10156654529059284 2.967430743178315
Ni 2.0918825523432694 8.178379334920463 11.024501346387762 0.7349575519630569 1.8794288454915054 -1.3517978533656911
Ni 1.4777880846314875 3.138235891662363 1.844471504747582 -0.2239456564511627 3.3298022798402656 2.0720700354024317
Ni 0.6106183215195113 2.5302621821633964 5.7283555704056095 0.7322959459704936 1.8359404352905675 -2.3985512859256755
Ni 1.0880874652875636 0.7866118807760766 6.838662036194914 -0.15112173051090103 -1.8447924863645584 2.4382768866500713
Ni 0.2512103624137177 1.0999493280267716 3.4141607830775995 2.2789016578811268 3.6993302250413387 2.043632605997345
Ni 4.320810825639136 8.907777405152633 7.777065942695007 -1.2036228641879398 -2.38401195465892 0.566372888780702
Ni 5.094600597644735 9.229853369083257 3.1158650296860535 0.6670811998360575 0.07446017599210401 1.397110975480194
Ni 2.1466452816482464 1.126339889156157 1.8515052837770143 -0.6735673217810336 -4.0321500161881 2.417388987457469
P 2.142450571405576 3.789638278949686 4.238653767897256 -0.9397564602824395 1.4503276687124893 -0.8280823942441996
P 5.080896025549476 8.946835435624122 12.456468009021828 0.6395318294628792 -0.5891564623341208 -0.35537813606325247
P 7.53954255866913 2.106420510579457 0.20916325365009908 -1.2086815096577699 0.8973831375225513 -2.118728101580603
P 2.190435093431006 3.9951883406865623 8.020771199917368 -0.7068705639188536 1.0314851935470042 -1.7479611417661058
P 7.874758244088385 0.3283106182493673 7.276184204274486 1.237781769457836 -0.43466658668193525 -0.6813850180532394
P 8.197806491850093 5.246878765284294 9.934835077355439 -0.0919984419861835 -1.0577379565959462 0.36996863228291765
P 3.478887106689671 8.296479410935964 2.043371145079853 -1.6437106218854465 -0.3567040539635276 2.286654819463984
P 7.8834254599540365 8.852347966934913 10.785295448341811 0.2597212713888753 -0.6648854777363195 0.5109985257754555
Ni 6.717184894339451 2.9495202299722316 9.069548766921962 0.186674173694214 0.05278397657025103 0.3575733439423584
Ni 7.044474151573881 0.5002465129842145 4.817273765543538 -0.19573242724174034 1.204798629663596 -0.5381738006386666
Ni 1.0085176085209642 8.188435527687659 2.049564130091549 0.17800081428993217 -1.108850459001045 0.4818275606384541
Ni 8.975263162875775 8.73632209642572 5.349516750431779 1.8257264708720427 0.4103341805841579 1.8136708252590894
Ni 2.7907694299714656 1.906648592753015 4.011713461876563 0.052312436250471196 -2.065676730281578 0.7688675744469404
Ni 8.536707595981452 4.861178399416826 4.146224762976138 -2.0952624143584946 0.40738461103753065 1.5917943926321296
Ni 4.6384420634848125 3.593459181375245 8.008587094537 -0.6203382872535639 -0.09352130638861313 1.2162546940193375
Ni 2.897128021245894 2.3780395735998994 6.8071794857444585 0.015394737288515422 0.5907605735964471 -2.3716274649516382
Ni 2.2948213375052378 7.4004504117482535 6.921333941374967 -2.5575552473981307 1.353306576700734 2.360651682666425
Ni 4.512591496358681 1.8797765196310934 2.1316128476351084 -1.11384302711963 1.1954321008470314 -1.6022204730614598
Ni 3.1237997917322886 5.809460709640718 2.928417966899335 0.19390360156311764 -0.25383164537731767 0.5135071511299221
Ni 2.2981271025309185 3.477729625938382 9.958213410577672 0.19407432281302706 2.185545416315468 3.220746368151163
Ni 0.4249797066586064 0.6531839816597073 9.657547136607485 -0.32342163776131394 -1.3119583527712502 -1.1633874137066609
Ni 4.354062932662162 2.1804900188159317 10.218697508770715 2.6998570656245566 2.6162689591892554 1.4569114925775941
Ni 5.679119117199586 4.029070117238289 5.995235444237975 0.0315165825510425 0.9288827507927293 -0.46485776555333486
Ni 3.7216154501579446 6.7511314898132495 0.6414249032112138 0.1972442359005764 -0.24329500751205196 -1.4011635482830125
Ni 1.6334368362187992 5.072034352917609 6.035541701951654 0.8292165078486428 -0.9616802569387245 0.2693328263367103
Ni 7.219235225326474 5.9315239997486335 2.4707556337473373 -0.3053190146233322 -1.2421505879494932 -1.3623208643842022
Ni 5.136927353757867 7.041344323622396 2.6403413795647674 0.5823155281528875 -0.8134857273769474 0.10023188563956932
Ni 6.206772922405118 0.43630264636001426 0.6544488766247157 -0.13253805397144272 -0.3918744312170735 0.228103130262962
Ni 7.537116479014429 7.181686549754664 7.1299916074329035 0.5960531894539541 0.09242987309664727 -1.0745581134770785
Ni 8.14282152624087 8.352001447613786 13.188219932109819 -0.307398008639548 -0.12766375659827692 -0.6864809445189081
Ni 1.3434184591758696 6.952273864849218 4.492970808647433 0.49038316351794903 1.3714732203074316 -0.6014771886830028
Ni 2.7964179360377552 1.6547252221965034 8.868656407728272 -1.9197650832167066 -4.002209005654294 -1.1320443806190053
P 3.7845175841059846 4.931016158026588 5.361266569034263 1.0942134258141607 1.6868619604619401 -0.03931653821143552
P 4.966138753943697 1.4743341620696415 8.168360181537306 0.6306262994431333 1.5572909595386213 0.841373712036467
P 8.510557790848335 6.383247067669618 0.9643046217755339 1.8622621039042313 1.5852424504462248 -1.454202064066231
P 1.3288342017096302 1.9098710191646031 11.047120372237146 1.5125213686324144 0.9286734629954007 0.7693833377410942
P 5.396341939736718 1.8621920720575136 4.360072572722854 0.6107614421984062 -1.3045983128617533 0.781313513519777
P 6.1181932354704855 4.3813053996244955 1.251053347192223 -0.43067109236929696 0.21041908271963763 0.6153081810288241
P 2.9137679645264223 2.26567134226478 0.39206836196876027 2.2422505823169967 1.3001880996091995 -0.8413240897454544
P 5.431057102429373 7.005342042334308 7.188973122580178 -0.8760535228068397 -0.09955337151530597 1.6192810280881726
Ni 3.6089138643664533 5.735548618786418 7.6196374487045135 1.2374210436843076 -2.2508362671034785 -2.1390364741206516
Ni 6.1290365151485595 5.251425349675357 9.056903521210282 -0.46653438192480945 1.3888420506031822 0.35441577214998315
Ni 1.8662849239940709 5.847722393355322 9.307724044106964 -0.47420552531682203 -0.4118452179120456 -1.4529177980371688
Ni 7.033593832511766 3.7558768803960936 11.727291249109303 0.3342516384972824 0.11938814685304601 -0.38600511692049005
Ni 7.750398512169914 7.434137731533763 4.154491953494144 -0.6383527215531135 -1.212410637682899 -1.0348145150305532
Ni 6.522191057054329 2.120032484214614 6.857487303133875 0.764086093897897 -1.8648218942116075 -0.2438246547632769
Ni 1.0644378185772303 8.971151791247198 13.31186202596249 3.33330926455226 -1.9115426953069143 -2.1732848537805602
Ni 4.111297549809848 0.4663869600629125 5.665999767372178 -0.219599463667325 0.578557603772352 -1.3889747195263047
Ni 6.294547002736852 7.099033164266631 0.4037181742343321 -0.9208112866385045 -0.13010656171181464 -0.15695607780449097
Ni 5.301845211201499 5.1011102693899835 12.893787386473774 0.25113430105081264 -0.32936320005672953 -1.1845591626882694
Ni 0.7996719675890187 5.630291949187217 2.849608343490182 0.2900047528637651 -0.3965327559246913 -2.924654528553053
Ni 3.160172466860789 0.9440783401352124 11.903192209905766 -1.5762621013244853 1.4923891166589136 -0.9595387851156894
Ni 6.792680418861513 2.226594792101269 2.3534843139497577 1.3470958199043315 0.5989904177054072 0.12634015269084695
Ni 8.739692680373473 3.0879734475183964 7.606382905125355 -0.4137267512054746 -0.3524941296472381 -0.6100957835899493
Ni 2.9460570475643757 3.7276806492946974 12.481026046625773 0.36115231954286836 0.6374374088276957 -1.7631291077557956
Ni 6.25067385234 8.222548800389644 9.457128881529524 1.5899632529606618 -0.9548421509709685 -1.8189621555650157
Ni 9.115994302540477 3.005421920336477 9.793452970516213 -0.7279759784389012 0.9544850247418658 1.0973110909028778
Ni 1.7882892410492242 5.300261777533736 0.7138785683188895 -1.0557389238880464 0.7467951680279332 -1.4153899762950397
Ni 8.440775591314635 4.195636227271757 0.5148178066660394 -0.5777801021763792 -0.186872148637633 0.7598309181659689
Ni 5.997028150425571 5.667201695384316 4.298719611012338 -0.993412812155315 -0.18238531651087297 1.3452911625954251
Ni 0.15512927422613335 4.330570703334003 11.849563811737053 1.2882679511328459 0.22436500337676843 -0.9358165017980852
Ni 7.628038906989668 2.9239445352917537 4.729804334145543 -0.9558474523070314 -1.21717566317171 0.32295395409627603
Ni 3.504268344603933 0.20055344882971227 0.37487004997381035 2.380806560347745 -1.4081302094088328 -0.9970388389436766
Ni 5.242193283203077 2.2404753012707244 12.492234164236653 -0.1505002948768182 -0.1700411931232233 1.1852669873885717
P 2.034314089697168 8.522947464810132 8.867518372653604 -0.024825029463479826 0.1324534646774364 -1.137374534582667
P 8.341232246703795 9.01744176145274 2.754251375260604 -2.8747334753528944 -2.5441937384895605 -1.1637465968182923
P 9.083029250743772 6.193364665382187 5.636549753120986 -0.43322856868382803 2.8603157572656674 1.8804644858448711
P 1.9743195473963655 8.831494793719692 5.30694738635318 0.7859414992100916 2.0487694130032783 -0.561614033939478
P 7.815819324232758 4.6681383896398785 6.363896767461871 -1.7804827685428948 -2.291338855203215 0.26633903381570906
P 8.835837661498529 3.3862238276644923 2.7285154852441473 -1.0023617938184866 -1.4064178547034165 -0.2133426841243358
P 4.563752145565647 4.479098633339387 10.596262173933527 1.5651875886778785 -0.9054813411496534 0.2749216332783975
P 2.05136146620215 6.9986564335148636 12.666833190684065 -0.728879464089777 -0.9134016244379948 2.564597756067209
