# total energy = -340871.2784798846 ev
CRYSTAL
PRIMVEC
9.24643548295949 0.00000000000000 0.00000000000000

0.00000000000000 9.24643548295949 0.00000000000000

0.00000000000000 0.00000000000000 13.53309297333179

PRIMCOORD
 96 1
Ni 0.5837099112948347 1.78385009554752 13.369559008094333 -0.22709911447847986 -1.0258015128986657 0.5413401141817903
Ni 7.908088019664741 4.550605541969725 3.2985022389237497 -2.1939161568776666 0.1897695247900861 -2.1028052597027593
Ni 7.143269098886954 5.322932568455928 1.1770139241697823 -2.112970630271535 1.569415510716297 -1.5295346153609595
Ni 5.750025428889054 0.7772516780875599 4.012400114200536 -0.47807426424360894 -0.3810367171716212 0.33303422115041353
Ni 8.760174799649453 7.3571853865275765 4.9565092705784615 0.404917894664593 -0.05840595074271877 1.241128574442882
Ni 2.2889273938436676 3.871380875554991 13.451001612872313 -0.2776675714546508 -0.5352108613556008 0.7999833220151383
Ni 6.628029967864761 6.311339548513504 8.570061611177763 2.858532697223316 0.3667256998655878 0.33112671971505553
Ni 3.287486960191687 0.21407902490720915 3.33137424213063 0.09016267432902537 1.2849591984745872 0.3185331993207611
Ni 7.885563702539495 0.46524642765558116 5.269854329529098 -0.5766431603584584 -0.2477214187145218 0.9819364360845992
Ni 5.335267313548324 5.754167832038524 10.743354006032675 -0.6246988782151048 0.1306259245503944 -0.8009968508813172
Ni 2.9630757671131804 6.142370184331756 12.824310570327482 1.513288585815742 0.8953442527156517 -0.4000279135621433
Ni 8.154015467357745 7.570546888032109 13.689264690095237 0.8779237432463589 0.1323796740167075 0.9456473718455778
Ni 1.5346956418295938 7.863085617592257 2.260946755069979 0.5701089587843665 -1.0186196504382456 1.211472956359978
Ni 3.555947971445538 8.787793902791122 0.8317982509879084 0.48482006760787477 -0.21553043580427395 0.1454521909299495
Ni 7.791351770195847 8.507821079213409 3.1525879372707735 0.6274188482494292 -0.34896631899963776 -1.3318208960231321
Ni 5.078077707292699 2.8200334083580283 6.539448190158864 -0.6882817451730727 0.3966813656874136 1.442083426425826
Ni 0.8954359193716482 6.703675057520605 11.388328025692346 0.9495374509286033 -0.007758046678864058 -0.38980237917939314
Ni 3.227274171554741 1.6309602828767744 13.086176099066785 -0.5525148998516871 -0.4110941986786339 -0.5092681733479101
Ni 2.9219291286865205 4.388256625678649 2.4650932588540604 -0.11823963507089959 0.48021265074285047 -1.5805679277886908
Ni 3.838676232832498 0.7068567145662463 6.8989412845530085 -1.385476219454743 0.4431190883246627 0.8458435748823627
Ni 6.612163084372592 3.0830112833001917 4.938726525629663 1.1956940962591667 -0.06601667321044113 -0.5033782902260363
Ni 1.7082234987628795 5.442599938010497 5.789064804642132 -0.0682501905266502 -0.7997593789297903 0.7725303680105083
Ni 6.168694786489217 5.48951635225249 6.268609920311868 -1.7053373935583083 0.49106013498031564 -0.3006953998083918
Ni 8.089512332601705 2.2004574980085487 11.984258026278118 -0.5021572733347416 -0.21116007465072018 -1.5990233062804011
P 0.19908223100514189 -0.06704220597221093 1.2203288517449928 -1.8022687540697346 0.33207957054662807 -0.3627278915601043
P 0.47114657821289607 4.163651458482696 7.287489453537735 0.6621539377377693 0.7376209577278329 -0.1652129184966445
P 8.54476983587699 7.707745499487115 7.239974794912325 0.3564780539956506 0.5678055074621705 0.4054753098299597
P 5.215008172115261 3.529900762356122 9.43218724629502 0.5189877146285191 -0.4744688062805376 1.1251044589660624
P 4.3018764242894685 7.438063958733866 9.65647063753204 -0.19017781597209826 -0.6388525440076674 -0.8586306993447019
P 3.6300119206135255 2.449316065787227 1.484471777572945 0.0961847121533892 0.6748209916824764 0.8741802170435268
P 7.087050770429855 1.8559815396747947 6.994890622146178 0.020064374850042865 0.022468870526477436 -1.656836103523811
P 7.590759596256981 1.0126418877690984 9.962494368773411 -0.525127766087986 -2.335332487175346 1.6721956166990168
Ni 5.7030165502910455 2.740514062185158 2.5329759658224473 -1.4815542308269387 -0.1613431511285931 -0.0034874443279681875
Ni 7.279126977179743 0.6933818839641854 -0.08417400185466374 -0.32697901609526914 -0.8578675959264322 0.4023300793327587
Ni 3.570021046431016 1.087602741190431 10.111304654056775 -0.6660447881517433 0.6126774282741965 -0.6417069827373271
Ni 3.3328037410746214 3.1452582877694666 8.389827314502712 -0.13124787440510943 -0.3749362607008382 0.36031773945671497
Ni 1.928390376870114 2.6782670577158836 3.6476152847116543 0.8721385040231495 -1.0710590991848843 1.361522793962939
Ni 6.200132667534305 8.361607193046945 9.551819479394304 0.8567612502361309 0.632890927107594 0.8443677616677845
Ni 9.145002202948138 4.314691984033143 11.539289956540179 0.8340707506171506 0.3401947434545948 -0.20835602954302182
Ni 7.479672918940602 3.9531563520146267 7.468156483398937 0.09405481029457995 0.09118237384279136 0.3766658417974352
Ni 2.695761313873915 5.753650031644841 9.215982465843027 1.3379465493048959 0.29545806266885244 1.4835473499975675
Ni 8.78554701893996 0.7460791697442346 8.107879452280518 -0.9639034898422884 -0.08123323304987945 -0.7043405984081483
Ni 8.966194631286397 7.987921744648062 9.504210507125757 -0.6013545470622095 -0.7441255916155701 -0.5221332022360362
Ni 0.7926072336909652 5.626825920934714 3.6025231922138365 0.949482943541584 -0.2381219479515448 -0.11217131738963264
Ni 8.90745202591009 8.918159398336623 11.651099705120595 -0.470880574708647 0.4185221157115889 0.6256774400782902
Ni 4.358760496109875 3.853720183556133 12.083996553180782 -1.416434101288838 1.0988902624645398 -1.4463910526622443
Ni 3.364953597661025 6.184090101765708 3.917073061723347 0.015326088834109087 0.009676860968131721 -0.06798716667325067
Ni 0.9271123584552551 6.407502478769068 7.9625199367636315 -2.7151433023596656 -1.263884122971843 0.5587418545980055
Ni -0.1544385906339962 2.325201160708339 6.173309682497924 0.030879720297991985 0.4896380578218084 0.20920732179972357
Ni 6.853097456840788 4.150771173689812 12.148035516869626 -0.7230877971086643 0.5330866159237464 0.25566149949720485
Ni 4.295681312436465 3.976170730226752 4.371161815538602 -0.2852327853964184 -0.4788517658395817 1.366481423519795
Ni 0.8008957385641468 0.4866981582510531 4.02032985737238 0.1081405989636847 -0.599109974002407 -0.7004060392404324
Ni 0.603192151107188 3.6144964016742143 1.981177353075498 -0.06014607336227706 0.0036607366810388568 -0.17052636028975793
Ni 5.465919448597472 1.9767122493235352 11.143338166569333 1.675433149799708 0.23815228696884794 -0.6687233634251709
Ni 3.699443405545163 8.131250742906861 5.254061417521741 1.0196187811267214 0.5998460808374831 -0.15597905860320233
Ni 5.829627992982338 1.2165535320889018 8.540031037631222 -0.8513855877465143 0.7832503255311736 0.5484291598180877
P 6.2431840716948726 8.135309928135918 5.452767318597902 -0.8558315393330099 1.525000989156664 0.38816870023071215
P 6.62072528373958 0.5415489388826908 1.9422692767079603 -1.1633830428312868 0.6806491683284793 0.24192769485088012
P 1.8533370590927667 0.2459625841482896 11.46905310706765 -0.2905583113743899 -0.21783954355342483 0.2702921049261861
P 2.1022973376630616 4.876755064941313 11.378624816172135 0.8200497537477102 -1.1519534608381063 -1.1685956973804776
P 3.4185736777141034 6.6701012498515695 1.4189043780791728 -0.06662551043903363 0.10794956599880119 0.9173477535699363
P 3.8266188808081467 5.441166740492265 6.262736584417797 0.1993761946419147 0.044804300798884124 -0.7716078561962388
P 1.8502672424730697 1.5355463139049315 8.181065914709922 -0.03829349626355986 -0.7634019233466789 -0.15847817087597224
P 3.791066335920392 1.838542762130372 4.992141334812389 0.5779168848645595 -1.2338482387313847 -1.3564469221019284
Ni 8.204371555643496 4.9829688706957045 5.420111681984096 1.717476085803371 0.6672796890001088 1.5908646817290086
Ni 1.13022880931333 3.965333907701798 9.47160849983844 -0.39086707299848167 -0.47181928447283256 -0.7982640253311865
Ni 4.957818565859633 7.768485334953346 2.873183769482551 -0.7706652897773115 0.28121672225848987 1.4362040848269135
Ni 2.6357242075133978 7.566561674287865 7.265376602796756 1.0616190368179073 0.09805673236512145 -0.766501645317925
Ni 1.068222212169694 5.829350599914293 0.5859087136808706 -1.2558458260483985 -0.2695110037857874 0.9747882550755921
Ni 3.782014075466527 8.354755584266234 11.647662805007519 -2.090724417278825 -0.7243669209314041 -0.5378241306087318
Ni 4.803125698246596 5.169737623410333 8.118286315550002 -1.2141301914771672 -0.4980563637924906 0.7498298410891989
Ni 1.7118111157762603 2.4957609118135444 11.524011146352265 1.657687652890829 2.2778917285593736 0.07258507045657822
Ni 6.551608177618393 6.555297505423389 4.2212290129732155 1.012070022245186 -0.921588274013845 -1.4050927081340898
Ni 7.831444314963936 3.037518820140829 9.633370267468822 -0.5130440954505745 1.3022328979533702 0.018338136187555514
Ni 6.032698211662405 8.067034247654467 12.071478728663473 1.6620271608064472 0.12165997360635823 -1.0753656969800383
Ni 1.4300907158698632 8.088966792901218 13.340516878513592 0.20244943425059972 0.7916884289961978 -1.0086072605075662
Ni 2.2954923631207307 2.8259973593209935 6.134645712030265 -0.5838211661641365 0.24451885261682402 1.0018383172148488
Ni 0.5168119497180071 1.4542608985321752 10.126393912314859 -0.15994035724379552 -1.1166735545898898 -1.9109834803693349
Ni 7.480070515671466 3.1582865155319753 1.1876889340717098 0.6753928050255465 -2.0806564915198615 -0.9702697983799483
Ni 1.7657178353329852 1.248065384618802 1.6925295236164597 1.1955444580551797 0.038493270979191765 1.0824760827725746
Ni 2.3925152118872335 8.364140716401755 9.455829457484487 -1.3608057132912565 -0.006026922920370266 0.09364651911256776
Ni 5.079520151246531 7.92896647125292 7.299087257712693 0.5707098255931591 -0.6626275349400781 0.5161556444963626
Ni 0.9028700535952515 9.297845783440877 6.3683355022046895 1.1961612657035723 -0.7782500441031048 0.06310052800491069
Ni 5.883784366300302 7.777297188081572 0.9212445704225454 0.4324731785750423 0.11931409908200098 -1.1870161088691944
Ni 4.57244562286046 4.862654250649031 0.7428493897886317 1.1306248745636593 0.2229953767227514 0.4085148679872319
Ni 8.057205286610076 1.9646456508635821 3.255859527216768 0.07217317973014022 -1.019198148649535 -0.24620601051125987
Ni 7.844232135400806 6.600947157987978 11.548153589707773 -0.49237114048225533 -0.967388105956779 -1.3408194999773166
Ni 5.477024417754868 2.488511706301971 -0.024803563501014512 0.5265745258368415 -0.6988713477634609 1.2548006726133356
P 8.711483069771973 6.277284926193192 2.115479980900115 0.5403641234217661 1.7465771169343856 -0.3022439752424343
P 9.268257189516087 3.39556854593758 4.324635600878992 1.7223614389201305 -0.5841484675965681 -0.03976622415434442
P 9.084928110845215 3.7905577819623097 0.006352301258228134 0.08619906169558703 0.4786010832813564 0.30124741565711993
P 4.955007649436778 0.468958871549582 12.727129607512193 1.2181244002382248 0.580609086984742 1.1845604482398502
P 1.7031749449244626 7.369695813896402 4.7873179919422775 -0.09491690118455912 1.9588219400088525 -0.27223225937169243
P 6.01326220402806 6.077210552648009 12.7560774234498 0.06650929657614352 -0.785802402529066 1.9451470136249212
P 5.707556550171381 4.924559137001051 3.0935836577669433 -0.27379908963818006 -0.05940199610740092 -1.0650581444064433
P 8.507321771690929 5.268286134051084 9.736275698564997 -1.0260923046662072 1.5071210235524495 -1.0169360920882358
