# total energy = -340893.99945887213 ev
CRYSTAL
PRIMVEC
9.02225720003672 0.00000000000000 0.00000000000000
0.00000000000000 9.02225720003672 0.00000000000000
0.00000000000000 0.00000000000000 13.20498539599271
PRIMCOORD
 96 1
Ni 6.27532264884474 1.9186461250648792 11.375711944226808 1.1423640173774585 0.46349173844374375 0.022565544005341786
Ni 4.635816135753049 0.09584433924665878 5.93293340579825 -0.7440217190478541 0.820255184890297 0.4515355945231321
Ni 2.593880867612646 1.6077030568647444 4.683187496581299 0.09863445924546238 -0.7094074714080945 2.0076019376260326
Ni 3.524598864055006 4.59672269580089 5.062897306062614 0.4960951263010618 -0.47874557927902067 -1.4499427745692448
Ni 4.928985357494436 4.639470149872741 2.4858646013317256 0.5040922855739254 0.38092667395631813 0.7647316979016958
Ni 7.430063288723999 6.344568471977168 2.5793956338616217 0.35440857306113155 -2.6458790687462046 0.6591382908398971
Ni 5.039480940022496 4.16827375131714 11.575120065882613 0.5393467379008453 1.358865301735434 0.030566302822631227
Ni 5.807193817698263 7.985807258429306 12.37128824018084 -0.6074622026218441 0.39808184557936604 -0.36290144102349114
Ni 1.6744136257561035 6.495510833020235 0.30842315179611 0.7525654948528071 0.16926369152725043 0.14413938565579693
Ni 2.8938348266824487 1.4611274682511366 0.4051787390084203 -0.7020872835975973 0.8059865907864249 0.6028696981551552
Ni 0.6428475462873793 -0.03634977157240952 4.383434733844507 0.0097683922406735 0.3572689253280621 2.1476416992911593
Ni 8.545403731910188 2.350839306239178 1.4080080274336135 0.791828811228804 0.9945574672827194 0.975435658851604
Ni 6.941571223335192 0.5990697504563471 4.7698516892433 -0.7659920526713582 0.9161907571473576 -0.16470075474691637
Ni 0.8120229866748532 7.561887487002556 2.5826445486381675 1.100190726443518 -0.8283922121751345 -1.0417590646691866
Ni 7.720011564685806 3.770500480924628 3.7701422973183276 -0.09310093102174288 1.0349641532345402 -0.2242328486742783
Ni 7.530923100684576 4.000486836295149 12.681090895085347 0.30974825403927947 -1.0586226731937445 -1.466914883647209
Ni 7.875329720415418 8.78887836162377 6.843721236338391 0.09333695829194892 0.23047625848082887 0.8788899638143701
Ni 6.948870229317489 0.9687738768296668 0.48456918800796367 -0.9094125578832597 -1.2975426915665524 0.08173151284253666
Ni 1.5666427648679127 6.447737981751673 9.338776810963276 1.3433867464838607 -0.3374423775204382 -0.6317164471835185
Ni 0.061875541319154535 4.879200542895773 1.3036962999120645 0.2283000767651165 -0.17036926588660334 0.9349623813279059
Ni 6.216497532646247 1.9435746213925533 6.912995028467786 0.596147034719341 0.035936823105925206 -0.16253485744384913
Ni 3.5051919890637544 4.6016668926838316 0.40141826225511784 -0.3696325890997376 -0.3078443521483472 0.06105727232263678
Ni 6.095256441929167 5.658624310268724 4.668358514835311 -0.6394354130943309 -0.14675676867398596 0.09364703333320001
Ni 5.199526758464992 2.881745002187667 9.3064644994367 -0.0067946543243302335 0.01742925122004095 -0.25529486018640546
P 0.05747267986135319 5.689642830129219 12.207176992695546 0.533193830925572 -0.8810466051460568 0.09487756330619145
P 4.097449033194721 6.155651430860566 12.319578075920097 0.42178998782958327 0.47009870223730005 -0.3362319021521048
P 2.5117963726473254 8.5111732885272 1.3568382963723014 -0.5873911429035819 -0.32058056876809304 0.3549045388609436
P 6.250845265371348 7.686656280240127 5.792683321627398 0.43283236168667394 -0.9455221591216232 0.4517255990467511
P 4.9154700163801195 1.0601332520790447 12.838547325744258 -0.7530334356281612 -0.041054603948464774 -1.6285092315546599
P 3.930158342312441 5.933586617211253 8.215613168658113 0.8312505075595361 0.09639322861976948 -0.4619259366185206
P 4.75572193242145 0.9836606010210033 3.90905889189192 0.6363356911230847 0.6579213877136604 -0.10458604884320698
P 0.31735067518236915 5.695543386263239 3.586500569919709 0.2251605026948703 -0.678617225500115 -0.29582598753123246
Ni 1.5342618841874844 1.0891578531236081 2.550965599559003 -0.20027685207931314 0.5392845172043422 -0.9902583256867333
Ni 1.7937419979710227 6.523858764783374 5.093162467456455 0.32417985608357713 0.1290999748241712 -2.069478620526171
Ni 6.061486133657548 5.541569546839391 9.15576934823778 -0.9735453838074265 -0.19413834328174306 -0.7460300077271345
Ni 8.838166952082721 2.123658872822297 10.043210284117361 -0.8447349151992162 0.6873137248328485 0.5018924497091292
Ni 2.311006041205996 5.0608907560867635 7.035298941069554 -0.19724012213551836 0.832098200271812 0.2872444165098085
Ni 0.5389652782031074 -0.03810279612415296 9.253908047461321 0.28134064943086384 -0.528057023919639 -0.445039188165511
Ni 1.3657622108557264 1.0502358360560773 11.745807636557645 1.1051079612394774 0.22547597705276007 -2.098057974825761
Ni 4.143715167529978 6.925349205095177 1.2721211067893852 -0.006871787419168811 0.6604932622058947 0.6583952420262854
Ni 5.59684891600322 7.790899438607825 8.050524810730444 -0.4886484402150294 0.06515715342362326 -1.2509111077509425
Ni 5.259569879370049 2.956891381454116 4.840208152222973 -0.23870918791358242 -0.16241195871273964 -0.044407579581097714
Ni 0.7805055359975224 7.431272271173477 7.011398079823937 -0.5509526975708899 -0.24366216104348357 0.9938519565752625
Ni 5.133222191142488 4.224626769074163 7.080288426027191 -0.4210834486808619 0.9799772554756992 0.18934015056215134
Ni 8.188690753514509 6.773964753454913 9.16819480069615 -0.24465254998121092 1.3045764584848822 -0.45512716852913226
Ni 4.516144917768875 0.4740221694748289 10.411166799293188 0.20369693350445567 -1.428935319079642 0.4105308699759962
Ni 8.175563369454876 7.219952965713184 4.802415721742568 -0.12098377347494003 -0.21408419027605066 0.4182454650114345
Ni 7.099316366220845 5.936022626624381 6.966157776119319 0.5067556913387015 0.4946815337829868 -0.06343837096030365
Ni 2.504831190177197 5.426824481223987 2.6484709363351318 -1.5446408748747784 -0.2222944940009849 -0.1319893805568243
Ni 2.465530238312069 5.033733762258931 11.256787769129325 -0.5282244027354386 0.4183994740907956 0.6024809473571688
Ni 1.0561183476759266 3.3346532856306377 3.6372471571237033 0.6020798552640082 0.6417571192489723 -0.4931926079422861
Ni 3.5009605504905803 2.518048796807687 2.8499000435781263 0.5300277744927646 1.4510264945517268 -1.332888675166014
Ni 1.1034942196327195 3.233351383072864 8.061828796633064 -0.2630212822963857 -0.008200533532921361 0.14122015512647293
Ni 3.4488931048492457 2.5212336535589244 7.010407435995932 0.13722003282814432 0.15736565453808382 -0.4612057706230444
Ni 4.009815850121719 6.72226722035409 6.066172293987838 0.8350421133914845 0.4890508178597707 0.26417262229200955
Ni 0.8947155817677475 7.558278584168292 11.416726222712503 -0.13382874775840822 -0.12377367751525135 0.3345645417520109
P 0.3036124843180369 5.404692884592866 7.7878246533930335 -1.056723913509135 0.2868546372705576 1.7454612581623876
P 8.567102260201196 1.6346435165225208 7.91814484141541 -1.4922649323762236 -1.2212089527008194 1.1035889534917898
P 1.7304779312863854 3.073089030460312 10.481127185186802 -0.5032913869391848 0.824548155838696 0.012459051698959188
P 4.091205631291445 6.389354956150377 3.704804013729697 0.27389781999957347 -1.0867991356279607 0.5345608864764277
P 6.820826356757824 3.9021983676039853 10.265700948301117 1.0747794854592652 -0.22902924162165716 1.108156261147498
P 6.259109652861812 7.8778379078852305 10.054738021995707 2.133563109710906 0.04342696083538327 1.2520498493410759
P 2.299042528310413 8.520908303922626 5.879241953881498 1.1180547512081327 -0.8148491833833773 -0.8813960180656756
P 6.890541337258707 4.079260162910034 1.523855612864886 -0.2492471113304288 0.057455928124623634 1.1339336272219183
Ni 5.008038374078976 2.912925922675702 0.798407498506886 0.4203195739316439 -0.31525350012822484 -1.3475591326939955
Ni 1.3671426161898321 0.9953805129752737 6.926371426822982 0.3432916372123636 0.43533404506260515 0.5979385794021251
Ni 6.681396395756058 0.848877102418351 9.066489603246646 0.9959494625342398 -0.39731848505078027 0.38907552831569764
Ni 2.7881390849239596 1.6636861620812555 9.274468869133829 -0.9530377507723781 -1.6273578915590359 -1.0442316945793952
Ni 6.188961604020816 2.295623092874948 2.698412738207086 1.022958644133232 -1.0900688075181677 0.38648797009417957
Ni 4.3316578048813295 6.869348055364495 10.153194304668663 -1.3666413461364268 0.32809204665378977 0.9476376628027292
Ni 8.224346713517031 7.128900347204719 0.41251473624476925 0.4377588524540138 0.5769082410943871 -0.9610709054894996
Ni 7.601937286205794 3.7238193227634313 8.153180051851065 0.279785389128602 -0.149132210884698 -0.19586381061328204
Ni 3.2141159309662397 8.236824495066497 12.449369559677255 0.24459341460850134 0.013991943403717838 -0.8613527262615553
Ni 0.009300142603896777 4.643854966816371 10.134310720588381 -0.14492100101682784 -0.1826300855318274 0.7164317252447273
Ni 8.69207856535174 2.4072013462532866 5.951394748246925 -0.42755980043382497 0.622469988884586 -1.6337501682386248
Ni 3.5352451274160828 2.426075908076484 11.428558010654633 0.3424460013826167 0.11472442282878952 0.8909350679043623
Ni 0.912601304214357 3.351597084437504 12.643205535356959 0.9332543974978638 0.7219876220659501 -0.4249732706535714
Ni 3.0801444355012966 8.137372155211283 8.034850443495529 0.20177271989854928 0.38374665990361656 -0.1783790235649573
Ni 5.781823230773391 7.807987593528063 3.506834942079053 -1.5431133824866585 0.8152258499965056 0.08994207367778703
Ni 3.1735879521374617 8.45238426135705 3.7383974857624382 0.05883378230875673 -0.9957473738257625 -0.571509438676319
Ni 3.21960146327432 4.0653478424839475 9.12711375750802 0.03160091473473268 0.8501149485642068 -0.001513608431049006
Ni 7.108446890391531 6.106534263286241 11.267628913243454 0.266113033847832 -0.06330518781654904 0.2431075740915942
Ni 0.4880292236003137 9.162553183340487 0.43567035905511176 -0.05017533530281036 -0.5453155538897705 0.9178308638539419
Ni 4.786947964194915 0.469809677641535 1.7244258012333256 -0.28593803899355913 -1.3319139699575706 0.5419587216023957
Ni 6.089256640967204 5.715148750910375 0.24615784897085502 -0.9156760222944682 0.219563468223067 0.5589591128151341
Ni 8.083166434640647 9.041474493250949 11.294659595472087 -1.2538359947072213 -1.0246581433228417 -0.4590321600104933
Ni 0.02674738335614318 4.913115207280763 5.710430110454576 -0.022652190181877117 -0.5493025635619765 -0.6384473381494489
Ni 7.836696415574628 8.742016758320858 2.63461906503152 0.037379726200038856 1.6183757426650838 -0.7765909112331271
P 8.522649599540157 1.688109412012133 3.637445646779588 -0.2544736498366908 -0.33615862571200816 -0.5095913610152837
P 1.9622326490456952 3.529849817678859 1.4292545406446309 -0.4848054123198554 -1.049537937283657 0.6783557443086123
P 4.633731994366261 1.0803972414934335 8.215362349911132 0.2582297744450133 -1.065093882740385 -1.022379117480678
P 8.419065065939712 1.7992726415645313 12.371341471497646 -0.2753882885021709 0.09104379138239804 0.44163633313154904
P 6.385502452374801 7.66711407139259 1.3207889659608445 -1.2999207048804258 1.4584094172793591 -0.35547763775559427
P 1.8316084109595314 3.3592208916748856 5.74558172628601 -0.42623233987165304 -0.6867686509626559 0.261906194855336
P 6.943077940268496 3.9601483248651697 5.881790741508196 -0.24069613643662416 -0.2979903421724029 0.13991223494832677
P 2.4852709368154895 8.309579976205246 10.145984619031514 -0.2584359769185484 1.2866820947029647 0.7799348880046956
