# total energy = -340869.4580086436 ev
CRYSTAL
PRIMVEC
9.23782750934380 0.00000000000000 0.00000000000000
0.00000000000000 9.23782750934380 0.00000000000000
0.00000000000000 0.00000000000000 13.52049433383891
PRIMCOORD
 96 1
Ni 4.860039510698726 6.1687625292021515 6.599434665039936 -0.29953351828980673 -0.7853069509498862 1.1138003468071527
Ni 8.096336848140128 7.106614488032695 4.792852791466882 -0.8421013342311111 0.4251866722159581 -0.4554876371923446
Ni 1.4068195084694572 8.623844510493491 12.055157004863785 1.796221262324074 -0.6591470325906454 -0.2754911326286223
Ni 5.990601788502942 8.062480210441143 5.789597748021454 -0.13543414457231515 1.284759423758955 0.5701063876812053
Ni 6.0413082235178726 0.6311911903767895 7.69378281157333 1.62001173560661 0.48539033828904793 -0.9296687370291343
Ni 8.80679044582519 0.21940394524788193 6.213464376357781 -0.048434698462619816 -0.5258967830435266 -0.5332149139714945
Ni 3.583122332194648 1.6447120416275018 7.62138133873137 -0.5592643027603788 0.4749544876677046 -0.5644461040716344
Ni 4.663772628146854 5.670843628253929 12.628033485516536 0.9056890862850853 0.9982125475368034 -0.23098096603138932
Ni 1.1685020352475235 2.854867440963625 9.807806973804594 0.33794091442341156 0.3175782916066595 0.3688131785222358
Ni 4.717481357091436 4.160505025090116 10.885430957475712 -0.7249701017330418 -0.20777727422141634 0.24700279538094233
Ni 6.490941000249836 4.387275213967239 5.135692587447049 1.3611181023253525 1.1211449600976822 1.2141217068367347
Ni 3.5597968178181314 3.695879254364852 8.837739015434778 -1.3595785257523745 0.5981841197540279 0.6710995769668313
Ni 9.062031618982878 0.9997084516088239 11.14937785924664 -0.02908740428425958 2.0963893288740865 -1.5484602486208687
Ni 3.5348731592882925 7.445337908089623 5.167167713222759 -0.8298937364213255 0.7405527866626471 -0.6042084715712368
Ni 0.3669699251298298 6.177178190032649 6.39367960988762 0.0038165455326127826 0.4614520823058956 -0.9923676587202522
Ni 5.026874674912547 1.7989375713367888 11.206610819373257 -0.29274246350990224 -1.4469032164119726 -0.6481447679428709
Ni 5.6126360773286095 1.7922309085893229 1.1968492326399116 0.3201411672378293 0.5095090857141226 0.19283890774402918
Ni 5.885807873616918 3.138561122746926 9.00671827940574 1.4779212620600417 -1.2234607248494735 0.9036651138765212
Ni 8.439577565832746 8.997791766715828 8.469251315250665 -1.6829001476007146 0.25370463288115014 0.33408605945369557
Ni 5.298670034906954 4.231091264833073 3.211996308483434 -0.31099138241776114 1.2701100492768964 -2.7546539588597785
Ni 6.345315887920564 5.826159221605367 10.426937256628918 2.7251662338133067 0.1018992460396632 2.5189627318369134
Ni 7.191094420299327 0.2769251255917463 4.171072175939739 -0.12801908305516663 -0.37970539995470737 -1.0304721789014577
Ni 6.294286128943977 3.2733779769294555 12.557091589415759 -0.14585456857469076 0.42497224221230684 0.24243523061491795
Ni 5.1422459022584155 2.1030191383592864 3.6176514837338734 1.3989454575857714 -1.2337775333944494 -1.908591068877758
P 7.232766260042879 2.400948312282869 10.639723222273101 -0.030248257361580162 -0.8383074144063174 0.41705864379218494
P 4.485371703933272 0.36056072042708626 8.978797869642737 0.08058942881829347 -0.8889069817307402 3.2629625965078963
P 0.34325734578207484 4.92002072449941 0.30066357085643364 -0.5330110254908046 0.43224537883495234 0.37341082519524726
P 5.065793642068295 5.365478003212289 8.999497993450618 -2.759167016238784 -1.0544824257731258 -2.775879443897458
P 3.454097595839475 2.8279576495264793 2.1485413045947714 0.32803599660487376 0.08679941428374728 0.43142725380903113
P 0.10881421740351195 1.2397256850863136 13.390603210689344 1.1382075720069236 0.6771175010261371 1.148619254258551
P 7.036545566628386 2.6684111311911036 2.666200519076133 0.7652353770109918 -0.09512516054062328 0.6328166222262327
P 0.055810334695337326 1.14107492547173 4.296380534301378 0.7975515726451942 -0.5677772253273964 -0.6168909521349117
Ni 1.826253827182872 2.401927521995309 3.8725804183228774 -0.042243739160559506 0.2892064253321858 -0.6111365661496378
Ni 3.3880563672146358 6.958153362668337 9.229089414838866 1.7472751714426749 -0.7126347200961405 1.8414603366675317
Ni 0.12043448058538148 7.270253363939871 0.7085127301323871 0.2662176777464964 -2.3422672666219664 0.8335565299848935
Ni 9.017108063967827 4.712446741117099 8.131671538235247 1.8798530775131175 -1.530993716404989 0.536698758755037
Ni 7.747719714856565 5.670243169467999 1.921072735960474 -0.003695189463400088 0.1545613523200693 0.7201749943372435
Ni 1.3671245638057374 6.824066296856399 3.96269450156703 0.06385488967243197 -0.9689119988004733 0.5646908730925888
Ni 6.59929147871406 -0.029114860855630992 10.367406848809056 0.16705897056644778 0.49797306005006503 -0.6598646274829604
Ni 2.161947239827722 5.137488421108353 12.457851456408216 -0.3481422804364456 0.3894511664875615 -0.40963509763460415
Ni 3.7408212850348534 8.310950056059035 7.477509566057012 -0.08079820239498987 0.23230611260071604 -1.704397398242542
Ni 4.05300442675367 2.95952278843751 13.23385944921014 -0.4295524053838215 0.624283645054557 0.06945835190213843
Ni 5.081202338298009 3.643824096538447 6.962878511422234 -0.8477122526599853 -0.1279686894332054 -0.7238658129252694
Ni 5.0492302174041 9.115306170036094 2.8566235519667837 1.7235027516134254 -2.2360969040107745 -0.9203639146884408
Ni 1.6121579376026127 5.333441217526047 9.787891141549412 0.13875266742258685 -0.023671118364694717 1.186611417231608
Ni 1.592758499903331 8.954503307164003 1.3454609345921253 -1.8808907747490125 -1.2386189206471505 -0.3361977064800597
Ni 3.773800329123632 2.3681170734337043 5.240368258141381 -1.3096037364961444 -0.012115038095979136 1.9075924524099146
Ni 1.4553365783726122 0.2795726869463245 7.946075270200726 0.6395377430001501 2.663269753418826 -0.18852922462508176
Ni 5.076038392739011 6.4841234835726596 1.7929255932155068 1.1895938968986994 -0.04039871553202075 0.0010382114565272444
Ni 4.415348971666343 8.51290744033603 11.449871454077517 -0.33446426872872076 -0.43404257994469114 -0.6528707126636304
Ni 8.83059632723045 2.2742792219340373 8.09773545521997 -0.4966137178086931 -1.0692140755563455 0.06924752144291299
Ni 7.056637841388357 5.397754972412903 13.075804840012117 2.2147775737077082 1.3124692309693975 -0.8175277586568049
Ni 6.8828188796027945 5.234439420467381 7.679627688532087 -0.48033632080490823 -0.36419444880330176 0.03493743530713338
Ni 2.9779245407694 5.291741664300067 3.057132444895566 1.0219541141281174 0.7464861214279467 2.3762546793110046
Ni 2.3729022680661935 5.528516420333536 7.5365669971101115 1.2455477865565 -0.8783145509268744 -0.4752846173136137
Ni 7.179962838190931 1.105703284066707 12.686834104965806 -1.8748083160003584 1.189386923094216 -0.17137431011235002
P 5.1711972535677235 0.27659441136811097 13.201721971204412 -0.7161345057192828 1.1089772143868966 -0.12979185868487322
P 6.9971739459263205 2.654480487357525 7.000736052201008 -0.34077452721746476 0.6371409606331995 1.5303630247995257
P 4.699467593513532 0.39457162984491684 4.784781701601234 -0.6776162950394266 -0.9160274920966159 2.9992766840443186
P 2.956557445817763 2.8314587861398257 11.144416222109363 1.3499273758158556 -0.12288484715239481 -1.3096441028157768
P 5.463990195414735 4.683661670702356 0.6541010025168933 0.15364603959465153 -2.4155928147889947 2.6933807138715937
P 8.673996675859872 4.9751890301851756 10.260392160197839 0.3259798854067934 -1.049623812129244 0.3809346443761181
P 4.2500934759508935 4.669158281565274 5.203835421822644 -0.20657116972845713 0.20680051213044384 -1.1966482326423198
P 0.7727756769681258 8.762883051832484 9.900530743310675 0.11877982384508577 -0.6586081293680399 0.9158349164698357
Ni 8.549341431900775 8.632481879183409 12.74238947562281 -1.192708017047649 -2.3237067300109593 0.3726032416922873
Ni 9.309974908434647 8.397499261680256 2.964950012079571 -0.9928389419297158 0.4585873591635909 0.8644830443604208
Ni 8.57340597247536 3.7083872727671503 11.95714642669328 -0.4973896767427691 0.27505995862847465 -0.44076910003524733
Ni 5.861724857387382 7.371370623490506 8.52070970942213 0.5067001555104177 1.2941673473364164 0.47496605763193034
Ni 2.171166591648619 4.296347278122465 5.520444406685138 -0.3939891635672312 0.1176613939699264 -0.949744681843403
Ni 1.396112866424949 2.9822016548907175 12.435920853980553 -0.5519258601174366 -1.4071611606273444 1.996093422765801
Ni 3.042663235720145 7.394197295183328 0.11244653116701549 -0.1183062266427769 -0.05579088171737488 -0.42490899307453917
Ni 3.124981516357429 4.682553131405254 0.9733686341269377 0.09433094677410206 0.12964067781898964 -0.25737539686451805
Ni 7.876236370700567 0.3245294981402877 1.5427559873420595 -0.8029907413828946 0.3865231942074892 -0.301227618162778
Ni 1.5861811667405272 1.9689043590649211 1.5438109472398016 -0.8256868974288296 1.0474969955942282 -1.1298219190463898
Ni 0.8327430340275948 4.3013449427868995 2.654343767510882 -0.6957310023622664 0.4931301301354668 -0.7386272875051603
Ni 1.49881903230143 1.882650763922926 6.176134315527878 0.6799225745751 -1.5401846388756377 -0.45178704841230577
Ni 9.19601706869258 3.470430074816775 5.9768291115192 0.38442183159377025 3.2056732758681243 0.40785229470256856
Ni 1.3574063693011447 7.3438326597850025 8.370321573246311 -0.1738004030553394 -0.4136766146938295 -0.2562392263775458
Ni 8.206230043792818 2.952465088245962 0.8178507323537797 0.4612348240887669 0.5729443713506326 0.1782352988982414
Ni 7.604967566872282 2.4389342588635565 5.059111921455014 -1.298950884767989 -2.0366854852555507 -3.3248053408463063
Ni 2.158132017080197 9.220432646711249 4.140326838534621 -0.11306117619375367 0.1060585196236754 -0.0010181568518692144
Ni 3.5816442797985117 0.4246777095887064 1.2383335444857035 1.5719930416354864 1.7123961001773027 -0.49347080130433724
Ni 8.64126705311294 6.7559003679121155 9.209566190251408 -2.171996988207072 0.9513536782017358 0.5244644214723743
Ni 5.406521670687483 6.364114866833914 4.185417598226985 0.44197520452820654 0.7077894761886971 -0.16617039731390737
Ni 2.9850838570631826 1.0239669865604015 12.593948673478899 -0.3225703455046122 -0.4377436829453622 0.2166486085691172
Ni 2.6183051549621026 0.667801624446324 10.271587483315818 0.564973437330014 0.533361466851688 -1.1446772388916673
Ni 0.22040255439802112 6.525111724082998 11.762329883055115 -0.6426734604156545 -0.625667155665645 0.18658624196609802
Ni 6.262036873225791 7.709779957413256 13.359410762434395 0.20242732276341266 -0.17842247520838303 0.39667776614298783
P 3.462088316606084 7.718214093898706 2.2922107688474065 -2.82896886752327 -0.4818039064893702 0.8625655156227339
P 1.7624481528071883 8.136041030631324 6.348534347013149 -0.18883904255601672 -0.5227268699559771 -1.5344155976023444
P 7.577429603166778 7.204110519212798 7.086185956352604 0.8135610606995731 0.9242264829676407 -0.361935477565796
P 1.7221712250124896 3.375086457438545 7.6420398923156085 -0.24438515525243715 0.31905667592439885 0.5414632700232158
P 7.27524179077683 7.443896807003392 11.446869160147868 0.32951515225356154 0.08605559413918729 0.027373764027262534
P 3.3424030238289935 6.590986671813272 11.4156647027172 -2.1882509881720895 1.1703165367263264 -1.7611213332971476
P 6.856269363437208 7.6130137146037455 2.920494814917547 1.0337513638733615 0.3314663624426614 -0.611177189579586
P 8.795187734515524 5.1051375492879325 4.358249960038124 0.6385946623605905 -0.5631155581856689 0.1706302328574739
