# total energy = -340891.75463916117 ev
CRYSTAL
PRIMVEC
9.06171972148170 0.00000000000000 0.00000000000000

0.00000000000000 9.06171972148170 0.00000000000000

0.00000000000000 0.00000000000000 13.26274278505858

PRIMCOORD
 96 1
Ni 6.5576038737527504 1.953489225172212 11.54438134076013 -0.9125207644949381 0.3508198272686087 -0.4438541667184743
Ni 4.825637441463605 0.6108070096883604 6.108832187486626 -0.09978091414507977 -1.8093559999338193 0.4129834452815468
Ni 3.074106756951824 1.5860455645072584 4.798764912530662 -1.4545015975845208 0.25222470590151397 -0.048980029443128556
Ni 3.4820563034135255 4.268251080085981 4.926936590489262 0.44525001862473645 -0.12579533593097045 -0.6250400636046074
Ni 5.2798561272716595 4.4465041627499255 3.016465159736362 -0.46394553815171063 -1.3820731073104648 -1.9397296992640916
Ni 7.2578210565908545 6.076045980461745 2.70793354934922 -1.544333885157321 1.2756384352942935 0.20781121278314535
Ni 5.028257487641522 4.272464779615173 11.433558324626558 0.5487749731932807 0.8270768357978208 0.9355946155952661
Ni 5.850282302891235 7.724010273749581 12.401459605233013 -1.0097958814990287 0.3123892912065523 0.6959302628572659
Ni 1.923132465123195 6.4599366618696745 0.5517418163523907 -0.40165310787039216 -0.9191693801597072 -1.938952454778435
Ni 2.7702129345626187 1.7235480949501796 0.2709907191838377 -0.5841482104862521 -0.8085728634563623 -0.20478425303136347
Ni 0.6753998518690765 8.828044858994954 4.451109328557958 0.6183425969797738 1.1060420430179725 0.9716851906702361
Ni 8.484197915693475 2.107701566221219 1.360492118827236 1.2249061990467485 2.166859666980507 0.2646300215444023
Ni 7.086989522129938 0.6423535734969107 4.883699502460044 -0.7732500197853521 0.20421501079145474 -0.3005560460170501
Ni 0.517908074562834 7.479624762775867 2.4585278458181463 0.8045598856422271 0.196139689982488 -0.642082620909191
Ni 7.667120799245781 3.824988013053825 3.983782865612321 0.27159642555990643 -0.2159500398401958 -0.10873246691141274
Ni 7.631553550531635 4.011061359575173 12.580068813470069 0.8487085551349834 -0.87508653090788 0.45837652870436535
Ni 8.264804626873548 8.705050141339639 6.815417946731432 -0.17689935369563728 0.6825684968383793 0.6698374224249561
Ni 6.859150710812793 0.8078939699898806 0.3460942497170478 -0.8450105374581061 -1.6629653563500004 0.31122843812923173
Ni 1.5410450658793722 6.356986467566126 9.269834490449806 1.2899409679598945 1.0210714544128479 0.49794426369465855
Ni -0.18711272573854906 5.0639244152692635 1.6165427812072488 2.681544126247982 -1.3358403015951705 -1.602544174949466
Ni 6.475876226325262 2.0174105939440827 7.265370375037672 -0.48980235131381444 0.30603378130216974 -0.5686596279323497
Ni 3.4368836321167047 4.249384580258502 0.3292766046498923 0.09407357934765735 0.33939615881269936 -0.056802867921657015
Ni 5.929128323543921 5.584474887214274 4.823247866053179 1.0135946864198286 1.0807827542305515 1.9976882780567466
Ni 5.28160503911926 2.9008104348093156 9.519519294938942 0.5402646217294244 -0.46631866636957753 -0.8960677611452375
P 0.21606673162171908 5.5676291508169236 12.556686858856791 -0.34595735696998486 -1.4393984233944952 0.423059084349994
P 4.1701489056708585 6.115863175582755 12.354509930758395 -0.28422285607466535 -0.3047597996857526 1.016796738296894
P 2.5232810804325543 8.309053002789772 1.2063404912983273 -0.40520585821865696 2.0540897967749268 1.4498106198667546
P 6.334395601058008 7.848654224338905 6.09334117814221 -0.4663299792234872 0.6074907418669344 -1.6182749554211615
P 4.73237422521749 1.1555595218539432 12.731556295490197 0.47986786580892193 0.0534141539550822 -1.2542363154694334
P 4.294022610109684 6.271552576896833 8.119437430148079 -1.4796824677255227 0.133858315444763 -0.15550417584931284
P 4.812633874099324 0.8587274974068869 3.8257038888878165 0.4887826518000485 -0.16881580535655444 -0.8258571044581068
P 9.215678030522358 5.849049909050439 3.8026535932052243 0.37857951388038025 -1.1387616447381808 -0.5663443495356117
Ni 1.5502427110882537 1.1935824965302644 2.629524303572463 -0.11283800443935404 0.2046569834248798 -0.5686866245155432
Ni 1.992608667898065 6.723351783620385 4.7024379289494505 -0.19807110267724595 -1.4758371258375034 -0.46611914876426175
Ni 5.901172919140572 5.6013296853310415 9.361957742393184 0.299824052947032 0.13246786285513962 -0.5767853423632776
Ni 8.466355390160187 2.3372621042277117 10.099008096148077 1.3908997044631595 0.38244028238736716 0.40841742317741914
Ni 2.391224643359621 5.1588096792911315 7.007993076934921 -0.19360972447178268 0.4439971200542418 0.14984594912227098
Ni 0.2878835765221594 8.679015821452825 9.030110327944513 1.3257415225982716 1.9873262180961322 -0.10669023967040335
Ni 1.333105790403314 1.0262669092033831 11.429910982560967 0.36659740181783956 0.4336746550823111 -0.17024199628011968
Ni 4.181077339288504 6.595436552321302 1.5491281195998867 0.7669844984916145 1.023641014912237 -0.06270329256649201
Ni 5.73492661470497 8.135058928252107 8.162421696205545 -1.1382381681345428 -0.9892445397102382 -0.35471119190321493
Ni 5.550130970621506 2.6348761550605078 4.866179574138024 -0.7323859345811388 1.3500631300627717 1.0270436128358829
Ni 1.1365208493575298 7.29092351762341 6.8905785660969725 -0.7189470354674135 0.5363897121550504 0.38906652945463316
Ni 4.7898708349222705 4.465570020404591 7.000354047465868 1.5719794147887314 0.42749295175163143 0.13611702957195268
Ni 8.081377302422146 6.9145268781738505 9.241717787440823 -0.4428871748195146 -0.5848701762539411 -0.2184368108177915
Ni 4.517113080451997 0.6053518545989549 10.417446884374499 0.3949039620720166 -1.2749552931843398 0.5541555207789037
Ni 7.970063141096137 7.4045121705232395 4.709387361570822 -0.33442441662972083 -0.7467558301495655 -0.015647219618953694
Ni 7.26111046073945 6.197255539391791 7.015261482079791 -0.42774646252333426 -0.7640351860553035 0.2188443306688554
Ni 2.283254256498714 5.3782482767081445 2.480504327749751 -0.048613390132329175 -0.7885704521925064 1.645830496441927
Ni 2.2627928940537347 5.11485127839627 11.443677546700211 0.7260628205765883 1.7066957073584157 0.644117906171665
Ni 1.2126483541849304 3.4798633673144628 3.7201457317358795 -1.0171191546333194 0.2533781027796668 0.0614503939959974
Ni 3.8034211208398965 2.598864882094898 2.245037361026856 -0.43142596825745055 0.4223175781982791 1.6898765789185477
Ni 1.056089027806761 3.361997582849517 7.995072580516818 -0.17795427732271288 -0.007661373199999709 1.2787816089089654
Ni 3.328097690508212 2.7393940268233035 7.229162462760699 0.9083872019425389 -0.3304340645234051 -0.2762148981685243
Ni 4.0132633573936545 6.873359486859616 5.974971562077645 0.9166810665202149 0.5984584564613371 0.3193477248022565
Ni 0.8498007976085923 7.370530722707176 11.799981635685088 1.1345545486353685 0.9555785149163607 -1.4697055590184689
P 0.18989286125587398 5.575331612321898 7.862511405672325 0.29213311206067755 -0.14722908032471418 0.4703447568098351
P 8.537526134466152 1.5476148124571445 8.09580355973499 0.4538884110260248 -0.3935965561145027 -0.7673629648769559
P 1.8563929016124454 3.453276282543174 10.264354571845509 -2.6868048604262884 -0.7408235238255306 -1.78458804896052
P 4.079413909142259 6.0153777689608 3.7795761123643787 -1.4788478876393691 1.4744196766646867 -0.4956505825644755
P 7.037385670037903 4.035310520736717 10.423189295969443 -1.1489864077899825 -0.6458060925073651 -0.23020166466320355
P 6.369074801269228 7.928506095846945 10.29244499586818 -0.14489451865426659 -0.5203339442437683 0.16219161517181743
P 2.5509102629368683 8.57308432146088 5.789783545543398 -0.1367909157105257 1.2102596527781673 -0.1716188220229883
P 7.050806076495394 3.9953302146661906 1.8084944651148054 -0.31759474666689175 -0.5436494790412573 -0.7295348382855887
Ni 5.5600535533837965 2.9021515692831232 0.6337213795796887 -0.4002976222837622 0.15378847870978676 -1.1114560149446921
Ni 1.47062644428507 1.2153759317296333 6.863667977942476 -0.6778368956906649 -1.1632082078163193 -0.20696531984308228
Ni 6.7862219929398115 0.7824840025709406 9.29382720495183 0.6741550759637035 0.2619596738010908 0.7799623988085213
Ni 2.5915339510860456 1.5096190229390762 9.16515169539361 -0.8698098558899731 -0.2313766588079112 0.22058625306062657
Ni 6.322379761110248 2.0404001761065773 2.749061069098017 0.7986790013814181 -0.3937004286822187 -0.42752637609272826
Ni 3.8917366382839926 6.862240757134201 10.261396826627598 -0.20636702413745103 0.9778792352960901 0.15288165062480122
Ni 8.130355895874365 7.235329868996329 0.2182732602999088 -0.6952592049321704 -0.1679704266371236 1.0423329348947854
Ni 7.764769887690023 4.005343414622657 8.125405478556521 -0.7739149070628607 -0.25843829091139364 0.714229575387086
Ni 3.298846460228144 8.388678331312374 12.405040796746853 0.025500972484581885 -0.12893259600837148 -0.21381062489968983
Ni -0.04022044163509325 4.821641223200436 10.355456568010522 1.4508346902558948 -0.7302799439817295 -0.2650635095373951
Ni 8.507377793963741 2.578684432951865 6.087360443326582 0.5185087181095716 -0.8401331547611467 -0.8314613380187615
Ni 3.3991868793394175 2.5743529310702438 11.166791272863271 1.2385201902857574 -0.5594015996691915 2.1157672191800656
Ni 1.0567777184824998 3.4168391087649357 12.661303503361239 -0.41596746761053527 -0.5146541202501718 0.3042597201208825
Ni 3.090209432356929 8.420811188367244 8.100392414448072 0.34089125530098713 -0.7571705977249864 -0.18194411520839635
Ni 5.619380630410935 7.742668354030455 3.552014589661413 -0.28644686030917765 0.6724324368456419 0.4823032147232919
Ni 3.1155913084456746 8.398918074254281 3.3858715888271718 0.2696961232134001 -0.013589822869292724 -0.1021239604559596
Ni 3.5352032877978496 4.447564383921787 9.265603573653719 -0.5218768632508561 0.4032587617946152 -0.43140617076310867
Ni 7.319757908810268 6.111912265916674 11.331899425340023 -0.5904731242630153 0.24814925028055973 1.0389833016962622
Ni 0.5663393401622301 0.055245678601444075 0.36273881594332674 0.5233858436962148 -0.08194362885334275 0.6849459959316203
Ni 4.649749467567658 0.419387248710618 1.602882239185191 -0.21530083629197114 -1.2385839536441572 -0.2891920271544826
Ni 5.973784476833937 5.329614028593794 0.3591222837237558 -0.36625313110454344 1.4354954887956632 0.1990532640848572
Ni 8.11139877885271 8.772677753353314 11.358809107322577 -0.6352645695460931 0.5500085884900656 -0.17042480171488714
Ni -0.03182657093855459 4.883387779312079 5.7744783014470435 0.7100307068143901 0.7197990990550636 -0.09325262610825875
Ni 7.926947480107115 9.20688816268727 2.481140460452868 0.035779985813086765 -1.07873204234911 0.4872896121942898
P 8.767458202968767 1.7134442777995367 3.919498121891804 -0.11097395464742178 -0.16662265435997753 -0.6628404222818326
P 1.7680955076071851 3.3361354356316384 1.6070995634021499 0.37689158465499606 -0.3598454278059867 -0.8238395598074457
P 4.6802240299691045 1.1446220265168796 8.256043756540597 -0.48118787017192616 0.2158762491794669 0.23041969421128058
P 8.565590279502512 1.62467567438456 12.424364913404922 -0.16146193609464451 0.6439009050648524 0.150689785179805
P 6.319081295242235 7.846452226520424 1.4677611286052197 0.5519551706934752 -0.29857526814159546 -0.49578942213518484
P 1.757139888831286 3.33430496830928 5.783125900287275 -0.19762501627876286 -0.8905830838815825 1.2422714297980735
P 6.746694772840166 4.012801209703356 6.150437259848731 0.49813503954922594 0.08440957389533203 -0.22974323696954627
P 2.120451405441806 8.462141690630997 10.254169199220106 0.9411492268649081 -0.3999191558984209 -0.5160425159572661
