# total energy = -340868.22322516073 ev
CRYSTAL
PRIMVEC
9.27494317492258 0.00000000000000 0.00000000000000
0.00000000000000 9.27494317492258 0.00000000000000
0.00000000000000 0.00000000000000 13.57481686211798
PRIMCOORD
 96 1
Ni 6.495863938868266 0.4049449348090107 10.574062827486852 -2.3688334471462684 1.066889284077911 0.7751356668438393
Ni 8.219259630282897 2.120010799998965 11.453153973627456 0.04276593021261667 0.0639163390379867 -0.14628188592009647
Ni 2.034876099056642 4.1625943766112306 9.347794800938502 0.15007606285520605 -1.1556165115119903 -0.4895601533960214
Ni 0.34226487064426314 8.354098750263232 7.817506203328146 1.0340634957971417 -1.0584750918722865 0.8957186053359348
Ni 8.17234696905986 6.741742675329861 9.963725209499104 0.47452691321198276 0.7577532097013336 0.39310341852816816
Ni 7.650362457203121 8.63563964220181 3.2398609141165595 0.9012907001070737 0.7528837974241743 1.6038621224299412
Ni 0.2047527121181637 0.5904020557036852 12.961778159595902 -0.6011699418552291 0.3334656522608773 -1.0595305297199944
Ni 3.155419051409381 1.302851230130525 4.034692913925249 0.8341841362665633 0.6968931409911675 0.16132181097235443
Ni 1.067824176869989 1.7608664607584568 3.640236084555347 -1.9871272147114487 -0.5862662852705193 0.6538685578005254
Ni 0.057326567118891926 0.3635434446612451 1.6467605481521794 0.2987030519687114 0.2382854701126025 1.6593766105574774
Ni 2.0951817778372264 5.697078030898371 11.211685472518084 -0.2920025000200842 2.124696660459212 0.48044430713768227
Ni 7.827764290183164 6.276595013606533 4.922826201905775 -1.1954963784260637 0.5147520792806167 1.0700993063747763
Ni 9.18875086245406 4.775742302299768 10.460862149308289 -0.49868756961858635 -1.3170195693442415 1.0833592567084762
Ni 2.734549967123535 6.187119639383786 2.749552187275426 -0.579059483109435 0.9249800733042134 0.7460577756412764
Ni 6.303965370124758 4.987897346351918 1.3104761606942774 -0.6492943081662818 0.5740995680009984 0.8594866195870939
Ni 7.369034888951402 3.678024984440879 13.444960020307382 1.3977959173623606 0.20331358202310792 -1.7440525507403188
Ni 5.204773336343675 4.605723323873608 12.860523607881408 -0.4612019139683025 1.3324716422332537 0.7052412558455466
Ni 3.5050287493416086 6.221566777339968 9.249567590588816 -1.969970243316188 1.825695103413475 0.7411968480045493
Ni 3.5996702667634914 3.415163827516773 5.595118583522954 -1.1373459953375769 0.05210751932851671 0.8716697919168471
Ni 2.282656198814149 5.047720728101345 6.9535100267685035 0.6198430927847002 0.21245719619558892 -0.8960677611452375
Ni 3.190311386625093 0.8775663455267094 7.36032015259609 2.162554097626618 2.558357945805084 -0.6153390342667596
Ni 7.289279654895074 8.690213406265936 7.134503117642094 -1.4450363384065628 -0.5513185655507409 0.6654120396637507
Ni 0.6685814769601328 7.9315045265967035 3.4007088289963887 0.9217250567020254 -0.9821868615325084 -0.892056068882683
Ni 0.7346589527116734 5.672601456567094 4.74768374501785 1.5994326259036777 0.03574399036882876 0.32224561517534184
P 3.6764482441467083 1.8045699917357119 11.843308156982852 -0.20787009104553877 0.2584354626979162 1.686717721574592
P 1.5232702483127127 8.492249024861325 0.41545437261680523 -1.4116721611238203 -1.2759184284285574 -2.0160269284649344
P 7.691867826711444 5.70205867523937 12.460690094108383 -0.15912917419640982 0.18976412547344737 -0.4449126898899757
P 3.711201455218817 2.3383244061412896 1.8763246600405585 -0.9859481283471534 -0.7794888016062124 0.760844704142464
P 5.422780869370072 2.8081002643751547 5.021473567169143 2.867200400200643 -0.9424334928939705 -1.8706703825725848
P 8.201618688873996 1.3838771313650966 3.3812694761578426 -0.6278934738930025 1.0232000707200766 -0.5181472210050947
P 6.047086551375595 7.407201279013245 5.632313887062446 2.327631518986662 -1.3164230734108233 1.6373335147145092
P 4.188786815380282 6.150140442014025 11.857086084671034 -0.1390246901370509 2.473348276431908 -0.5901972448938093
Ni 4.826698838630209 7.278873168953545 0.6316403068562896 0.6477326201061167 -0.4519490279114668 0.03612759896049262
Ni 4.678327576948726 4.7021456303336135 8.22557864888536 0.5972153280828553 -2.588883110977135 -1.3589655747587241
Ni 0.8605078705323614 5.949959349254666 8.515591273675089 0.2725523617152726 2.3362354586055893 2.0537889777050564
Ni 1.4192981383265009 2.6837418298796036 6.163183794223981 -0.12328773901776831 -0.935190695288628 -0.7891970300329118
Ni 7.942198535768346 6.347882224788872 2.2985154236906364 0.7884303270702163 0.6127010824232803 0.29034928068737736
Ni 6.802410076883814 4.779925301550774 3.640493927968158 -0.8885053754169473 -1.5753663289830933 0.40222337855156537
Ni 6.95959253432684 6.105342467773757 7.621811400452849 0.36519949302904847 0.133346408805351 -0.5789435263568611
Ni 0.28394588463433423 6.90908119525593 12.360210000126616 -0.026855686740263424 0.5526303423836288 0.0743475616736397
Ni 3.687986273122877 1.8507406575261993 9.756288328903688 0.858964942755669 1.3587925395159695 -0.52388026683413
Ni 4.866979915674823 9.046297014347171 5.6240740277839665 -1.14846524517919 1.4695376659820367 0.9452429373183076
Ni 5.641678796915531 0.13436053292633898 1.304082015054269 -1.8202214818934137 0.18305097511932988 0.8862690298872609
Ni 3.1125966400082805 3.3391185706232003 0.015452054882875023 0.6910407959754485 2.733202730964538 -0.26670670156777293
Ni 7.042640373115114 1.8078069468102158 1.1806891021153247 4.992711329031034 -0.8727967064324388 1.4016898531001278
Ni 7.078432377792795 4.131449118329902 8.897342358756845 0.7808450585237907 -0.9306213307503907 0.2709227965316495
Ni 5.579759278069147 4.985430211538686 5.744848624340296 -1.2823071055637205 1.2021928166096327 -0.04702187727549321
Ni 4.612698080939587 8.10123598179275 10.480573257974006 -0.5897431880755263 -1.0462245566397077 0.45316413126549054
Ni 4.726427430863845 6.998658593850653 7.449058168857738 -0.2223752266402493 1.1284057554251534 -0.743701616704274
Ni 8.890579997883433 8.234656035508332 5.44865981506887 0.3517929898151554 0.49312781614262174 0.00922871768711959
Ni 5.645518623278982 2.8653544869393732 2.587821297830861 -0.045518553257089346 1.629985044769238 0.6559832901506831
Ni 3.9716418520442254 4.390887821321367 10.688444205897467 0.566298841009657 -1.4004480102732266 0.16264927153452632
Ni 2.931967126896641 8.804675476679838 1.7832691578557536 1.8877556201896455 -0.7493379890544449 2.849482414095589
Ni 5.051486354921541 0.02714033793413499 8.481925085911667 1.1329260118930102 0.36454977526019156 -0.4325351421612293
Ni 1.8997587307891013 3.4428959068083675 11.546752059972313 -1.1562114647835118 -1.8741812239393207 0.785522409394802
Ni 1.1850594552130502 2.554124502755847 1.4525729234992515 -0.015953180895146718 0.13451600363341995 -0.6807386427184922
P 2.448918825363019 7.474286941058764 7.6245938833249145 0.5108928534355266 -0.06238164756101514 -0.3326153884454401
P 3.2310933105866786 5.4350887186075125 4.904404310304115 -0.6342299576339917 -0.270211886507554 -0.2051624623063886
P 6.565388910898298 7.858659125006008 9.137847193298189 -0.6356432930417504 0.07980421391283676 0.14727715995383023
P 0.6702593141319888 5.65714940168422 2.0815624516727524 0.6985155070859389 -0.4300910514961109 0.06940538717701596
P 8.91547394464552 3.7991650137477406 4.3063801065195495 -0.2813877006187154 -0.13850198486436147 0.5299956357032485
P 5.989442781209287 2.3120206680573556 9.266740147380919 -0.04721573845385417 -0.5487263793435323 1.4024575845040879
P 0.0447506720314428 0.7924974966790254 6.5822924943461 -1.4262942819123694 1.077212777491106 -0.8759020848306399
P 0.1811275775457392 2.6937216684474152 9.652984014806771 -1.717625724007358 1.8804076644650067 1.916230330590571
Ni 2.675208882405267 1.184085586207827 0.2483393788147921 0.3319666991178476 -1.200209981851649 -1.406968070779932
Ni 2.266786771500464 8.85092034201358 11.87290078982157 1.4423549349196578 -1.8785495282103455 0.8752659939085378
Ni 7.331434270406879 3.5858598767751357 6.353136479945625 0.6725581637902288 0.3704021202759105 -0.7171709174035971
Ni 4.714518404171401 7.021716101917176 4.12723272928443 -1.2640872401215844 -0.36800713768117266 -1.5532389009564347
Ni 7.165978563890908 1.2286702367612368 5.55758381707307 0.10970794345080462 0.0416151044376251 -1.4603655125644655
Ni 4.846649240822925 0.03271550611546523 12.750064602826118 -1.9184445646330701 -0.008133941961044056 -1.419007518442969
Ni 2.75936043939946 6.396566400107126 0.09100388481380142 -0.511061774913223 0.3941871385106502 -0.35591369685174834
Ni 1.0714877793182096 4.815615281856478 0.04410699099370479 -1.1203116655631091 -0.39766686952913444 0.13080667310263278
Ni 7.56543180500475 8.374865347431752 0.6168912926457566 0.8350439131636973 -0.9753086463554365 -0.952591921484211
Ni 6.2167345320854785 7.43481278404705 12.117261218129306 1.0459198809150954 -1.052441484083697 0.017486586820537626
Ni 1.215740966349035 1.0608865195756367 10.678656358647828 -0.4645376632097548 1.2463029195549697 0.023563903362869093
Ni 1.7342380996727822 3.9173370613243974 3.254006129543854 0.5098908945335735 1.4063242665483457 0.6783588296324059
Ni 8.387191746555006 3.81913396582627 2.1373688556492056 0.748640191656472 -0.3248624839728986 -0.14380308536230071
Ni 5.843176931567667 5.7966723678325325 9.947992123846149 0.29183409276301997 1.0973406585892327 0.9977991141484687
Ni 7.771307712708938 1.6984089952234747 7.993164347041693 0.7579714963597269 0.5519937372408946 0.3521550011402645
Ni 5.2866525323256806 0.8070406071570254 3.5129449131126376 1.4328747633433645 -0.6215909287137423 0.6760299243889133
Ni 1.1166289264460323 1.453012555793038 8.388571858059551 0.5870756685456922 -0.5357235393259613 -1.8512912067150245
Ni 8.412020768716745 0.07515764485738367 9.732342281306684 2.2841091702239953 -1.0053692131862428 -0.7216407802494926
Ni 0.10558131258055692 3.7599783799661397 7.730178905882634 -0.673746270561059 0.3372014651542257 0.12710942675670367
Ni 1.9350869883214366 9.333931543775575 5.87948369557668 -0.6193520120808945 -1.5820913064117528 -1.7799358949004895
Ni 2.7893463298174277 9.117565675643698 9.197074196218702 -1.7814438469045837 -3.4040539393659888 1.701941994723514
Ni 5.504678615237892 2.117144842640737 7.233449136067063 -1.33312470243622 0.14930113236239448 -1.0023149997409513
Ni 5.313957964243558 2.301586357287107 0.06783693242097714 -2.2394560502909946 0.2542929012844524 -1.5553826867723148
Ni 5.962925719438496 3.157088541132621 11.304305979880558 0.17094570721536367 -1.1349163028501617 -1.1137291272495853
P 2.7183651917510154 8.461038841979647 4.0020460423872946 0.7058197540568361 -0.5363485745044698 0.066068352383983
P 0.9866127767772795 7.914373707047682 10.294000361447633 -0.9181867045314638 -0.08894577120278875 -0.30009787543370897
P 4.188601316522145 5.293080067760154 1.5003296045268166 0.08229509865549053 -0.7645386080542833 -0.7766117371687334
P 6.890995056587499 0.5741004160505392 12.697448779209635 1.1676772993312665 0.6466383586006734 0.5707725605102945
P 0.17712822216428917 2.885369813732437 13.142350168061519 0.1094649742020631 -0.46172796167510155 -0.1963939720851392
P 3.0399367372757213 3.016035209404672 7.8798551520311175 0.25743016136185337 -0.010368230608201499 -1.5659260095057999
P 8.99590624953405 5.79798940972531 6.836643891153137 -0.36429189361311454 -0.08674876355146995 -1.707410474037253
P 6.202877767382589 7.626210505873586 2.304569178925962 -2.331600273826423 -1.8011477530914142 -0.634204760823011
