# total energy = -381175.5382669234 ev
CRYSTAL
PRIMVEC
9.20791103047819 0.00000000000000 0.00000000000000

0.00000000000000 9.20791103047819 0.00000000000000

0.00000000000000 0.00000000000000 13.47670854301125

PRIMCOORD
 96 1
Ni 2.9669546574312884 8.24094220087376 5.532768514969143 -0.7811972996568869 0.1385680622156065 -0.11351471879140451
Ni 6.142173845217122 7.280621541917769 8.429801979646859 -0.7634338050258788 0.44146715454353647 -1.8997505877679928
Ni 0.6964200889291384 4.583016696226298 5.73078187803906 -0.7440302036882864 -1.8032964240033007 0.19662948513471296
Ni 6.284187456131356 5.800762922213946 3.7820361742597095 0.8667330167368621 -0.15067410145052115 0.7951085104213403
Ni 8.406270242367963 6.303533277082585 4.814567112636799 -0.7069068164734277 -2.068246805001599 -1.1432322789150247
Ni 1.5003554295264974 7.442413745598896 12.334624725921106 -0.21010669368554136 0.5335422154039263 1.0433999427067193
Ni 4.945725517306672 4.107078193928759 4.654680025735686 0.9386678552039511 -0.7473631247162613 1.6085543856992877
Ni 8.949914514039317 5.352503400296889 11.1429203137432 0.3193582663252177 -0.6976637006086049 1.0867214883124898
Ni 4.426095477449122 2.4807861660443558 7.957861552293167 -0.17898888923481432 0.27997565076253716 -1.9385778450478355
Ni 0.945228892873618 0.4862725407809109 8.823604995287065 0.39419896558519213 0.4130487513018435 0.851033089503102
Ni 5.004656147524599 1.728987858950114 0.6523436606905172 0.1403223259025519 0.859608489876939 0.39049014927503717
Ni 6.472728641184839 8.720913768176839 12.382278427572176 -0.978183139689754 0.6493135914399913 -0.20481356360740208
Ni 0.6564236860420114 9.096835941501388 6.572011099653395 -0.45549817871530585 0.08189554922422669 -0.06310669865249777
Ni 9.115739782725983 6.836901520109689 6.842407850870677 0.5363246632450699 0.24614250426317608 1.7981575601148387
Ni 9.15305023798271 0.6268184106862801 2.1849921547853417 1.0807187337618354 0.9596807100101923 2.0235324928133602
Ni 7.4128839751131315 1.3944276217097722 0.19748482898015027 0.04183673353012794 0.4266051498300395 -0.07055929827580107
Ni 0.41870396928057096 7.3182450661475285 1.918624785409211 -0.30803101423785656 -0.12296583690197531 -0.49884363558047645
Ni 7.472864307181816 8.57875283068706 5.848891752071147 -0.08258563331271584 -0.5652680857522975 0.12860478035530754
Ni 7.10669331157614 5.554460511635922 6.685484790511307 0.14536991562878834 0.20719569068633348 0.17789025685399684
Ni 3.7484024378539247 6.3815795304774525 8.536376182813788 0.15080394216016607 1.1368572286266163 0.6862654860739923
Ni 4.831786826944697 6.428972648248027 13.355067518774744 -1.6325798020796078 -1.0569221455628701 1.351311400647576
Ni 4.653420383514779 7.337636926653616 10.673606903389693 0.3987739865503842 0.6966406586607292 0.32516535992529805
Ni 5.420098674739047 0.5961993443325808 7.096281926640606 0.17144424411833697 -1.0926908185220472 0.3386428255864426
Ni 0.606583105535199 0.5705645201877821 13.431008843721516 0.565429036810194 -0.0014398177703201008 -0.5960822429196766
P 6.35989490013945 3.50078329600697 6.680404786028301 -0.10062397887166542 -0.6423363887912098 -0.23302216483113414
Ni 3.0928820478782226 1.6883901794765448 9.725157083258226 -1.1336266375044606 -0.20376892439297162 -0.1891159503664872
P 8.339080116008553 0.8433903183193587 4.417867288204945 0.11227390440576793 0.7607027792479608 0.2893316380561404
Ni 6.341009474736799 6.1406269161739 11.889960893238442 2.424502458573799 -1.158516715877921 -1.1825272198599053
P 6.6150737368940495 1.7935629385936027 11.546264566732127 -0.01843712365926502 0.03762089567656747 0.01134319292696111
P 2.931320041971385 1.8810749244672254 13.327009172462233 -0.2711025166426234 0.315131886948696 -0.6681610631637976
P 1.5267545102819349 6.153158883006182 4.591474162453668 -1.110923796590306 0.7947912362912376 -1.2746706720643852
Ni 7.596139819268943 7.911068790317938 3.3520350190081425 -2.2112744456504565 0.1001804635763436 -1.1101807477766945
Ni 6.292115467477862 2.014948742082608 4.927085022335864 -0.9425867306423831 -0.7706637471154146 -0.8855516921052619
Ni 2.659548549646051 8.560843443847393 10.372564382876895 -1.005277424803385 0.02292498422728955 1.452018940371983
Ni 4.899501804229486 8.652867306097075 0.7948747562013526 0.47634391181606356 -0.6352357731906867 -0.026245306849774153
Ni 4.742212269013447 5.041008980040283 6.972471434926032 0.34814459442929074 -0.3592383903496071 -0.4035336127225566
Ni 7.473849553655772 2.466154795510561 2.7864980182108274 -1.6180720953817356 0.22978745994392039 -0.2659934775508322
Ni 1.7261978619257339 0.5648731104162663 3.7246791760268203 1.7625881476506613 0.43464190409158693 -0.6027046333322008
Ni 7.794699211459474 4.44465862596777 13.150814875230504 0.8288832928789401 0.17617687370731594 0.6710000752744896
Ni 2.9620652567053942 3.7642492526359645 6.43403699928238 -0.5738645691720569 -1.9334433520347474 1.0665298438559634
Ni 0.31242441926473263 7.319874866389493 10.306164295278846 0.4280796774930369 2.1517233255597006 -1.3935849646048064
Ni 7.850655686433591 3.969797449253902 4.845294832339962 -1.1553388323705716 -0.577727908782205 -0.13408380119200777
Ni 5.257496174892425 8.738390383200842 4.814796389619991 -0.06486276211165604 -0.4053225863021794 0.007654688331780367
Ni 1.5553819054924876 4.2345893450628 13.306416600365456 1.5261135054945523 -2.3854345460380593 -1.4820070020936411
Ni 4.887144787705663 7.122595373824009 2.741162868542395 0.9123713834012673 2.7362854836549197 -0.6851635112590652
Ni 7.227068331707229 7.716238602070886 10.341285109306535 0.606422191393104 -0.0266872794831992 0.6936864611284118
Ni 4.397210260731367 0.9959000269500644 11.82915369076451 -0.30350073046767084 -0.1821886271190346 0.1609356312775293
Ni 8.344973179030346 1.269991912840229 9.984906727019101 -0.05443436768948044 1.065209839492959 2.177064632537967
Ni 8.362597120629896 7.487348351140066 12.651448685048047 0.2187962510397393 -0.8368174601243524 1.1881877605797926
Ni 4.587252335273212 2.75796270210999 2.8856598530456568 0.8596889654058872 -1.2081202378376612 -0.34809137259385214
Ni 0.3502781412687796 8.077833265923703 4.278140922376044 2.32095256430459 0.7278016576445658 1.0507643534915903
Ni 1.2018902032946366 4.656164340984301 2.416238710133782 1.2670342385650502 1.1230815149987625 -0.12103879508259152
Ni 3.314111316880712 4.2357403339342445 8.958291871441235 -1.2646816791724735 -0.7573456898502698 0.6127401631913318
Ni 2.8732457474738116 0.7316375860220303 7.199217163391578 0.171320316945963 -0.015390623523457365 0.7133749406962746
Ni 1.760773567623909 7.620172466904692 8.2484061335073 0.1168072734997472 -0.006772285726827047 -0.3299962056550382
Ni 4.0689206108626506 5.130316508553359 2.6007753747057367 -0.43180931973879827 -1.123852588836832 -0.0879533253825324
P 6.020482093817101 3.9101578098911647 1.5137170291373152 -0.03106406839465618 0.23592236919706466 -0.3507048989572992
Ni 0.4026647091592259 2.741747570889089 3.4445257223440833 0.7685554425231602 -0.14855628377656996 1.6777317160258978
P 4.654516124920393 5.180628534101915 10.795652238571021 -0.6623562835565624 -0.9120016587666744 -0.1218062693762354
Ni 8.379281855310346 3.884651896499968 8.151494712113918 -0.6480920603280644 0.2211634657203352 -0.5763595676797687
P 3.5506625497398625 7.914871657549189 12.629117659359842 0.12617637341947302 1.0669623034076914 -0.06082021661116622
P 0.5068457762646478 5.717900931380957 0.46913753925395124 -2.6690997298370416 2.227959362505305 0.5058537483497224
P 5.425043322930771 6.8976276929670695 6.114260983897961 0.17912335793014958 0.9860694844163662 -0.598316274456518
Ni 5.783838781848234 0.47299473315993407 9.803281603896352 -0.39968441417979556 -0.6121812053640683 -0.07050710488162697
Ni 6.040647418844797 4.963248171885534 9.064204946600405 0.35831587853533775 0.18260951670653713 -0.04188044228386981
Ni 6.625119567764011 2.379535977001179 8.721384292427485 1.0089659293985656 -0.4264673387005946 -1.5059457722974259
Ni 1.1293779043936707 2.6156268143117516 7.78748941716875 0.6308407294467845 -0.033299899703710396 -0.39064390124408205
Ni 3.591444387432863 5.997904296114857 4.787519794948965 1.8316927157578065 0.14971148042693572 -0.0655207074106291
Ni 2.646418068600619 7.497329726633228 2.988810554913362 -1.062744151561286 -1.2835844296142473 2.3460632433292887
Ni 2.394590911439665 2.2982669547662677 1.8995423107117684 -0.9288765801451423 -0.6556904415006126 0.5567708469145637
Ni 5.01569643277949 3.031566568718663 10.05801754013322 0.3918569477155768 -0.26489561650096316 2.6152790844721605
Ni 6.76526397275102 6.456743707738226 1.1353713336450533 0.7082507320958319 0.784644634775539 0.2015238371125368
Ni 2.602984352547812 6.352114215368489 0.8696061616464623 0.1929551216069193 -0.3401322656477755 -0.12734108315153553
Ni 2.2278908912107016 5.886589860379774 6.662399636914531 0.5596458544695136 1.3619758223399576 1.653840768340913
Ni 7.528820782155933 3.7175927677431146 10.476200341652799 -0.25895431131586366 -1.130690694804588 1.2337459088255656
Ni 3.3420849504122847 3.5294198991284937 11.64597887622525 -1.3709939666781679 -0.17318925183390174 0.25255354999584245
Ni 2.6301384820029163 3.6357252312950523 4.256847628254331 -0.8501028643793489 0.24959678136036365 -1.766834324521525
Ni 2.5655081548935983 8.795820123930408 1.2331418531320815 -0.5756841388792988 1.8501411522709814 -1.3428745827341324
Ni 3.592816366167624 1.6021949248718537 4.930629147268814 0.9407424783447927 -0.6533864759577844 0.08988885184234842
Ni 0.17290799380598293 2.695496234078987 12.137110431625848 -0.6023976436147431 -0.6007295118837008 -0.43859394676079944
Ni 7.836217682030199 9.053890244730074 8.360599924740166 0.07160342326959927 -0.637935945730669 -1.3470230576848672
Ni 1.2628005343714477 1.9156322143434572 5.553468819624286 -0.351908175236781 0.6978336505275659 0.0669497265476718
Ni 8.02843282356133 4.7551401760175045 2.306646153750379 -0.2254546368965214 -0.014116384796724077 0.12966741729186698
Ni 2.2007367617555973 5.769723054328846 10.810678628485494 1.3171234419119573 -0.5639727639796417 -0.0027608505745887937
Ni 3.7606581673570596 3.829413638581632 0.7755040738905004 0.367040145782213 0.8575338667360973 -1.2791022254731776
Ni 5.559184169964329 3.7972596134689756 12.525873036800226 0.6527866375902563 -0.36447495615819814 0.13546499781025056
Ni 7.614887126007022 1.6497169533960294 6.744419103893622 2.173921716033611 -0.01467379996209086 0.13437664984207826
Ni 0.9552378920996942 3.428436739503492 9.902294270573442 0.3747506270525933 -1.8502460532799618 2.1764933334155288
P 7.854430929931927 8.66333670087173 1.264429413822315 -2.4995426754390886 -2.0690554169458237 -2.5134096632291683
Ni 0.9901450825928448 5.230553827389666 8.811961591863538 1.002278747186377 2.2764953624324793 -1.7869100122254775
P 8.245288334852333 6.091475087407761 8.855504882056906 -1.463337450708596 0.5539220646118589 -0.03681279795297531
Ni 6.1502399752282 0.5398690281730191 2.6854089676096526 -0.5976755555487255 -0.26803956144658353 -0.30113017335296527
P 3.9633887432177026 0.07952320231470489 3.0548331181615787 -0.16010773605959522 0.6337345060548117 0.023095705477198934
P 0.8700306463422507 0.3988213271197005 11.289694414629727 -0.4744502943377764 -0.017646766547485735 -0.9482655261947152
P 3.9549358809458184 8.517989826185794 8.7243897545686 1.100595932301737 1.3602786371431927 -1.3360506178337637
Ni 0.05660102874212529 2.7319319377934153 1.2159534457214864 0.04695837102740945 1.1272042789178844 -1.7337187729144785
