# total energy = -340889.0538423725 ev
CRYSTAL
PRIMVEC
9.11718636232987 0.00000000000000 0.00000000000000

0.00000000000000 9.11718636232987 0.00000000000000

0.00000000000000 0.00000000000000 13.34392382058881

PRIMCOORD
 96 1
Ni 6.644313541717478 2.109634828548385 10.939441834748463 -0.3438346542000272 0.3105054439202781 0.9513467362232003
Ni 4.619477661876384 0.5382905247082804 6.092434762718977 -0.13908973904703142 -0.5717639778892862 -0.6149747089488053
Ni 2.611070951540776 1.777896892018608 5.007120360655742 -0.4109098505819697 0.2827231316006873 0.1273742503823161
Ni 3.7909716016809685 4.814293696278853 4.828859312928113 -1.3895223644996586 -0.2386297408258987 -0.7486466194143753
Ni 3.477322162542361 2.8244039910851133 3.025695051116216 -0.47729547709605546 0.4362200472119842 -0.4612183690285347
Ni 5.527531171536492 3.9121116545219277 2.637612903962738 -0.2630169114210115 1.004320203096438 0.860238410151454
Ni 4.9740997357306735 4.6983322051910115 11.218116835962542 2.2198953545502476 2.4120490633017946 0.13038784039765933
Ni 5.964080280449776 8.106226994934103 12.470790866231923 -0.8973841659638159 0.2727919885299044 -0.97489598429805
Ni 1.9717465046854608 6.748541214185142 0.4697985752115979 0.432330739459907 -0.5408526330224105 -1.094329896787367
Ni 2.9672702986050825 1.8466860617849237 0.25040807716590385 0.4947874632332318 0.549285594281112 1.2067536965074377
Ni 7.8842873316310635 -0.11693247141655166 6.718919476269866 0.5420631083907439 1.1146850634049512 0.48086519672518474
Ni -0.06557992022917282 2.648551703947579 1.159617646034278 -0.18829448290645634 -0.5316817651564197 0.12451235545348878
Ni 6.9650743860804365 1.2116375752504034 4.662099595572944 -0.7994942981938618 -0.7726825773176564 0.46961739172550737
Ni 1.00371102711381 7.485036631400881 2.5300875452519365 -1.2650475471523246 1.3014818787199587 -0.3893565498912262
Ni 7.537515155082116 3.805632037066553 3.610905351088697 1.8594344046474491 0.5861546993933195 1.1782260213813902
Ni 7.959075609907152 3.988960416875841 12.45403074286792 0.9152029393127915 -0.1074983373939955 -1.0738906550964085
Ni 8.281450196224867 7.439468934847926 8.880794869940054 -1.7390941782937792 -0.9908599638264741 0.3133542262229829
Ni 7.201337148880212 1.025282289627674 -0.19315032448645839 0.029475640861613753 -0.1937609053376663 0.8823398700361836
Ni 1.789530421590751 6.493606454078353 9.137638768833995 0.20214218742282608 0.4767306057315209 -0.02978263057907129
Ni 0.19430091338301358 5.115744340301844 1.2518471014823958 0.17269765690946387 0.33266012564044645 -0.18453347320212735
Ni 6.44188465685048 2.0759650599669395 7.090067361803205 0.3183262255162776 -0.9289205460092003 -0.558621269859741
Ni 4.187423325752337 4.7712605774853465 1.0812299026523258 -1.512796476670672 0.5810736853259864 -1.2758965740516865
Ni 6.070660186953186 5.631758844004155 4.644900023834819 1.327975811245429 0.21229727357895695 -0.06989878187366672
Ni 5.193915094652591 2.8531869478713636 9.00644154791229 0.3550798880965433 -0.8203657423262324 0.7606557280601094
P 0.49249398678208034 5.8028519599530854 12.397679238495268 -0.1518123288200224 -0.9435141275526588 0.04503055787707728
P 4.272413735369513 6.318875580841582 12.634987742550472 -0.5718837912966022 -0.34012095279386584 -0.2710858044720751
P 2.579844588856929 8.744931473128833 1.4563957321374223 -0.6504752158482604 0.5894284850485849 0.40083832527858065
P 6.465871973703386 8.050685096694686 5.4428261298469085 0.066750208942356 -0.8009269168753304 -0.5625308893267925
P 4.728883896097164 1.1292729152545258 12.446184492437052 1.6507305048467056 0.7397089506051132 0.9031704336282896
P 4.198172488264528 6.151593448718009 7.7940390407409605 0.5334995350914489 0.6824294001573538 0.5654076966539553
P 4.9786765631955765 1.339834330198603 3.6825491118495566 -0.11683684118610199 0.07349164143124762 -0.6277176104367707
P 0.19867989790770033 5.5257624374165895 3.449150968949129 -0.4641162594016201 1.601940737037512 -0.13502173962524489
Ni 0.5465798703877416 0.1852028732889372 5.025388466614757 0.1263941458572339 -0.10252376699753957 -1.114552908702461
Ni 1.963942193311045 6.8327019598594765 4.525645405096932 -0.17151417812432398 0.8715481787373183 1.4257517791453382
Ni 6.071918358646725 5.781071002156965 9.165954013968953 0.46525551521238584 -0.0836842656935333 -0.6411824776924248
Ni 9.069813285647442 2.287429076343338 10.049789541965671 -0.16810052445708468 -0.24436510064777917 -0.0993998766565772
Ni 2.4178048387897677 5.706437716046023 6.6184125274843275 -0.2540067375026013 0.2638239807033392 1.6109753364359547
Ni 0.6279407281846435 -0.01404867219256672 9.018597492252837 -0.2652853957402141 0.37356843381903404 0.24631091152024032
Ni 1.9968552354391298 1.2963180005372876 11.486503092566775 -0.6167469703578797 -0.03507678909847507 0.15246796012615033
Ni 4.134817161464512 7.262996679049807 1.493905659540017 0.8103011590013787 -1.3053382763515715 -0.14233472834689034
Ni 5.922843247334726 7.940358026669213 7.507091104782553 -1.479007038925053 -0.0785068352576519 1.6152917044231214
Ni 4.878733968234893 2.8783868504868835 5.355903788477116 0.7393001452024687 -0.9340432119477462 -1.44296711458236
Ni 0.40602112269121243 7.373269045958169 6.7925507836190695 1.779207501374897 0.5557485762976365 -0.07926453935928285
Ni 5.243840806202008 4.367752151306738 7.1139662419501155 -0.3311488312022426 1.0155800922809735 0.5252226397946373
Ni 0.7980738044282868 7.609914730577717 11.36344478375248 0.7265888682833874 0.6727188577378092 0.06508721941763629
Ni 4.531141244929289 0.22185669690875415 10.435695416776774 0.6812937438910137 0.1540504741219218 0.22825611090105852
Ni 8.422620707114415 7.176100777519952 4.632610056857351 -0.8674817219774286 0.5616867961589423 -0.80670881366443
Ni 7.31032399253648 6.098431136072894 6.766876787321927 -0.0072512822457746085 -0.30858662963101047 0.19638703010660372
Ni 2.2807188273111296 5.441911676072546 2.6458593988671293 1.4560440023709762 -0.6292795556072517 -0.3410707183016448
Ni 2.544533726762172 5.385148074884332 11.289586458467266 -0.5359194573868512 0.8159087349961432 1.1767643492341993
Ni 0.9263334679611631 3.4957844645671177 3.5634285157485897 0.8819076675947715 -0.509516027692658 0.20235970275027088
Ni 1.5505963232387514 1.1872217506467992 2.609190987749416 -0.5345855690667761 0.03628829290807299 0.16263795868061665
Ni 1.224875729591118 3.500443346707686 8.259167793188569 -0.21963494489095076 -0.1284209464792756 -1.147953595650094
Ni 3.347393142218999 2.8386997390232955 7.2914532405706325 0.1093803849080568 -0.1535948746417419 -0.6017301852340733
Ni 4.325083719960634 7.0380301099333265 5.526959523962688 -0.06137351801147494 1.3178230390821433 0.5996187953180254
Ni 0.9671966964426246 0.44070563409505537 0.16165318137291418 -0.8599797571734287 -0.9200556394194025 0.5035924631193713
P 9.293603737746047 5.596949427149577 7.967095998594154 -0.663348986487135 -0.05082196774787376 -0.1604761751426075
P 8.735513419799661 1.7660445499780233 7.794986316385589 -0.7004446057878517 -0.37758038319190457 0.866051160178489
P 2.0578765625757702 3.424004857732101 10.428943228688116 -0.09326882405817485 -0.9173001881614525 -0.2621957010712968
P 4.5897374005407015 6.018063139851546 3.1452560073099223 -0.6632633687518642 -0.7133510294368747 0.24102960851664298
P 7.152988710540812 4.086395785635631 10.201269766993292 -0.6060396112427047 0.3064893807823496 0.802090083945496
P 6.236574741149 7.750137054104017 10.201029073278004 1.3734133747529378 0.628142356679015 -0.5626625298086503
P 2.5513351476562303 8.686198559724644 5.793290766800808 -0.4493229031425294 -0.4291765101016415 -1.3679176417456893
P 7.335779176365182 4.182098889020258 1.2769804486387646 -1.5381737790931962 -0.49852764700195434 -0.02202226990736207
Ni 5.821186621371251 3.23390240858731 13.166916294738812 -1.0472833369215253 -0.857593259219123 0.6652387473106801
Ni 1.6442298253593695 1.0293212031076577 7.142121936326833 -0.5475161610855152 0.3291384856404332 -0.5847547337219994
Ni 7.050037444139058 0.7270810107610407 9.080126646659988 -0.6775664156380976 -0.4396923220313008 -1.1078945228456791
Ni 2.667624857446735 1.3344825419079698 9.291027220930149 0.34188858621724993 1.3860997119713547 -0.9450624458763853
Ni 6.694758932879443 1.9711538875834316 2.247196757145883 0.14306672141690843 -0.8774051517387276 -1.002874214678531
Ni 4.220646352210713 6.955419285910453 10.162905559245155 -1.3184372756273746 -0.15141483627128763 0.12745009792557407
Ni 8.66169156325919 7.513518721043024 0.2498418999038113 -1.0478132412830663 0.05697050384777285 0.22280280109597114
Ni 7.594798435882879 3.9307289487118307 8.069604169747315 1.490454361530046 0.1166560926338636 0.04082089067110389
Ni 3.4026706420590487 8.46611880240336 12.747063488886239 -0.19625333274221685 0.09544114911914531 -1.258020465102214
Ni 0.26269348555027894 4.784899888018204 10.035350654204384 -0.86019418717708 0.2661788540887609 1.3408588378556843
Ni 8.83075154668885 2.478935572160629 5.719726014910755 0.3563281586813476 0.9182941766436055 -0.04140298842681901
Ni 4.027170544177449 2.826008615853685 11.28890631637786 -1.0314396850210494 -2.307807285171884 -0.24593707312058932
Ni 1.3631925612047398 3.690810194251844 12.736761980215734 0.04301301322641624 -0.14212312655671652 -0.9265193927668752
Ni 3.092923358607649 8.101905448682382 7.869792829034048 0.39701997997375493 0.2621977579538258 -0.04852597262484546
Ni 5.810008951108362 8.143151598983616 3.335513448619859 -0.5398437321419219 -0.19495543986639974 0.5066582465288887
Ni 3.4203306316995192 8.819637696729256 3.627918932228647 -0.32085182015160874 0.07533460817725735 0.09012693599508351
Ni 3.5067980254786764 4.545801680314874 9.193055761622675 0.20436722009860286 0.2733306346421938 -0.5871013795773051
Ni 7.802497054364846 6.444382765865187 11.19428451127478 -0.8642765847765695 -0.972074712799171 0.19579439082792732
Ni 7.969633311509458 8.934031031793268 2.623295274777712 1.2145904189430372 -0.04569930180932775 -0.20986912375343858
Ni 4.772846967881548 0.3984939737768227 1.4005912589358764 0.6326374163358911 1.0411353150422584 -0.22596165843992697
Ni 6.316933620184163 5.73557624309349 -0.05985432730495198 -0.11117038692894401 0.4140432540046288 0.12536544748240344
Ni 7.9703718035904485 -0.1590064622233898 11.0281794078877 0.37104463895591583 0.39055776928817904 0.8601219391782476
Ni 0.20707044435381566 5.1866669316354646 5.625584685519629 -1.2413653730440362 -0.9450932991143206 0.26642336599939925
Ni 7.155103897735747 6.315246940739926 2.3063107689326072 0.8878718555980064 -1.1811480801241916 0.4879994937771209
P 8.596138994588571 1.8471145695356217 3.3828717605395617 0.924487449938511 -1.156145387432267 -0.24395269570070893
P 2.125416677834732 3.623935633584392 1.4212881832945925 0.18655436028689804 -0.6181723899504967 0.3221908506780064
P 4.494708968933769 0.7362611055307827 8.268254892659224 1.5825677318275388 1.6110519553101612 -0.6164860033870092
P 9.052964725577441 1.831159493711758 12.168216984870933 -1.1171270971875407 -0.2246858770512969 0.8865145702391635
P 6.5613836161781265 8.00650321244186 1.1461497386016997 0.7431876531823329 0.7380770714286451 0.32821777359837667
P 1.8080291923602478 3.856086545414703 5.754740568454498 1.800725577952331 -2.623146145925063 -0.23149801487712393
P 6.899777098623001 3.8973691644606774 5.823434919484488 0.5777520771519211 0.2295881994489207 -0.422455389327724
P 2.33817533464941 8.488273564833069 10.209409590819316 1.2209045340865232 -0.3989657908462161 0.0765589675026617
