# total energy = -340866.6166036956 ev
CRYSTAL
PRIMVEC
9.31085570114713 0.00000000000000 0.00000000000000
0.00000000000000 9.31085570114713 0.00000000000000
0.00000000000000 0.00000000000000 13.62737847434885
PRIMCOORD
 96 1
Ni 6.833451014434494 5.5845021660876935 12.511718151017543 2.019842445556283 -0.214538761314966 -1.6806882275510602
Ni 6.50856733284029 8.948393223667296 2.7005652265856903 -1.601302846343197 -1.7556477117770863 0.28273341601333246
Ni 8.722558423074988 0.26334451313265755 2.9048798468189387 1.1686674311586775 0.3365635744599107 0.7901640219318714
Ni 8.916168352719039 7.256024192124945 12.583220865969041 -1.8491201672056348 -1.336233166158215 -1.2381376101353578
Ni 0.8522142258047182 1.749202493625033 0.786761704768901 0.5173923451169412 -0.9258951289193151 1.2787199024330944
Ni 3.0706829064580865 2.6511636893775825 2.4843932318501003 1.6783955748621415 2.102128288240393 -0.4960802139027264
Ni 0.580899620348539 5.531849278132653 0.6743303311307933 0.0695146590613706 -0.1251733860762554 -0.5981419536621827
Ni 6.961382169253636 7.14525294402572 6.1002276599804075 -0.11785216982449381 -1.3234213591055273 -2.2938891324288946
Ni 2.4440437083767206 4.7543090446689105 12.274697288605749 -1.438310075426323 1.883751384126259 1.6999069665713562
Ni 7.161435210916235 4.660306647357843 6.5078224643988385 -0.7173077000917776 -0.23586889025130994 0.48670082957035526
Ni 5.474000932798495 8.017586997519572 9.840848035935831 -0.5531713024887635 1.820066701483104 -0.493994277907975
Ni 1.1387455624341816 4.187622445268802 2.7856403756259724 0.49179598470507563 0.9267371652046362 -0.6968386336041482
Ni 0.32447400395140585 8.310096834477228 0.7458600475632958 -0.5392950587273034 0.7738138627086222 2.372639194045604
Ni 3.258557349102968 4.179410270701808 6.123639806180751 0.05149611099676292 0.709468663663333 1.3916116429285195
Ni 3.233296998082274 2.1651649638976105 10.52454694988897 0.5973788502439131 -0.429407395165525 -0.378720924554251
Ni 7.050077378919369 8.2445111682075 0.43797147054633967 1.9215869669167938 0.8035281019436032 0.2995985671997873
Ni 6.195517748609633 3.5786738726718874 0.25780641627047224 -0.904524890773655 0.6777764747663746 0.4728233002573147
Ni 0.5522557044325557 3.397829125943196 7.170890384694899 -1.2667557880926827 -1.339630364765222 -0.6780508114736838
Ni 2.7406782543289094 0.30878428131780056 9.036491607494316 0.393407065811516 -1.5024205327529865 0.6859060458520445
Ni 0.4518260235573211 8.478753671332683 10.837513667505515 1.1765267793020964 0.5634333465364039 -1.039828423305377
Ni 6.328793334496185 3.832180535864086 9.263223974558572 -0.49392048724724613 -0.9045035506174164 0.723716946052231
Ni 6.239548784354882 1.343817155221054 12.684895408227051 -0.5557460051944751 -0.2862658546466231 0.04940169036157944
Ni 4.87796651680523 1.811119682820615 1.3626586024475473 -0.26753691077855213 0.9830584655041844 -0.6519996229125867
Ni 0.27313673988107773 7.761138103983644 4.552089366927242 -1.7639402908031816 0.2486531865001718 -0.40472223371401905
P 5.1466778070585395 5.599157452673234 6.365239747336362 -0.02291804224875408 0.1190086520264402 -1.0383029877997858
P 1.7382529275357088 6.961307682409491 12.95858707509701 -0.4725443355643152 -2.569134724705614 -1.5942076300593127
P 6.340273619350041 2.5965275891971795 5.901226744991358 -0.8851667979620176 0.22381401596930484 -1.7804668277032951
P 9.16936775767914 2.3359539866667185 3.208402563683442 -0.16817740044160714 1.1396535604248308 0.2555491422890567
P 2.5489491174995216 3.6924152836813966 0.6474545466777033 -1.4401913516094358 0.970716913219696 1.1987002300753422
P 2.9441111365445907 0.46880064425242884 1.3920771815426394 -0.4845729845940752 -0.19370125574432448 0.43750816989578845
P 7.237886645575624 6.943933626012656 10.568699957841508 1.1599519056625507 0.1630609051506482 0.4377704224182396
P 2.3350880771035323 7.3891414934676884 8.866899029659288 -1.5966293521269277 -0.9397184079556526 0.617669225061833
Ni 0.8218338353346031 5.9876622100228385 10.821024142382903 0.20994831373080614 -0.3066117652928268 -0.02478234915100248
Ni 1.7521912782463533 1.2494516345447793 3.2819089747424446 -2.2050096956876666 -2.7529040660482074 0.5974148456881712
Ni 1.756856016860938 8.002252018481208 2.8733467724356787 0.6374965442004054 0.16432177414094282 -0.7945613796686187
Ni 4.593678165270085 5.496300431764423 12.895097282404416 -0.49387600716255586 -0.7151261190594264 0.2257336015895209
Ni 1.2452617495616194 3.4592342180852813 9.926318896335633 -0.37338382861205377 -0.9758280091940164 0.11972341870527767
Ni 1.6841289244088036 5.119983584288054 8.018144717765107 0.7310561600261216 3.2233331550417326 0.8625665440639984
Ni 8.50963777908633 3.70501287119743 4.971212872648227 0.7838182822195017 -2.551755609997218 -0.6906942112693073
Ni 5.61852403215095 7.699714390130522 12.250972297659995 1.0038031542507033 0.48280535117069107 -0.31410627389765905
Ni 3.5215517740681435 7.416925086333796 11.552923493182309 -1.9221808917470506 0.07461032841672312 -0.8039052827773638
Ni 7.619408261286627 1.385231840565708 7.0838106084615635 0.01453496039138142 0.7653161096502562 1.0884783231025965
Ni 3.0457577462360454 5.055990074311928 10.211662167800984 0.23890433464352406 0.07225339814877234 -1.2685725295864474
Ni 8.169000129955446 5.728513168386652 4.262071114906239 -0.09682028885485906 1.567740179896403 -1.388205445460448
Ni 4.916038605018875 2.572561447093506 7.656405876773479 -0.13305613125844182 -0.9033892345073151 -0.3945550633730302
Ni 8.085053456603962 2.2730219142196595 11.017176866668956 1.2121036479654415 0.9547287653215557 0.21768836268754124
Ni 5.794061591234306 5.922002056908967 3.702258720135166 -0.023073336879695747 0.6590308187277554 0.14279315604054765
Ni 3.8363517991362097 2.8924079558524003 12.839838285989847 2.460633399968401 -0.9675007202752436 -0.1857393205847704
Ni 8.303793385291453 4.135565452066921 1.7934579209882693 0.18996698551287283 -2.5068263535846955 1.088333569994616
Ni 1.5739721927737758 2.666312451305584 12.372855120734558 -1.7661444975433518 -1.0695197797222227 -0.4572275027015867
Ni 1.6247815313362257 3.128475386659136 4.754647028724219 0.1291637381825711 -0.2981631203048413 1.0126035261511528
Ni 6.979594202647104 6.057586734964016 8.464046243956242 -1.6956782732019893 0.26778245113045496 0.5894940481791977
Ni 2.8250346053231916 6.372163299499646 1.0429554808636325 -1.8964174096297015 -1.9070736037919669 -1.0042376706849607
Ni 7.499884809000358 9.239525054008269 11.088802484913295 0.41730238437187483 -1.6047558378888043 1.1221913990843253
Ni 1.8021626398121715 1.3215735213882351 7.2068796345291375 1.6796556725214877 0.623761711112816 -0.5496800015060533
Ni 1.1006920959315734 5.451599014421867 5.189605506424892 0.3647060983323977 0.23568094261021993 0.10711344325075102
P 4.759858314557718 3.6761305973801823 11.003617467777898 0.829234762681088 1.4888098839480877 -0.1903027715857368
P 8.36972355321535 0.5018355596307635 13.142379638682742 -0.07233027413329479 0.8865945315474796 -0.011502601322960835
P 8.402600184049877 7.570572824094022 2.373698332766125 -0.22902178542248947 -1.927602062762622 0.8689133122176326
P 6.310320597148208 3.6522761855427266 2.521650620205908 -1.1614562581222192 0.48359133740709614 -0.09507759513213948
P 9.051464394253026 5.665609028506148 7.0602494885729286 -0.06087498110850162 -0.2792819671296223 -0.18663355026426567
P 8.453223305501963 2.3886534288993495 8.890447114350197 0.07077604227229746 -0.5538765560859042 -0.45287951014553623
P 1.2489767809133545 1.144527603710942 10.717101959602816 0.17638436173243172 0.49288870354862213 -0.21113950582542992
P 2.358048646811247 0.18840981683717392 5.152865801635891 -0.4438608515866937 -0.3011386579933975 0.9603129442775526
Ni 7.360836492692565 5.939562330416165 1.1039676549028523 0.11781051795328099 1.2736394025863937 1.0955344586184295
Ni 3.9884725565914616 7.602136624300492 7.550126185376203 0.5209348110525609 -0.16409448862148512 -0.47960664172773526
Ni 4.121776075044567 7.5429102723496495 2.1799440848615426 1.8066877090730369 1.5951255138878915 2.621643850347924
Ni 8.25902679196027 2.7678193981642663 13.401913218651826 0.9864178688947205 0.3844326302270476 -1.166520560019004
Ni 6.556173737104502 1.2370309532835901 9.515057477014162 -1.452940166634672 0.18346569405924532 -1.4139915532856164
Ni 0.25518354827101425 1.2744047273333747 5.585630641776492 -0.42796757739520486 0.15079442907846932 -1.9027433518477297
Ni 3.939311239455721 0.3274199586373431 3.618218938228501 0.2592702998943857 -0.7434704745300744 -1.2832830963237447
Ni 5.10713460367303 0.2348849521559332 5.976654916629302 -1.0435153852386607 0.24104272114276548 1.564996555712995
Ni 8.604962317880972 4.491072537460264 9.114549164730581 0.6672192680758187 0.8376075601258156 0.2806665061819747
Ni 3.6684863849997953 1.991312669663037 5.297602119579713 -0.15995706941434387 0.31552218040857916 0.18391717977436714
Ni 1.5780875909127905 7.708717987416557 6.374505910748008 0.5675684517506999 0.37421095249903935 1.7216196756580997
Ni 7.216043378530084 1.5314122722003913 1.6383102044040727 0.9234407538415514 1.2151604325138943 -1.3680307702847858
Ni 1.9504845682160252 8.92275112757036 13.001214033830125 1.8312245178721367 3.7654335444283147 -0.8352670849180969
Ni 3.6860187259404396 7.5532360111192585 4.810055929912626 -3.54862475613225 -1.518996949054429 0.8303128262366152
Ni 9.069732292779602 7.124201099699222 8.798844124506152 0.7245517832487005 -0.3966150312258524 0.05369388997903011
Ni 9.386832099160646 0.20404274325211869 8.457478366473751 -0.003824773062728897 0.5897133632788554 0.4754756502784972
Ni 4.669403353199058 3.933622306734142 4.2305790082872585 0.04619526760913979 -0.2666750769988891 -0.2685013315743505
Ni 4.353299808358455 4.753331404839507 1.8398734668317127 0.41437312654022185 -0.25042107703387195 0.2246766210799163
Ni 5.744164716512633 1.7494538867240226 3.496226247058823 0.6168282172177764 1.2905513478503838 2.3538022638447593
Ni 4.859698618278655 9.123381442275083 0.43229743519358965 -1.1011533474671036 -0.6802696735018735 -0.5625851396034957
Ni 5.219619049187592 5.872580035818718 10.358688025116715 1.2367916376304249 -1.3887286649537696 1.9227195378593402
Ni 7.12710608662088 0.2283003151335098 5.020871389468635 1.5166225352849816 -0.0626176748312212 -1.0762010483971403
Ni 4.463549648548663 5.250605576351937 8.335349736813507 -0.05113435678197001 -0.36690876241067133 -1.4637053755709761
Ni 6.96545101311506 8.361436891804212 7.85407161508123 0.25477112647245154 2.015847465464277 1.838942969562317
P 5.564725908967179 8.000883322720043 4.539225488943391 3.355945513894537 0.6012496460532291 -1.5538469668540786
P 2.8269060872823366 5.83443346076093 3.4956945972087374 0.05465034035502846 -0.25833159013020024 -0.48716157125685783
P 8.870349632714309 4.43200447005323 11.824312585482636 -0.10758344090863407 -0.6078473538754048 0.06259916288845993
P 5.449746154173759 6.832817876259261 0.724792374782417 -0.8524762497075318 -0.35130036644945306 -0.6522233088876186
P 4.560457032781389 0.3675748852303939 11.31951338054045 0.6056752859247504 -0.5643044362874475 0.5360174164172963
P 8.67802460113176 8.806523718137509 6.406761507519475 0.2509592089255291 -1.0233239978924504 0.6431498858314407
P 3.0452642708935844 3.53209166251467 8.401700755406825 -0.5279063572743876 -1.0943054713073348 0.20568671024097482
P 5.028187859734784 0.08878831822091326 8.235188208577195 -0.16413254094827218 1.7188451982367559 -0.4983962636304126
