# total energy = -381174.26578737434 ev
CRYSTAL
PRIMVEC
9.20758199051333 0.00000000000000 0.00000000000000
0.00000000000000 9.20758199051333 0.00000000000000
0.00000000000000 0.00000000000000 13.47622695976727
PRIMCOORD
 96 1
Ni 3.580902231746696 4.529126630658444 11.982764479284022 -0.6061486260167432 -0.662377109492169 -0.24803894995494058
Ni 5.839310278627024 6.39810000432113 0.8823938719076847 1.1340961209417115 -1.5612147200730595 1.3396594182309445
Ni 1.8951689439500532 2.6597481233955316 8.333576979219163 -0.7692552968036623 -1.0600380654840325 0.08838887025805423
Ni 2.5679393250351317 4.5990213842793235 7.052163341415754 0.14421343342684198 -0.29460651330183457 1.2058864634111361
Ni 9.007326126252062 2.1627136489904837 1.6888141446747287 -0.5769612058195096 0.919156781754217 -0.07271799649001669
Ni 0.21643065606459194 6.340257975306986 4.082879336074506 0.4636814858570466 0.4594247674632217 -1.5813168901395733
Ni 5.52853597692607 4.874180759487646 10.368298795558118 0.2911339813722018 -0.36874427295751333 -0.8633373607917518
Ni 4.56096644860351 5.854963167726681 8.07771761627072 0.25293561592560954 0.9697355231430331 1.0548277249276865
Ni 8.030005768778599 7.665707793938643 9.20817110856431 -1.8578791443451876 -1.9477589973264715 -0.9307205753324165
Ni 3.922540347719444 1.8970564982238352 10.440545165576676 -0.3662806419083692 0.11371037974197837 -0.2921153714488646
Ni 6.626070522684899 0.8322898946578651 8.579275775625568 0.7985327056115408 -2.157370239432833 -0.5316462839327941
Ni 3.3315885387164546 4.1165533043187805 9.601919533866178 -0.4055303314376113 0.5556961257931462 -0.7654253815346108
Ni 6.216443622528699 8.317475680884712 11.022165090401723 1.2004886894343325 -0.9197861878080997 -0.7947729814587926
Ni 4.712827095615653 4.098791878981581 2.264680251618378 -0.9594477680637801 0.5892225396853659 1.1418284565889627
Ni 2.610726957768135 6.572114093200198 4.353198285518306 -0.02722515426454021 0.8277088129548649 -1.7727468333512182
Ni 2.241530549398168 6.405521315270732 12.513754673937138 -1.0991093204538813 0.8799461729930265 0.15350180070730338
Ni 6.193222101170267 3.57471473676142 0.798728258911836 -0.5929292991129917 0.2535076863789957 -1.8266921772194218
Ni 8.197197039526582 0.5602850369822147 5.973997864780478 0.21251504601671786 -0.7705084524844731 0.4933689856191504
Ni 6.3900709929711885 1.1414915413833944 0.9565462113636714 -0.3098089320738858 0.09353750433852923 0.2111125092422364
Ni 6.100870055482291 8.520640973816436 6.297265934257505 0.05210803354914897 -0.15175756432268703 0.2520714681531014
Ni 5.660204396999655 2.956379579415854 9.018438756754637 0.7948226037498053 1.4261222751108793 -0.36618679664298226
Ni 8.630745237259786 2.0166998164361543 8.221792332093056 0.32779765534182254 -0.49584675773568154 0.3952022100387258
Ni 8.023569669084093 3.6513954781860924 13.0287218347013 1.3508046362144865 -0.8025526254042114 -0.32769326855347436
Ni 4.640464710066121 1.700741646168667 2.840047307627204 -0.7743813051763179 0.23189730719807158 -1.8889043890821082
P 4.794323402333926 7.532685859337029 4.384179956837438 -0.14871183551782777 1.2393820240654203 -0.5848586062897153
Ni 4.098939200290754 6.593788740812312 10.375737600913185 0.4117539437498199 -1.0004280671308834 -0.27156197277754524
P 6.02322251796617 7.50380167515725 8.141203892942563 0.5350825633078526 0.008705241083481781 0.8586502397287277
Ni 6.765556179726489 2.760350162397209 2.813499086956003 0.43095982725430937 0.6608861267689392 1.5638331315325131
P 8.589145382581993 7.539481054722644 12.189206750586669 0.15567772531269963 0.817649886056966 -0.9687795869876672
P 0.8403050946350719 1.3390494169847118 4.074577780302594 -1.2776485237457866 0.40966955041696546 -0.5902972608067834
P 2.16843155730277 5.216896162533723 2.7073062042712013 -0.30347836187016763 -0.5944519064051053 -0.8527495579735764
Ni 0.8990310515042553 8.45039633208627 3.0800990941013597 -0.6224918432614569 1.426593301210027 1.2350720838361569
Ni 1.531800934874252 2.514986521969175 10.81534530824432 -0.11175454156718818 -0.05157915762887247 1.4102691101287068
Ni 2.863327757509305 1.3709997259116586 12.46125120086416 -0.4750619597798463 0.026607575285199338 -0.13275351241635847
Ni 3.1558802547818936 6.75321802008323 6.43379319525926 0.32504014720134344 1.1082827594230333 1.2733555527973877
Ni 8.11013935338702 2.735738296183454 10.702496264659434 -0.45400719599207623 0.003400541041116724 -0.23539349327678813
Ni 1.6232138072162487 4.078516783806614 0.5140187798363581 -0.21238006310075036 -0.13530224698014118 1.5427130617244462
Ni 4.642122074794321 8.906935861632322 9.36469723728633 -0.6685513566236809 -0.26904434856201404 -0.7844656859955135
Ni 1.8348961133345507 0.9843825727319554 1.3453989654100784 0.37652057446882253 1.5952391566476205 1.2314709967484596
Ni 0.5063230829484209 4.0698156189835695 9.637914733488113 -0.21358873869687087 1.6040526411741922 -1.2788736544021395
Ni 7.966234057070233 0.7813176424421058 3.547751254149987 0.888314856672696 -0.5630584796954884 -1.1631416162444421
Ni 3.8945308838128816 0.06245410674944888 5.817147629178273 -0.7294548769772727 -0.6710332425052701 0.40437359212534874
Ni 7.327356784676822 5.930299602205147 11.267796671460815 1.2400337987168062 0.26226229264317413 0.5411207990821325
Ni 5.440087945931185 5.834780148369946 5.549941763148942 0.291758245219762 0.40062055284081977 -0.09716558800941975
Ni 3.382930014963329 8.013975368824186 2.4209771115529994 1.129822690377338 -0.41732552430032643 0.37318251123452506
Ni 2.3736685561447426 2.883510776866039 2.897469470910204 -1.0601244545502517 0.5228585104378349 -0.2604800039317708
Ni 3.5924117090258556 2.503661196326482 5.516170194537341 0.39815177958535297 -0.6653238508253186 0.1143536697529321
Ni 7.872979668363571 2.698686986926384 5.055997353203802 0.14434070303332563 0.43454420217145806 -0.22341806608246684
Ni 3.9857043590274714 1.7780024652482092 7.9144128658103625 0.9307573421076228 -0.10175912091737314 -0.8380801288868599
Ni 2.6717548100931507 8.54318113411994 0.23399964294168335 0.7229582135093355 -3.472565611084142 -0.9922969533833167
Ni 8.225961525142658 7.238724602045472 6.65534234605944 0.22690011109379632 0.7787709496035814 -0.38204073295610336
Ni 0.9758287292180841 7.517226329455661 10.466958034795073 -2.406200317830501 0.38699190631379154 0.32523657948286566
Ni 4.700884861990797 7.3555780229653225 12.804045789113918 -1.6044534761570366 1.5873738949669307 -1.1623363467343273
Ni 8.970035419867585 3.9524557810634353 3.3876129910786736 1.1279465564005478 -0.1723767832349354 -1.4429246913801987
Ni 7.369177621318377 7.742489818763372 4.384961680534238 -0.1576291926121156 -0.020914381555163983 0.09564555182046754
Ni 5.812414932121084 0.8188035495612371 4.53981755391351 0.6064856976411878 0.2063279433693995 0.3694508121062347
P 5.421985840066522 5.408653261586344 12.524198833999339 0.8820588484606551 -1.2746472750256177 -0.32427910066560284
Ni 1.2184485102627667 1.7306939098399519 6.117991553882769 0.16682551439940302 0.17419583872154515 0.7963123009214543
P 7.499068978100059 4.421876717580323 9.352636225855953 0.13933219407514066 0.3393208254900737 -0.24763040166261224
Ni 7.800387093268456 5.103771812252321 4.932662715438512 -1.8711478364296354 -0.1242526740341989 1.001048988544334
P 5.61367848604638 3.5333358640473858 4.846967751408801 0.7689333946878693 -0.29626487484086395 -0.1499667909708514
P 2.5346539167438027 0.2650853599354197 7.780041099713449 -0.20794568147848055 -0.03214238906049949 -0.7960307651252936
P 7.768786672450795 4.733396833408967 1.7018861485893069 -0.268702391841563 0.1540299052966315 0.839244067287974
Ni 6.167597400955946 8.457173112308238 2.3807639186977987 -1.068494938002134 0.09592425940315093 0.48052066890157236
Ni 8.573078152300287 0.17784720519211988 10.432405663244854 -0.14051413019838382 1.2084105153845706 -0.0043865591034698646
Ni 7.248070297596149 5.240854290438022 7.266556359622843 -0.7641010062962325 -0.7297592955915689 1.4088256928139606
Ni 0.9384275318517272 9.087671485242419 12.374437515642914 -1.0897060248621104 0.5716685899620025 -0.4968803412065184
Ni 4.9699580256139 4.008152443512744 6.965713355676531 -0.3365646029011752 -1.221008406654239 -0.6229752106557788
Ni 1.5037454330585727 4.039274070075591 5.153578384609246 -0.9849567109681616 0.1041106518686852 -1.324404806064719
Ni 5.761211569601559 3.0742918722453876 11.891705178084042 0.062402216386305435 0.4108059780142537 0.8968082388556878
Ni 8.696340050169173 5.924784260692975 0.1560160286890101 0.2920498083182519 -0.19469524422647758 -0.806336775036992
Ni 6.435335465214667 2.149905902674235 6.7051102465727075 -0.9941021249128557 -0.23947434821438116 -0.12544540879071944
Ni 7.69201385520789 1.1015214286883293 12.397953679619695 0.3404109732304589 0.16877029683059966 0.8751636640027185
Ni 0.5750503151941029 8.622992453364544 8.032329762430807 -0.35267796352327 0.8414778417144991 -0.5428683779008585
Ni 3.415101305854036 5.66315082318312 0.8961665727990181 0.596576666057592 0.31230573035381054 0.554272248862426
Ni 5.16838141390661 0.6537152905017024 12.2546063627614 -0.897154566451513 0.135593810078631 1.216301230986557
Ni 8.945810272090412 9.129216094429273 1.0554255118062041 -0.7135050385162357 -0.17156817129071095 -0.6598633419313797
Ni 1.703071164369969 0.45029863058620173 10.042901933163538 0.8862127227280286 0.707157499031653 -1.7069834138021633
Ni 2.601105034762758 7.4662255337362495 8.729091418714749 0.4483337997563827 -0.14863907329836334 -0.2754697924723836
Ni 1.4412259524781783 8.56509517885946 5.552367040201207 -0.38045384808495764 -0.5264683392762803 0.3331784600377617
Ni 1.1902548947197376 6.991666766561944 1.5043918053025704 1.6860687751366834 -1.713392659762617 -1.0933971005604526
Ni 0.4355683411852421 5.943190216757806 8.17116168116294 0.46152124498093416 0.5155714898581185 0.01313113806531932
Ni 3.840712568055532 3.0631046603300445 0.3121609635235468 0.28382819173940793 -0.8021283933825992 0.9089122212080732
Ni 8.175853864860109 7.214379755704592 2.0609864434899956 -1.072620273024417 -0.6679283783277012 0.9659925111608332
Ni 6.079711032452285 5.9699198267909255 3.037757108328606 0.4513638448319581 -0.30959861583529263 1.752822583623465
Ni 3.601158911758017 4.4103119948102245 4.251466476226906 1.2227531572594879 0.9927664368205676 0.6139475532358717
Ni 6.979153662864042 8.15272441931991 13.439935201205657 -0.06492138326373335 0.5325363998472312 -0.11938506152925246
Ni 2.768130569037921 0.665072842680777 3.7073637642991892 0.6014242239578804 -0.4702735372522675 1.029843544178523
P 4.125521489014701 0.654284319058384 0.7950378601170464 1.6502494514452288 1.306191368380486 1.255423136688683
Ni 3.118009470742547 8.317880814484937 11.19347491249928 0.06406623435228966 2.0047354147115146 1.3485076126501936
P 1.9804219440522435 5.789377562399118 10.442431799092274 1.0432510758336808 -2.956964810649985 -0.6003574732562629
Ni 9.182620069004575 3.73594870206971 6.886634959945064 -0.1369238417439642 0.9880834295226014 0.2714277611925261
P 6.141116395632056 1.5169214826477546 10.488183352414207 0.87001194459845 -1.7959104159518748 0.9263764394311079
P 0.9052406446859075 6.178563630907529 6.02752522095221 1.0569925937894895 -0.28466714270093557 1.3035786133479872
P 0.8511479429902225 2.13121451157288 13.165236205088501 -0.8126177229496974 0.5051001580131494 -0.690309831346695
Ni 0.7526120853496996 4.489727388036425 11.99222434884931 0.007301932978051941 0.418866129314569 -1.3553110087252724
