# total energy = -381171.63285849814 ev
CRYSTAL
PRIMVEC
9.19648836886532 0.00000000000000 0.00000000000000
0.00000000000000 9.19648836886532 0.00000000000000
0.00000000000000 0.00000000000000 13.45999032312463
PRIMCOORD
 96 1
Ni 3.07752199178443 1.162960302279409 7.02427121320924 -1.523131797158409 0.7472610519207582 1.4693366057148245
Ni 5.7572406920515995 7.791025653963449 0.38136180999852104 -0.5431123755908647 0.019592577419946904 -1.1862720316143183
Ni 6.327781620534107 6.7530272326979235 2.35216002455505 0.5377148587243772 -1.6379714054088241 0.7055767848080945
Ni 3.358033273406851 8.037289213706586 9.823383320914056 1.715709737931568 -0.2893334378283533 -0.09617982705738273
Ni 0.1798934243965755 5.241566011885905 10.34327551054641 0.9078171883716817 -1.1768581944995862 -2.1007041541993563
Ni 7.812315524036098 1.280794904975235 3.624155729666134 0.5778981158114821 -1.085866596511362 0.7152449040254778
Ni 7.9889248825134755 3.7336822249651442 13.224440524843962 -0.2915556422906527 -1.0819400077634465 -2.86544330830022
Ni 2.6185896435186216 1.8742994643741129 13.238223301637861 0.5508364837079996 0.03408357194727033 0.07531223957975416
Ni 0.18154051542465807 4.62239405405387 6.522899831066867 2.314372597094227 1.0311501788050885 -0.24526241565106793
Ni 2.4439483335058423 1.0096456482918872 9.464594291085435 2.1882391610975476 0.14963203333925199 -0.9477669892917421
Ni 4.4329188086513795 8.108194137361064 2.7118107653235466 -0.7992775541973653 0.23434885406235767 0.05899216226349195
Ni 0.034393946040905295 0.11591437596961912 2.015889515616227 0.3944198233467465 1.0226567966220967 0.8726087587913489
Ni 8.58173970530093 6.9655304844338515 5.798644201362213 -1.463591475700931 -1.7408499846426213 0.3951075934423905
Ni 5.1863319040430005 3.3225440256270034 5.57573328398429 -0.9961219835563618 0.9459476766948162 -0.9275437202663315
Ni 5.5747087952041205 1.763196691005794 3.091504332371235 -0.8737742398543596 1.1692999225363538 -0.1539784832334058
Ni 8.50425009612938 8.321718199281902 12.229302336612378 -0.3929213844243491 -1.3307700861611145 1.3077666832874058
Ni 1.5358043249512403 7.773607505402933 3.7718798385058534 0.08651042228841875 -0.23718272396672696 -1.182916484878524
Ni 2.420101839726846 5.318788922901034 10.64168315811327 1.4704362665369062 0.023987364053532884 -0.13939030100658573
Ni 6.903812852443553 6.167266116323308 12.870940395351743 0.64374432488233 -0.9482297878607734 -1.0657024628586613
Ni 6.44395165887436 9.143268075394149 2.0041658325196345 2.0880095894508233 0.5118179363529571 0.3137907995397693
Ni 3.592562114267614 5.891766920743907 3.1935172968497896 0.291104413685847 0.3200393515526424 -0.06278119699227898
Ni 1.40044121583707 0.5875958157610051 11.508789677585723 -0.42185323696735083 1.0151574029212582 0.6347076686013584
Ni 5.737376277642564 7.080974000210071 9.236285954810908 -0.10307166908120957 0.2130747751749298 0.24327855245181976
Ni 8.322196416665824 3.7477252623737547 8.346405252078021 -0.2746236424220045 -0.1285646711459915 1.8271598608844597
P 3.7675804802946384 2.213723449100371 1.7747401229346005 -0.6740131510692005 -0.37133825893693473 1.0978057711511093
Ni 8.283442415591898 3.184578310365723 10.675131705172115 -0.22705283462157674 -0.06868727806406881 1.2230508910055646
P 6.1762326922718325 2.661886709739799 7.487926877790086 1.850740219307561 0.07265577579351358 -1.7970213896278664
Ni 9.401201978602595 1.7163589768459684 13.261159343089776 -0.4180618882457187 -0.45804357084497893 -0.38280177949184396
P 0.9370761602818378 2.4358186379791813 7.231904924468509 -1.3648264044148752 -0.867766343097383 1.1811501370067208
P 3.498537219398175 4.93682198398209 5.340008899663724 1.4956554461150111 1.2752365718701844 0.057138653994520956
P 1.3271544017511387 6.183093272433472 8.499270197794894 -0.6030473613836002 -0.03555861383090005 0.027135679874527457
Ni 5.2428351272509275 4.315084205955554 3.0636555269483443 0.37958404388549466 -0.10355503647553133 -1.0211321324474543
Ni 1.8060339328193549 3.8619824311783235 8.595980467204814 -0.974339854684264 -1.2405755301528893 0.7129386244898045
Ni 1.5354916443540612 1.3629011511992521 4.033609132374768 0.013227554433867543 0.04402319965848547 -0.7371447894223627
Ni 4.477898832204434 0.40458110328552815 0.6551081549360871 -1.1056401795938635 -0.3766663560180674 -0.3545630963611249
Ni 0.03967089094271323 5.979565793134219 12.46442159201252 -0.9927700363649934 0.3560365955828578 -0.49542124016248873
Ni 3.3713130022988183 4.135430809899754 0.8794500458705122 -2.8176773537698505 -2.2114469666725785 2.860618633218067
Ni 3.9040287750107834 1.1919016504947966 4.6744121499899025 -0.22063818934448454 -0.38013194596916466 0.08470627920014444
Ni 7.992272404200923 1.031965525037596 11.351159111708311 -0.8395436008062639 1.501823522598936 -0.6435630621094593
Ni 2.3684267727988946 3.1854059942994333 5.9909335721393155 1.0490368292775223 0.523858155346943 -1.0028636731555696
Ni 4.994244856005249 6.545655621350996 6.628332049840458 0.9769042729773304 -0.8894883081555068 1.039047065054662
Ni 1.5521648773742385 7.395806575616994 10.96573245394646 -2.0965705916469566 0.1720847059158133 0.6280094306455766
Ni 2.0318536993998593 5.8446257224750555 13.325928369849018 1.98879740332502 0.6992636981058732 -0.27649514841310446
Ni 7.686222474979478 2.06979840951638 1.4021140570319794 -0.2110592874067978 0.11410761518039701 0.5139013012445472
Ni 4.219790195721092 3.151084700514931 7.850041357734592 -1.6835496082592554 -0.0256809497058719 0.22291181587000963
Ni 8.463472867661942 5.700976577535635 3.630253920959946 0.44290388699006306 1.8218546466214625 0.054711532610267066
Ni 5.447484578104764 2.429105201627979 0.3441399438507738 0.8882120125462445 1.1036627441525186 0.8123842667826525
Ni 6.184785426253501 5.963573100237314 4.695113444820802 0.2229647805951321 -0.7154066264143227 -0.055343509767311144
Ni 1.476238671188588 5.787984551944844 2.1905464596588646 0.31508020777515416 0.18368732315174818 -0.2786839285343071
Ni 8.322794188395726 7.454535348957785 1.066057826267105 -0.26599810553652253 0.23896115602338844 -0.1680287906788848
Ni 1.3333344417895059 2.61590426897814 1.699539519664169 -0.2510216867323483 0.6618585179845375 0.8908677050015367
Ni 3.6128587636198097 7.391272706957896 5.074200963299251 1.1618432091479927 0.7532069850915479 -1.3003382520338185
Ni 6.099589160010299 8.382120733466417 4.394000190439527 0.09706660053771025 -0.3975272586274767 0.28413235324338804
Ni 1.7245898337423053 6.5662189688596095 5.941926406424356 -0.8062043632241858 1.2059268297307681 3.11642771403673
Ni 8.740958504682247 5.256216017512569 1.143966795298398 0.3673149967101545 -0.22961879557654002 1.5613743855793754
Ni 3.0602693800106553 7.76653540601379 7.5995106274887725 -1.3141350487075947 0.23865699451940833 0.09718975637913584
P 0.3806637965477591 8.991737540108181 9.911371640960304 -1.3681608681047468 -2.3036585531108322 -1.0222845008843424
Ni 1.2287979609619515 8.5382403163404 0.05092003525064535 1.1035894677124218 -0.931349467165667 0.9682972480346098
P 0.4273139023492769 3.6952592974647023 3.467737260927201 -0.15196479523748666 -1.2109343102476886 -1.328865155828918
Ni 4.524166364098814 1.4313322195407523 11.804061322692636 0.5432067350768839 0.08767873156490708 -0.8987540497281491
P 5.207382665423688 -0.01522294683855465 9.533024439778119 -0.8346227664658789 0.31873605936018656 0.165803758003108
P 7.083217943319241 0.6254310876685129 13.30822880875104 -0.6038027514923858 -0.5271481389521244 0.2864445463163325
P 1.0708942593864161 3.8041457171883093 12.975982683027677 -0.32020287371370015 0.9761524824129705 2.2970387338014695
Ni 7.314279708146574 9.449115681876245 9.208356220292277 1.3269687101371535 -1.4380941027607748 -0.2812686585423479
Ni 1.671710026866398 3.055211311526873 11.21244112371617 -0.5888764691998568 -0.7915313345930433 -1.6833513762055203
Ni 7.019973694295656 8.48104735652105 7.001294707209454 0.14387713313334577 -0.2699604326183802 -0.40106843901151573
Ni 4.886756302480796 5.448882444303918 0.4730379217938548 2.085315587558428 1.7354642948506758 0.6901684206728244
Ni 5.790752694878696 8.406500623558248 11.490147476452131 1.0669108813444659 0.6878600842546218 0.002860866487562815
Ni 4.670372132744584 8.936880488279522 6.565285525312148 2.3012622849645146 -0.07818364759027825 -0.3822826737635804
Ni 5.771955073095331 4.914410142354858 8.34925892235169 0.4200105273316573 -0.913782147705865 0.41800455264522207
Ni 5.925996249646886 2.074534600914831 9.478470872058487 -0.20562577509605234 0.6807689817357954 1.3365499260676852
Ni 3.781053335437804 3.1107213140143477 10.228650482215748 0.24127309198601676 -0.8715036986526281 -2.3966957207741753
Ni 7.233203468595619 4.382742769292258 6.48530550714895 -2.097057815696021 0.4575609747816055 -1.6790128967311664
Ni 7.0988519731782045 5.057240799848721 10.480769445965477 -1.9371758224939863 0.6215557046004327 -0.21897648537134545
Ni 0.70089103190484 -0.17679604718687014 7.563396938163382 0.23754936327752638 -0.15136547109059093 0.3210235698427826
Ni 8.157680440108761 1.5618211899341867 7.2675872984995555 -1.0658045356541646 -0.6176067472550137 -0.38022887655834514
Ni 5.915328323390182 3.5887639646607012 11.92168808475622 1.3241731496698872 -0.0023134786245250483 -1.7357298898072366
Ni 9.25543764138814 8.946472425422403 5.156737605168798 -0.6968206358820193 2.1995432732564573 0.35481223625745345
Ni 0.39386995353450743 1.799715945458703 9.432976764817717 -1.2272531020123703 1.4565605369960786 -1.142281227855665
Ni 6.219759670696818 1.217973694406657 5.43328612004638 0.8941240071553053 0.9051332137816153 1.2769805511444847
Ni 7.862224865238802 6.328140283572047 8.204254215058615 0.6244458816640343 -0.4013954833336313 -1.0352135502411848
Ni 3.778901357210159 4.067367601084347 12.18378063990715 -1.4410063913115634 0.4336458587269048 1.4912899700574638
Ni 4.379652749273075 6.625867391015633 11.998342652803533 -0.3628338210103493 -0.6514149540537104 -0.5852033912236437
Ni 3.312133601038564 5.463615218323954 8.163645282324364 1.6512524387884466 0.6066983278726261 -0.30016498122621854
Ni 1.529587498960264 5.149877025007158 4.391079385802346 -0.07086217422820054 -0.5906937249142538 -0.03626669564151819
Ni 3.0525903124034586 3.441951227796878 3.580034658106508 0.0182993125298201 -0.9645786615324421 -0.47169638574172307
Ni 9.068141963677752 2.513225478757357 5.185312933155723 -0.48299998368000047 0.5110234654761199 0.791854522260417
Ni 2.486123428172436 0.3144472425533405 2.0800534134550452 -0.09936439543295145 0.19994852220561693 -0.34089331218351615
P 2.2665756665118213 9.071728594057161 5.567118933532001 -0.5673447657756681 -0.8944968171136917 -0.4012702706096767
Ni 7.433512177041555 3.7177539074853057 3.457090486593246 -0.526249538397255 -1.2908997323287381 -0.03748694120186447
P 8.09638584657347 7.995417603149021 3.49843973662376 0.06442953122897936 -0.38521501691902693 -0.6042580938622497
Ni 8.127653906291398 7.0613027120522345 10.354312215978023 -0.2773616101784578 2.5077025855420616 0.2441316444807344
P 4.705272805282683 5.057516694493291 10.467646057372098 1.1638021326465764 0.6862999388563534 -1.2063263791620322
P 2.858958254356115 7.351065660755901 1.4330712754503583 -0.6454625931250173 0.16331801546677677 -0.19371051171570508
P 6.719837106956159 4.508477155310937 1.2516825020802136 -1.1873920041513744 -0.0916711405537518 1.2858477717271275
Ni 3.2427369014410687 8.685807165232713 12.064364241249123 1.080795609746358 -0.2337508154670426 1.235140475180247
