# total energy = -340868.2296040533 ev
CRYSTAL
PRIMVEC
9.27686314272993 0.00000000000000 0.00000000000000
0.00000000000000 9.27686314272993 0.00000000000000
0.00000000000000 0.00000000000000 13.57762692907836
PRIMCOORD
 96 1
Ni 5.280975027611374 6.885417810649119 4.627024814385858 -0.018447922292542423 -1.0307115486057732 0.3792562282324307
Ni 3.7206530063855174 3.233237332214301 6.560682138834802 0.7035494699654207 0.8791182777750925 0.5540565333071943
Ni 6.9913874200219475 2.0233024374886406 0.9656231338398095 1.6994076583374347 -0.03783455434927032 0.11616912569511605
Ni 4.375933521806961 5.138185547836659 2.3901921760971567 -0.10870418477663858 0.1045035164317297 2.142302803576749
Ni 0.972864653324746 6.206945137000233 0.2876133756691437 1.4927966365099774 0.35217582707587086 1.132298148501024
Ni 3.0291556166761002 5.016556593228661 5.12590761927105 -1.2289184055299351 0.1241194908904443 0.283398303290841
Ni 7.89252336638086 1.9372409767382484 11.238704653790146 0.6246469419312468 0.6136536761445367 0.858714774418076
Ni 1.9468518071077001 4.148409172732462 0.9641444018312277 0.6395349147866728 0.24204930803040894 -1.04498914157071
Ni 4.113518889895098 0.6992983040507995 12.07704180178712 -1.4526547741837692 -1.3596677430320712 -0.26037561714342256
Ni 3.996148015537658 5.367658038202263 0.120242991232326 -1.3075427402020579 -0.874348881410907 -1.8120718562030853
Ni 5.4743141354586236 7.0550545327879215 11.904795498004566 -1.3147032625062391 -0.5105406123024304 0.7265263904765681
Ni 8.616424839565658 6.681382479427373 12.527818504390623 -2.2290420540465226 0.6395981639244405 -1.2538943587489826
Ni 1.5908243477265893 4.002493390028687 3.330388355342728 0.02445273372572563 0.47297808066762415 0.43464113276063854
Ni 8.342952186610953 0.5640045298151927 2.822584918716931 -1.0345874866214118 0.257007472002138 0.06232971127715717
Ni 2.8820431186077893 2.5404597353707294 10.876983055721034 0.12943936044146093 0.2592142498454697 0.1538895230640253
Ni 1.6204732028045514 1.9887739523196246 12.951291542956122 -0.5383761464574599 -1.0516390427870599 -0.20469632130324747
Ni 9.129760069771866 8.97938211582513 10.7369571535207 -0.7152042805955295 -1.3035852982162066 0.3684097724362301
Ni 5.538129678037254 2.4523666415596126 10.625402872446703 -0.680046501747474 -0.6050361096788548 -0.3342210423696631
Ni 5.148612742175717 8.929491145046256 10.091503619383388 -0.02277508891298658 -1.0022016140915384 0.002477000785582831
Ni 4.743473568532174 6.112979788725928 6.706397541291492 0.19235862567350098 -0.23424678126685466 0.1055952068340117
Ni 3.748520703711612 2.7490592833316354 13.349767145697756 0.8405568725621266 0.44365439200284235 -0.9397605740474977
Ni 3.5180648658371645 6.876020348135358 10.42092410715965 0.015883246889159743 0.23322708175308868 -0.3147130542437225
Ni 4.942768422612231 1.2497140845173693 2.8588370450854104 0.8923733430127857 -0.18465560060228844 -1.0071934108791751
Ni 7.151635956510282 4.2933508847906845 10.933139619966635 0.9723292520121383 0.30074990719541106 -1.2628939911444315
P 9.021192938677563 4.282172264525057 9.44277813556335 0.2331088110076695 -0.936544123992729 0.2782599536230111
P 0.9203501856071841 4.522582176710723 6.582826939196693 -2.4370193600938865 -1.2144533791445409 -2.2972665335415594
P 1.9062284227565125 0.4416927980689788 11.298893870508333 0.08664746208691528 0.6130062723685249 -0.5011476011233047
P 8.805570805205386 3.164208192466142 3.239648572434695 -0.9449768281411144 1.3974948411821737 1.382743136794296
P 2.427040804775246 4.404960827044428 12.205363085573229 0.31415152531329765 0.40018320819308495 0.294707300545757
P 4.892126025906788 4.414887070765773 4.767023813682648 2.746825206843979 -0.5176800515606892 -0.37019128981668503
P 5.844609410581258 1.6923688933096224 12.718489586355389 -0.5570624100130536 3.407845802308253 2.05715917972887
P 3.789079150019763 3.1668613753673616 1.8527890517688401 -0.14921242930333015 -1.8950986908182783 1.547560619624735
Ni 7.115734495574201 0.526469413253571 6.4668475943329 -0.1651291005335866 -0.1888614111535199 -0.37437807420452296
Ni 5.621287480577571 6.765634951836025 0.8383816769407706 1.1470670792800823 0.3086730186972297 0.12073489068892754
Ni 9.231443768304263 0.4459972626359921 5.4969969938913925 1.084417008549029 -0.630221864915863 -0.7622492977994744
Ni 1.253007370985666 6.367434871934133 4.82939865939219 -1.3753301321596765 -1.6996693966392535 -0.9731131813660143
Ni 1.6602895000494242 2.976472310046643 8.087119489204037 -0.02577762318473625 0.7812407513003127 -0.30811328953901773
Ni 5.437494265056737 1.0935288141504824 8.351679859595103 0.30772222474818617 0.31840438705238067 -0.4435762304667393
Ni 8.534742058288607 0.541445053664195 13.337044855380514 1.5688817497000143 0.11492856841979562 0.19354673244433118
Ni 7.190218430937455 2.874463921299061 8.630686161502878 0.5553127743117985 1.4292538787613256 0.3847876995736212
Ni 7.141060332358568 4.699093054548141 4.847444013865798 -0.15020513223390258 -0.23812014817933186 1.0072250354480587
Ni 1.1132978098235542 1.586492052569703 3.5881320865875836 0.8116011087597248 -1.6940587353206955 1.6950784348344612
Ni 3.6867646247835792 7.837910472186879 7.986455317947318 -0.07304092704707421 0.06915727572195186 1.576411482418156
Ni 0.4838691293350761 3.6258434635517336 11.51153349243246 -0.7463696504547404 0.44578069431722583 -0.1832173254938651
Ni 3.0400002698632527 7.832093878903437 1.5355620731022401 0.0025916719865761817 0.5830202675293958 -1.4064831607237132
Ni 6.078553349053113 2.7265814435775986 6.51491195072978 0.37925597112211457 1.302582310872989 -0.8714705314218474
Ni 3.134475845618561 0.6833226177774082 9.238923703175779 0.4121077275448129 -0.06798433845977324 2.007106228936537
Ni 7.436268676004035 8.162851162679926 8.123630440058335 -0.22243719022643627 0.21992779354102124 0.9202479579358668
Ni 3.283388055165322 2.4267161145600613 4.206525010505115 1.874339861004372 -0.03802250199036032 -1.0059086306294804
Ni 8.56286950778685 2.7511373007088142 5.828481583749895 -1.4092015880961408 0.7955455979587589 -0.550567032096697
Ni 0.435550586884023 7.488794275957545 6.694367304975753 -0.7482642963742919 -0.2715725143005065 0.8303058842580796
Ni 6.795747650078535 6.01280821890996 2.9072140317751964 -0.5434381343613995 0.2525255249713844 -0.7154935297011742
Ni 3.411937549788389 7.0450911816134125 3.49947032105673 -0.9508993642731365 -0.15832210491408216 1.791530284606308
Ni 6.552647447538487 9.057317044332628 0.9180550896289964 0.5214266630873149 -0.7948853386669407 -0.04449859663300723
Ni 0.7793604173109173 1.6843815140160912 9.73162811710918 -0.4543535235879014 -0.1582999934268951 1.2454102325373713
Ni 1.569209256258613 2.662478318236948 5.605835937080119 -0.2333324969827014 0.10247054516210094 1.6819542387476776
P 7.2594794922678885 7.402621492847661 10.998733537238143 2.1621082683384505 0.3389984091536484 -2.6012966541501394
P 8.778584409891936 7.650953846283822 4.593541831709735 -0.5158208868647632 -0.3149963898120962 1.5010185101991376
P 5.2355091206222975 8.679553894260756 6.778209740026943 0.5515869887207792 -1.1873482953976324 0.276184302040905
P 1.7991084823356023 7.439719669148278 9.214741703635188 -0.7090549731646821 -0.42313673166546484 0.0081586245513924
P 2.212114436049893 0.18463091627600928 5.088596075114742 -0.2783340013940562 0.8604332997710794 0.11686743731372129
P 5.2394981718374165 8.261826017131359 2.423348613185437 -1.2756739165179192 -0.006972317552775088 0.9784898722968954
P 3.748158906043264 2.6773769606822566 8.80150661139761 0.6499504536930419 -0.7695653718449134 -0.0940650947072251
P 8.959603843288768 2.854258913051313 13.514586392729557 -2.2028047176165484 0.36363729074825113 -2.979534982641017
Ni 3.410100730856775 0.9876705271371452 6.809003360035013 -0.3990048716142676 -0.775259336905897 -0.11505943757070507
Ni 1.4426079029266516 6.643328786207785 11.562584998809035 0.24150243438800345 -0.002428406935834527 -0.5495344770671245
Ni 5.654081192311174 3.7509419650305573 0.8760206943712511 -0.6546578864710403 1.0475692435930604 -0.43060218680457457
Ni 6.472541733020901 3.3233806128127235 3.085664701726757 0.02689373906705046 0.2187412294320878 0.017852711910704738
Ni 1.5350332918946543 9.26806882457704 7.889769065669769 -1.3220656164085813 -0.9399418368203684 -0.7678105939373358
Ni 1.7962419315786904 8.516030625030707 13.174100462419819 -0.3121638054593075 0.8867408273173568 -0.41707407041115263
Ni 6.528249297083217 0.07527617948830286 11.881971631249774 1.740249374944145 -2.8772780961516187 -0.7471335252039585
Ni 6.874944231993605 8.244088654519011 3.95309873143588 -0.27905313894826783 1.7666396920122156 0.1076348629718598
Ni 0.6200228687977566 2.3740420847938952 1.6183172597757285 0.10408365528549171 -0.4106473409492024 -0.2300448273703651
Ni 2.866402327099202 7.534928117103574 5.836641512700638 0.8444405238872489 1.1742323268409647 0.07651885829334563
Ni 8.077021623511808 5.059768222438031 7.480580541199715 1.622964904697663 -0.9976193940374948 -0.6790447999558369
Ni 8.882485278750876 1.3084551828758348 7.711590207812635 0.09145233967472637 -0.15770401171410903 0.7176568559010802
Ni 4.275149679013788 4.69918582318105 8.711636070579942 -1.2006763799651063 0.3152352452957796 1.0239680592343525
Ni 5.1548746248971264 0.8415348827733735 5.234297562276496 -0.8298708536031901 0.30945694805110574 -1.6783366965997482
Ni 8.999837599381733 5.478034157638305 2.272595873961746 1.1582436647221923 -0.9628511373183741 1.3828117852487025
Ni 2.2948269491522435 5.539660360480266 7.523525924432634 1.8321439443626124 2.305227697370165 1.337111197887794
Ni 9.04472834084677 6.507014557010171 9.244775548539726 0.37315191510690576 0.5767961409965551 0.7460716595983473
Ni 2.8444439916894595 1.0020125577849954 1.5169740221261097 0.5567423076694734 0.8359422566082505 -0.24686884090623934
Ni 5.650852843885914 6.661465053941645 9.498649900105915 1.3838985905549779 -0.44724133802315236 -0.6726250124724222
Ni 7.7739001154791385 4.693397060487481 0.34794452839568274 0.46865991290824444 0.25201361833197244 -0.15331770972095532
Ni 4.542824292411635 4.600813964843532 11.233450238422137 -1.047007200442003 0.2387156156714857 -0.5158833646715825
Ni 0.9570104939604666 7.993242271130995 3.166045011397755 1.0319040262519776 -0.07536006209855409 -0.51604225884695
Ni 2.233469775345722 4.771434034491179 9.983520930676418 -1.1541702659837672 0.1723166194209613 -0.26577261978927774
Ni 7.370709083126701 6.7282399159100965 5.994386223786737 -0.33300542479500717 1.1870847573236007 0.07585551367773387
P 7.014839330421537 1.6589072474190687 4.38046805258359 -0.03491069583425601 -0.9248024100757687 0.776946751910649
P 6.088340439825093 4.96725934170041 12.591552410572294 -0.3231946093521724 0.22752643182388557 1.745884461742735
P 1.960655779684674 5.9584086925716715 2.3232809442383275 -0.34009035666624654 0.12214796898637029 0.2519323714720758
P 0.8825265585972131 0.23703591700673768 1.7431504429644296 0.4979617471961553 -0.839578053588625 -2.52889361779738
P 6.095993852040149 5.004209088188371 7.94071203274584 1.183454616770181 -0.18803608703874714 -0.10297782381582266
P 7.977926169837593 6.932980288741957 1.0413279044121555 -0.5490074009190609 0.35962199894127095 -0.10339408541763483
P 3.7793848278806923 7.453894716256891 13.136815821167055 -1.151966316353913 1.129202797405152 -0.8078277577602218
P 7.503776410172473 0.8950410471767409 9.464732760227776 -0.04459321322934256 -1.1533413423245686 -1.0301731596038002
