# total energy = -340854.1337156391 ev
CRYSTAL
PRIMVEC
9.38400076379459 0.00000000000000 0.00000000000000
0.00000000000000 9.38400076379459 0.00000000000000
0.00000000000000 0.00000000000000 13.73443366714135
PRIMCOORD
 96 1
Ni 3.8122877426127175 0.6969609785728575 10.299135745377287 -0.4214079218998162 -0.1772737063159205 -0.7133019213664941
Ni 2.809053632240923 5.642289833792457 6.87873981680374 -0.49691736509204093 -1.5591624655297212 0.7180057546000667
Ni 7.601453307972294 2.0643675038815283 3.1511464323811613 1.298030172725932 2.2712006896924435 -0.5703167039197984
Ni 7.763815284771748 9.578155479102668 2.312946862153664 0.6850483258374396 -3.5138888953129617 -2.0113048403989167
Ni 2.0124082930655205 3.1490453546672903 4.930634448823214 -0.455214586036616 -0.9255876249812252 -0.7516021024982733
Ni 3.225731406823407 2.271472395105892 0.8255959191444233 0.22181395482014057 -3.220003062227235 0.7502712995019918
Ni 0.5819619291403096 0.3871782305837116 3.554210837425848 -1.606653569132149 -1.5091627365728268 0.002096477517712518
Ni 0.6539850714437131 6.445776109338615 5.616792566010594 2.5772254721335486 1.5053451625989493 -0.15924204562519026
Ni 7.893445867797274 2.6683405446147637 11.447087096392252 1.8898245869035324 1.7952054194650502 -1.5300964014017002
Ni 6.20152934410129 3.3179198278196984 13.552026326472626 0.577581870122644 -0.6781868228309159 -0.8631280729944232
Ni 4.549569894570842 1.3442580728541054 8.04142874061743 2.4845359176176114 -0.014748619064084275 1.9408015921720319
Ni 1.5275088347856587 5.056765738059091 3.723473808199312 0.1382764991171167 -0.3173322370341245 -0.2623623085561481
Ni 6.828962386105977 7.292851067247128 12.134302790436948 -0.6252030715450329 0.3788502510432637 -2.3461771431993332
Ni 0.8705396511802171 1.4610794951854198 6.79299538895669 -1.0696989856125643 -2.322761849599187 -0.6918609778838988
Ni 5.36376331469729 5.117320693340958 2.3068904282254263 2.19673382883212 0.1850921739190748 0.3414831232487151
Ni 6.5028496004318 8.207941260841828 3.5982433830122593 1.6994392829063183 -0.5619588188734064 2.716527327191386
Ni 8.771769547399357 4.602983625465681 4.653061344179719 0.19917667703659891 -1.6979732398837533 -1.7462210191465475
Ni 4.220538684738497 6.747828317708793 8.579159183360547 -0.08852848115971206 -1.022115065186014 -2.6342813366062763
Ni 9.215651539456216 4.864637711646421 7.775351036596946 0.8861430458323578 1.694540302942804 -1.5694263093495746
Ni -0.2553255162377537 8.666162005675798 12.30543411571167 -0.15615003696342789 -0.6506731907916793 -0.7816030197357378
Ni 2.442017220348828 2.5516974182931125 10.53648057824055 0.396072271348505 1.7531190318179615 0.7425047681826954
Ni 5.242249892111686 8.00312606574156 1.9538192858902002 -0.7591742584185763 0.48530806298788676 -2.5344525999423966
Ni 4.381671357471326 7.180393205152303 13.720794760419288 0.36824136517916584 0.16699135055330597 -0.9873632635271251
Ni 7.918792053170948 1.9992706923535082 7.5954991596495995 0.029696241512852082 2.4333629942882222 0.3432451002451443
P 5.491160505601774 9.195128730343951 11.022967809406463 1.2646600819059188 -0.8141457295584495 0.3605519669547081
P 2.8907882766706563 4.247874278219991 8.999899291763196 0.28744084879133075 -0.6998056866522723 -0.17707058916617893
P 6.551871619088622 0.5998797397113926 6.394229794544985 0.3706792851966971 0.23523357066015618 0.2764966910750012
P 4.131606511918683 2.3339416864915106 5.1458527468872965 0.051690229285440016 1.4238705029622252 -1.6580792319022926
P 7.061460382706557 8.171090290844635 0.23738330726534845 -0.5671457623909846 0.4568474936543487 1.9499626898460096
P 7.139178674918618 4.700183102733553 11.82148807188348 -0.0678023043559542 0.6321134255116211 -0.7936458098328848
P 3.337016268854659 0.053082475676885295 13.611331332886751 0.8928993907195848 0.14554963573976223 1.1166373020353155
P 5.996807989006107 2.7694531500947153 1.872305165472419 -1.3336309526486774 -0.04531363633513486 0.6086454242966679
Ni 4.4270711519318375 2.1492551724821447 12.296095158405532 -0.5984733688596725 -0.5290528121740049 0.12531531097075838
Ni 5.871653574223172 8.150342265720164 7.154444566945977 -0.7123536985206118 -0.8400873891248758 -0.239322138907233
Ni 0.33336755646736044 5.5166568349835865 1.6891294755449344 -0.062006009389151275 -0.23538680840856877 1.4957161241496175
Ni 8.9609134616503 6.752379557955454 -0.0515022099912404 -1.7305059224041361 1.5550656697525282 0.3803746581075901
Ni 1.75036007886342 0.9870373254939853 8.975466169639006 0.17075518847111237 -1.2109199120699854 -0.08564190364053638
Ni 2.1975827751013326 3.2062502217675948 7.081899674214297 0.5377189724894351 2.3805340234126486 3.4906494651690467
Ni 0.11920589686054442 7.400870297101393 8.090693804887426 -0.13351738716557648 -0.19450961057823277 -0.26992186607096097
Ni 7.5957290676620595 4.228224181155023 9.213126304919356 -1.6846891211803372 0.6191213841273272 1.4145697943865896
Ni 3.03788248464265 -0.08389390294675733 2.3833503259692863 1.1078572418498405 0.013276919614564233 -2.846754473641465
Ni 8.674288550116227 6.701208603182167 3.382584975324324 0.891262112226478 1.1788268881901827 0.5525431819864614
Ni 2.706223754667902 0.505154823377632 4.364459223738489 -0.11402713965144878 0.7465511703379273 3.404587957492588
Ni 1.9083678794268923 7.268086689904984 3.297926276336118 -1.286179186924617 1.2582631772406394 0.3211199862113308
Ni 7.915761021006677 9.294111167708454 8.071946448671383 0.5553240871657081 -2.6157663085212244 1.2883597395157038
Ni 4.134543704077869 4.23261589339304 0.6480299847209682 1.0414767575420774 1.0911982931369206 0.004474747941901971
Ni 6.023374094445897 2.96399286463809 4.354570364002547 -1.3882242145135253 1.0287852781173379 0.6837139232967322
Ni 6.724931356467857 5.643631745865184 0.014306847175381289 -0.8854771301135845 1.5611800101803823 1.325192849183653
Ni 3.220664046548774 1.2280841465578833 6.544676905898694 -2.70401891031173 -1.9371539681171153 -0.8712028795827577
Ni 1.712429948807739 4.956225556610163 10.899893827536282 0.5108866827879395 -0.9146200702261279 1.8131740881283287
Ni 5.062949794394244 5.368145642934797 10.174028250596896 0.795857472772223 0.027133108771366175 -1.8256601364104814
Ni 6.059174056386131 7.518564431480006 9.52198660565851 1.9802716252421957 1.3257248104277233 1.534716673782531
Ni 3.9961390805768198 7.506721822838178 10.948169818152673 -0.14439752441319004 0.0415557119545994 0.40376398356580784
Ni 1.2256161544241269 8.000170105581356 10.289260961642109 -1.5803288151946913 1.8685983305349043 -0.6261579792591345
Ni 8.295615977593494 1.8685327972679695 0.7583032514973951 -1.494985159520864 2.6866984167554113 3.81717725265951
Ni 1.5566086203627656 5.758829736108513 13.548455714279111 1.7936768986356657 -2.1796056537922652 -1.563536940448333
P 3.363075638266986 5.883280350853304 1.6265691593543832 -0.9442921433692641 1.0092893741762554 -0.03881440176403638
P 0.7541254944709752 8.844786455356621 5.985671995602575 0.418534457006763 -1.0470331685839322 -0.4517831917575639
P 0.16432792490600118 8.035838691514469 1.9258014755717325 0.7014529924477081 0.5170372757703676 -0.5894541960801978
P -0.13401478806313474 3.3531849017309425 2.6370111205168185 1.4287702542566878 0.7715338084251938 0.276156277016447
P 4.803219428317764 5.718928965946032 5.524703615419694 -0.979868754922293 1.4381766351722522 -0.8014043707323811
P 2.002254804515237 7.035729453312031 11.905184910819557 0.5409390220886298 -0.41009969597584855 0.5336152347337068
P 3.7020538886384267 8.702834679663328 8.514208762240461 -0.7744939194947823 1.5927202468805086 -0.35318344240477884
P 8.142985209321436 7.838493160819029 10.34083355163716 1.1238441041964 0.9621068029531817 -1.3395594023179702
Ni 2.2586444664106633 7.623665237176103 0.9164715184695643 -0.9540623353821505 0.7431025496676943 -0.052605542010857785
Ni 9.000673471805154 6.119325499646129 11.189910116854156 -0.19025289218440783 -1.0330515095928596 0.47904948367268463
Ni 2.108209554257615 0.44608441697622175 11.91045965750543 -0.7383719769612446 0.03528093468948117 0.17278276042410243
Ni 1.3091994469540502 3.514251886460212 0.8958576845523663 -0.30562497589952525 -0.11327277798392749 1.0020787153604291
Ni 1.3622284338280364 0.5740455863112714 0.7898100332049529 -1.5787630133694681 0.13849684265803888 -0.2800329863630338
Ni 4.121490559370433 6.589970661153457 3.4342401445238546 -0.1446762319958734 1.0338866038996453 2.904984560927952
Ni 7.911434996772221 6.23134231371705 5.961966133517799 -2.320266336870843 0.5582944826479417 2.1488560313142346
Ni 4.8691044958885055 5.363312882672878 12.267870900075875 -0.3255140015139684 -0.8644357360622531 1.4170465380618562
Ni 5.392037308229642 0.8603242282265766 0.6545415426738719 0.21592175770542169 -0.2475774369374898 0.3420888751535141
Ni 6.401746378952357 1.3899487713303824 9.604805102146983 1.5242782520580267 -1.7229252818434004 1.1812429538308429
Ni 7.250228936937156 4.008723025258826 6.353232973123099 -0.9679848590005136 -0.413189647755082 1.061882317781623
Ni 0.8671905013987048 3.430218161905877 12.420913625970257 -0.1525947155120017 -1.7548475844732938 -1.9901199787911852
Ni 8.14870944963167 1.2775190612370837 5.135771515140928 0.5825435850032935 1.327109863700708 1.056268056918639
Ni 7.48396562160487 4.3981402783638845 1.8631585801767059 0.6623092323687111 -0.49902284147081805 1.3140381181184142
Ni 0.4125047095563185 3.3638451263086897 9.354549761384016 2.2891307918083026 3.1885720974114635 -0.0799376541669075
Ni 4.73907040084111 3.9893169122070824 6.620724846020227 -0.40690201497415734 -1.5026419047351733 0.7152227925382908
Ni 4.968349685267248 3.1144934647946982 10.17904212206863 -1.43752460341055 0.17632085548434795 0.5060584081613606
Ni 3.684684103697045 4.0793470130864 3.492433146877713 0.015361570057734832 -0.920748551721369 0.3927123537373366
Ni 3.3781838790858 7.456752020129988 5.773887303324582 0.43082021635265155 1.4312315713129866 -0.9795625365357841
Ni 8.040192867750449 8.421417888411519 5.41412724542684 0.4632521116291119 -0.17698779964438552 0.6143779559050709
Ni 8.640327852275675 4.321125786189968 13.605027161345086 -0.5891796022625724 -0.04307523392291936 -0.6285246797190982
Ni 1.7151700769562443 2.1849894464188178 2.8283180468849873 0.49191014168543673 0.45811479040254655 -0.452425196216937
Ni 2.20401081544971 6.2644866035133555 9.285300529630948 -0.7129301398493721 0.7412210163742653 -1.9854819657985419
Ni 6.685302722320123 1.095779123387412 12.217135362926184 -0.9036877395843405 -2.2186185447203535 1.4213971017210683
P 9.170064064985533 1.6241358880225085 9.712633836790925 -2.6035571680495417 -4.047107665939198 0.24813150966874684
P 5.992275516760462 3.026734292038457 8.3547379959977 0.2930916193192049 1.0895401887082075 -2.255493820480148
P 2.908223749615598 3.623256436367879 12.871004072763592 -0.7050419953505471 -0.27601435212194403 -2.3651958503936816
P 8.933662324173383 1.2758862451485906 12.847848113108618 2.568718720214118 -0.6406152923350451 -4.315330032820548
P 6.93679393595007 6.240867074233259 7.989786709018611 0.8055258490999223 -0.5302193216782805 -0.21151951487266796
P 6.872532300467314 6.049705599872973 4.093520607454559 -2.130360286502892 -1.0191909495606832 -0.7306427266377868
P 9.338581946118616 3.2698455932142427 6.298514866157569 0.20185088143465238 0.6785313506545282 -0.4657239702083721
P 4.657861260439858 9.192163386183239 3.8707613265817824 -0.6258916129716252 -0.9678390774512686 -0.23413930915471287
