# total energy = -340867.58031267865 ev
CRYSTAL
PRIMVEC
9.28940262087754 0.00000000000000 0.00000000000000

0.00000000000000 9.28940262087754 0.00000000000000

0.00000000000000 0.00000000000000 13.59597972285930

PRIMCOORD
 96 1
Ni 3.027592830141964 0.4760846738687364 3.682062832501826 0.751791335690944 -0.5409163963808103 1.1827179957144727
Ni 0.7708662178664105 5.740609328128001 4.081104916352596 0.2102941271059991 0.13155743522572824 0.14783868888425508
Ni 5.726182885775114 6.515317642940421 1.9780789028422667 0.13081284375021987 3.588783587739323 -0.9779823365328577
Ni 7.477272447454798 1.4775816787459797 6.423176057815964 0.10483647429111621 1.74165165460831 0.7375875333867361
Ni 2.100510443266182 7.038106646633762 11.98008373230245 -0.7711165183821171 0.9032262265668897 -0.9929266165475158
Ni 0.41401195626009246 5.191782128739143 11.780127481861781 0.5681574914849505 -0.5700806766495924 1.1348504826092327
Ni 3.8562075486722223 2.6825658360203177 3.0436235523366686 -1.1463636254551548 1.1366194015841973 -0.08747998529053967
Ni 0.457774332257806 0.5701640283910127 5.7403854535235554 -1.6529563088534307 1.3174911096640214 -0.8626701595213981
Ni 4.977884342765177 2.2899027849858555 7.533396231590944 -0.082829888113038 -0.6585410235755305 -1.2507321589709168
Ni 0.04438197915607639 3.154876225582565 7.5903634934899 -0.24737200579490298 0.9318729437693047 -0.4111309654538403
Ni 6.998868209738338 4.486837228009258 7.816124775618967 0.5339947295603126 -1.0936421266917231 2.7679946418327424
Ni 3.232674972978203 2.7517533071370597 11.60136779044289 -0.7373144822310076 -0.8373815601579385 -0.3264575963741604
Ni 2.2995916319749483 8.918709060395832 6.547089257966399 -0.6019410156932988 -2.427336071367852 0.8518147048641329
Ni 1.0165021770167266 2.2325314340705766 3.7946383166885145 0.5860166311535585 -0.09929240454443544 0.5909639478565047
Ni 1.453001919270295 3.9436765642516045 5.70419301176497 -0.6863415907275664 1.1586113324742564 -1.0274639882027532
Ni 7.333556098683704 4.719611080217007 11.826571708411509 -1.519196723770061 -0.600467773581882 0.6493205334185269
Ni 1.7695290259877838 0.561660509183136 11.85147938380159 -0.06078704938038564 -0.2414906073134615 -0.6333542398972576
Ni 1.453707913873527 2.3913523515897674 9.790302129338109 0.5693070317083615 0.7290897803283701 -0.23793580008266763
Ni 1.335425949624135 5.742875942380484 9.771267214318597 1.588637592170703 0.06096625527072726 -0.6416563320050498
Ni 8.624662308149679 7.069068225746557 8.93246387893538 2.024758137690345 -2.711941250482601 -0.963358673082412
Ni 7.114586298849676 2.2788948428170404 8.563863167647655 0.14112168187539567 -0.5562311723610098 1.2324328464410967
Ni 7.296612144248784 8.307224839970127 9.919722087393755 0.41685964040750145 1.2436217731783807 3.1579479447677032
Ni 2.763615874351893 0.6658095762041432 0.793092971644744 0.8239984539828131 0.6479035984663423 0.407081477974815
Ni 4.910870591874176 0.8862954065545847 10.792379721882483 0.15805805261941813 -0.4423531566929156 0.606558202750336
P 3.0355074012203023 7.574346705399206 9.573105676474569 0.8213761858686177 -0.405004026620496 0.3926745585208657
P 8.378465269077847 3.0224000540471385 5.106500767489512 0.6678900688905981 0.2121646046558346 -0.9162082406488543
P 3.525672022722181 2.9188696612442273 0.2746458347612819 -1.1405043384609002 -0.20683110825806314 -0.49042070162410384
P 0.7164953440148679 1.9532919896869496 1.6332581334599854 -0.24567353504655756 -0.294579516718641 0.09726020460575507
P 4.007949941353744 0.5985868137529748 6.386303631781635 3.47486957662697 0.8319650171280575 0.01909224074476067
P 0.8250345827396576 1.2275759845777638 7.845627918511926 1.8143133439390948 -0.7774882262364158 0.6035117026145284
P 0.6975802622898533 6.412316746089934 0.3223580647760253 0.18296252917058167 -0.5649382132167045 -0.0953133652920294
P 7.1458265600426945 8.10305305859595 2.84838538951418 0.8604893498199955 0.2486287610201396 -0.6595797492526899
Ni 5.0791109637049106 4.941915775611038 3.451244399556976 -0.1900981117740984 0.7597329591355239 -0.1467598539977795
Ni 7.542920656152706 1.1774132101375914 4.23181711427756 -0.09737076204169037 -1.0734142296806222 -1.4491403332726074
Ni 2.6466994522955942 5.1623625904702495 13.187515647181414 -1.0045724283165602 -1.4082662207660652 -0.511867301533654
Ni 8.696172129934947 1.2890439620723235 10.197202118910905 0.6726049578677642 -1.4839777526667668 0.06581792693607375
Ni 1.245272296671936 8.634583390205623 9.412496548940611 0.3102275076685432 1.2612556842100602 -1.4412539885459952
Ni 6.345321574004282 4.209548558187193 5.779338705756884 0.5734387944885478 -0.8533856488956787 -3.993772959071799
Ni 6.396803443624178 3.169646375834393 3.3626253559265393 1.805020862893575 -0.3942197915207985 -0.5830169250952862
Ni 1.0572083395346594 -0.1807810654407775 2.941871151205581 -0.45477004230002965 1.7812178469367066 -0.3329627444825298
Ni 5.203384592679101 2.09844819587253 5.076262832845029 -0.19924352571879236 -1.6121726991781653 0.6304689479296626
Ni 8.04981549187065 6.8198428414029655 11.709904242346877 0.402676406928584 1.339640649177867 0.011640669562721886
Ni 8.369705362356164 9.329254211577947 8.030369985252943 0.16929017388981168 -0.3157150131456756 0.059951955073599975
Ni 2.218838854528945 6.212845402468855 6.086811431687922 0.21803314762146966 0.17997413596621908 -0.08367680949436557
Ni 2.176553493556414 6.559981090997524 2.275505139781259 0.9850096756932843 -0.9230250064603717 -1.228774166642587
Ni 7.014019225499804 2.44884446473981 11.289598715775078 0.25008374829911123 -0.580839200717677 -0.4776184076531129
Ni 7.608318050978411 6.049584150471442 3.739343147270899 -1.0346592203996117 -0.5561918344826421 0.13594425143951427
Ni 1.6937367895697528 4.08332415465144 1.5578681281777431 0.25058485630524585 -0.11628636799927071 0.8661594036215793
Ni 6.383742543464384 8.786093547820293 6.776984324285443 -0.8350711668572068 -0.09906434769402939 0.3835790239775007
Ni 4.020945815694819 6.950228897336718 13.710593551297919 0.462186646479075 0.37841650593995474 -0.7409909026413303
Ni 8.718002226219097 0.7855769159411249 13.002501400942046 -1.0252093878406214 1.0661938006727831 -1.3752967078185798
Ni 3.9838903884278096 7.030572941065062 3.737466687930729 -0.3273271434633072 -0.17024456738328098 0.8939728262894215
Ni 8.516059901486704 4.983848139281953 6.103711641972923 0.7592102538628344 1.556950288369751 -0.5381730293077184
Ni 5.201136557231967 7.632600549568525 9.693647752394568 -1.704155457435065 0.38626582678104443 0.017142573217557574
Ni 4.726364475961082 6.720752783078277 6.100679580940095 1.6947287648045262 -0.02931160447992371 -2.81379755909947
Ni 7.383616689694461 2.618561851595727 0.4136654615403483 0.7988222118275017 0.4294210220122798 0.07850760658860027
P 0.6547059531877841 5.550752516274621 7.749218781798985 0.36068463587783045 -0.35643100280779905 -0.997220101716547
P 6.298029224990408 1.1613146753033654 12.879893361867323 -0.28788179298349126 -0.5052379691425944 -0.4071102743302214
P 3.0414526189317304 4.2564321734834065 10.167590290006657 -0.42304545750323913 0.4888762399551194 -0.2588512100790961
P 6.876610381144428 5.6018813885929015 9.788071743756054 0.12455246466280485 0.44778204101797076 0.37138865255889586
P 2.571055846320349 4.398848005880126 3.58278512824312 -1.2854541358331346 1.0367626398958598 0.10900526095682518
P 3.4807763395982265 8.614583306248273 12.365448099655865 0.9634345206256697 1.6232505542588815 -0.039634326562170454
P 4.879909012761381 4.525657641784347 7.1385148711979065 -1.6646872241371136 0.7437165291026094 1.737428874776214
P 1.9671889360874122 7.777115786969593 4.4569392855026475 -0.7223879428281623 -0.2024556048981868 0.533883657903745
Ni 7.745671158917743 8.041956657208354 0.5184294870183813 0.07241434920666884 -0.628126415839415 0.045004075514516045
Ni 5.256872973276603 3.3101021442668768 12.503570370136615 0.30283507185921393 0.44831708758583433 0.6076750899635986
Ni 4.9632999805668305 3.3527776601517196 9.551203122849559 0.1248597114905785 0.41839356055352456 1.2957730012606392
Ni 4.445090652391825 5.883303842604944 11.217512951024016 -0.6299344155824312 -0.7114113892120005 -0.08661455196645083
Ni 2.825919898087122 3.8711634869775327 7.97348447009752 0.019581007455721115 0.3829537316886759 -0.15648376615376275
Ni 8.27071748746089 0.7207907638113745 1.872546643763085 -0.40937901575974006 -0.21602100228744733 0.03317108743532997
Ni 9.325724238561788 7.325669395813388 2.314267030319501 -2.0015745004850305 -1.5656632427627164 -1.4075229148421373
Ni 5.1713175746480875 8.74190385929957 4.772841215420169 0.42021235892981823 0.5930012900015078 0.206990773764379
Ni 5.362642112123974 2.325741300502557 1.2873124174138701 -0.8093804469593222 -0.2599737537193135 0.2501778506748143
Ni 2.4142042821680687 1.9979182801333548 6.060883779884224 0.5907461754187439 -0.6441875830673357 0.4713991662162784
Ni 8.444698710144223 3.8695285521068903 9.807786643051312 0.5515558783725275 0.7940160486881099 -0.1986254325188192
Ni 4.016180352123002 4.116496611600673 5.13728213219043 -1.7931523935907634 -0.04742142670675704 2.2251815426498514
Ni 5.611003582018873 9.29014582631996 1.100111445785018 -0.14779909389557128 -1.187471194128742 0.5147253398077394
Ni 3.6889239853169205 6.397007810483007 7.871460818408348 -1.1345928580724718 -0.6260854741499863 3.09092725577278
Ni 1.3457000289816963 2.659212277697615 13.221288199543393 0.3565374464786763 -0.4071807225568407 0.491286906279141
Ni 8.724467650480275 8.071580562336079 4.520527104687439 -0.14679327833887623 0.6520353612465287 -0.9835328340374416
Ni 4.409623712982089 4.6809857438980735 1.1015940344518054 0.4303970127723039 0.0467025462628615 0.1613081841255996
Ni 6.324866309315899 6.640195083088429 7.888550532507901 0.2979340350131708 0.7095504247438619 -0.45573369176487966
Ni 0.28182282726729624 7.638434294447863 6.639215980046579 -0.6650955368645965 -1.4405052833054288 0.9863294229459723
Ni 8.64547985954235 4.4888808965975615 0.34260246002370454 0.8389900422956389 1.2737494458016967 0.5406520869758302
Ni 0.9048194044270195 8.70929805591346 0.32690987208633726 0.1286772854644558 -2.1204509978089803 0.6797688226060551
Ni 3.35121704050247 0.9431158958912891 8.770005231329009 -0.5670974256515523 -0.39096451780829444 -0.13590619911272722
Ni 6.203797524264276 8.232575200081012 12.291595490516189 -1.4477470524695066 0.5890412769124953 -0.21403096844061206
Ni 8.908044826125957 3.961428612761821 2.9100698100910463 -1.2062744428781742 -0.23047934380462243 -0.14211129948217463
P 0.06756182564877317 8.501847115395323 11.095298782622674 -1.2735717825732518 0.4873004108275672 1.524349214505278
P -0.02785613179884176 2.9938537196296107 11.651401442185893 -0.863099790859649 -0.3802131928290613 -0.5177870094521986
P 5.877702332792458 6.089444977346031 12.905208842034797 1.0172693070579384 -0.07276273368502308 -0.10998896502633317
P 6.169213078108579 0.40072067891398155 9.014284008748639 -1.7340162495502396 1.3832758693693143 -1.2363131553321094
P 3.8113304443536156 8.080712045164725 1.8895694741633842 -0.5231274478285056 1.1827989854640533 0.2618097784867879
P 6.651379523908053 4.726299450142363 1.7045691620280279 1.9862216721780437 -2.6938082883273156 0.27342010903220654
P 7.410899665348311 7.033006764565677 5.846257704740609 -0.7221120634589564 -0.6138904747456911 0.6801318623724287
P 5.059333825411739 0.9201859343305256 3.198631170058139 1.8537124145620074 0.6206254794766796 -1.175382638395324
