# total energy = -340857.86417663516 ev
CRYSTAL
PRIMVEC
9.41123383164389 0.00000000000000 0.00000000000000
0.00000000000000 9.41123383164389 0.00000000000000
0.00000000000000 0.00000000000000 13.77429201470622
PRIMCOORD
 96 1
Ni 4.87572482413803 3.526436269321316 13.478419541069366 -0.13688116143148685 -0.06131078309433958 -0.3813838160983948
Ni 0.6825092452904827 3.6090574887028875 13.152575342809174 0.19398202020953687 1.1367039908782037 0.005506017419893743
Ni 6.703536960305172 5.161355762539979 5.569138865748986 -0.7192270286016774 -0.4441673270835189 -0.5056555162959873
Ni 0.118975873482161 0.15714877790562531 9.901194608743769 -1.8614393508926201 0.009096048763997238 1.8830584718242924
Ni 4.1629368171302294 2.919016433198135 2.0220524677607323 -0.5230366878869122 1.1171944600903665 0.7533280840504446
Ni 3.553540621960446 2.215169098067826 11.406834809983978 -1.942093828620894 2.786827972489162 0.09763430011572218
Ni 4.929651192409633 9.05813348349408 4.925686239712805 0.729747211406711 -1.3988999490598166 -0.15890703088327474
Ni 0.2769490754472265 5.7946094347723305 0.8484067059090719 -0.9833420581828742 0.11383713512782975 -2.424676008037186
Ni 7.486579825802941 1.4941933178669549 8.900340977213276 -0.44061406251462176 -0.1072643670063185 1.5099093849308642
Ni 6.674964455231422 6.179547709649315 9.589193393919999 0.9996968453918139 3.123515474121446 0.721647465117712
Ni 8.186963826984917 5.418451840802398 7.182590394104759 -0.40607874774191355 4.599350285966104 1.4986808632048965
Ni 7.527208121060971 3.4046454958827783 7.626246296256326 -1.8908005776635566 -1.4885905688484298 -0.6187706856561279
Ni 2.829910873896994 6.657421915884429 11.099173114952537 0.5186393301501648 -0.6615343018758993 -0.7553481998042668
Ni 5.6963091002877055 6.1205580977249845 7.426822257220501 -0.2344319006944672 -1.2088429749362986 0.8037708140820287
Ni 6.728034401249497 3.120341541412121 1.8921877970551426 -1.120179767970935 -0.31839795929447745 0.48866438105462934
Ni 5.828856913679898 1.122713106973983 7.24690299972794 -0.6425737016129965 -0.1412504941437761 -0.5926832445404566
Ni 5.322024341795268 6.460473031273636 13.344037478257253 -1.2479448260337669 -0.40586688884142363 -1.6172539703558149
Ni 9.225888721616476 1.1142994641755866 0.7665506198155422 -0.8886593844963083 0.6917072259148539 0.7299338734962203
Ni 7.971060717993843 3.1587770192517772 3.985301666021529 0.21118038636569433 1.0565812172836835 -0.1461152784352451
Ni 8.022926026116846 7.339284609429665 13.486271333224513 -0.8512886571573338 -0.9386066629487125 0.582592435963358
Ni 2.255072728342101 3.8759506610963257 4.4408176046994265 0.06259016402739542 -1.0057926738769065 2.0861655942635493
Ni 7.517081633755517 0.8322429122779238 11.767997485530325 2.3279058556939716 1.0914458903713524 -0.565071139250143
Ni 1.8429359884904337 9.412457015615825 1.8483446244146382 0.36335112696640004 -0.08758874295426206 -1.7561318505023564
Ni 1.7698765824009999 1.63631235578484 3.3917539881587917 0.8230008659562342 0.4161304755509607 0.9901061163795852
P 9.395667374953252 8.118402990534893 1.1498259297233133 0.20322333630214678 0.5038308043824227 0.602361391060169
P 4.017335622796901 1.180036930559033 3.734375592477934 -2.0284481849474227 0.4605133725417101 0.20047431280209987
P 7.209484876235607 8.155737354048584 7.643505557473306 -0.9063729997259875 -0.16819411261215547 0.740502393040686
P 3.573821830272018 4.886858313433895 3.102700184112798 1.7356378443140625 0.11507794951346634 -0.5569762780571504
P 8.947419731950077 5.524516442970106 12.33297736393609 2.324877610390609 -0.7087898924287535 0.2774785953722963
P 2.9105275005312965 4.44158462023418 12.273058863259855 0.09943664343178359 0.16915853340795384 -0.5088871358594075
P 1.7762197538172408 7.99380766949689 6.145125181797619 1.3002642042627737 0.2916826547868202 0.30218329720782794
P 4.855575373096232 6.687302582422359 5.435459822083452 0.7253048593646412 0.6865429081050951 -0.5173275533172769
Ni 3.9362672569519463 8.741906624804002 11.942944788335645 -0.7881855580492619 -1.500779654715454 0.31929810251124363
Ni 5.355151883909762 1.0535405403428688 11.542415863951028 1.4554269376122675 -1.326206120939516 -3.1948813274589427
Ni 7.042623705300961 2.296058650475231 13.555335670669743 0.20728567929697853 0.19575685272177254 -0.5358793481775351
Ni 8.960407234256326 7.250527265770068 9.137052323595015 -0.5903255429415575 0.3910840741052942 0.4158047167804258
Ni 5.77031904096622 4.24865433235148 3.7609463281744815 -1.7494366978703677 -0.6062314155385365 -0.5733878866459544
Ni 1.3525918977946085 8.699207858163817 8.350650588841376 2.2460902677780608 -0.5896231175578942 -1.4887877724609004
Ni 0.9960002583860481 5.755863386225351 8.12524778069963 1.52391341251944 -0.6405738975741484 -0.36961767670140216
Ni 2.0895197188716343 7.23872557889178 13.349120485500446 0.5170850982891675 0.24971248100262156 0.028941365624698543
Ni 7.88806304927006 8.08099333715276 11.274505337210268 -0.21705278598607133 -1.2729652593375045 -0.8446318139624485
Ni 7.797094065724979 1.5050915263239386 5.721703431789847 -1.037717033389329 -0.10040157844821418 1.0577405276991074
Ni 6.002447116606552 9.257341064158133 9.536244852814788 -0.3847465619230406 -1.3787586982252513 0.02754397105653966
Ni 9.431373595061885 4.078960380116702 6.2087206514238895 2.5276726009060857 -2.0168769351700555 -2.1782776790094616
Ni 1.3933613615559672 6.086950582699174 4.925177091977465 -2.2551994291681807 0.4487626597636851 -1.217419146641084
Ni 1.9770178329521326 0.5410602872017316 11.334699587029668 -0.12256037393344053 -1.199721729361321 0.43859831763617363
Ni 2.5201495326593752 2.483916283471649 8.568147019673354 0.24938466534955758 -0.7565031393443166 -1.7615489077528697
Ni 1.0471597239924069 2.375649452652011 10.212287639529455 -0.9057937301837498 0.504833277505008 0.3491925760778309
Ni 6.052665458857385 3.060373161198045 11.362702712473325 -0.10928679675298598 1.7424908626801536 -0.9359489136108913
Ni 4.698473651358383 0.7478721445784304 1.6625847553776862 0.4442645147830155 -1.8169358691636064 -0.7396750120433843
Ni 7.225305159841988 8.481102520520814 5.4655428301428195 0.1747941344271764 0.9104242869772257 0.5631425547688623
Ni 0.9287541712636943 0.8132915112677094 6.400224196299613 0.2650496255803242 -0.4398167634243071 1.1281717850374762
Ni 4.874284905404076 5.187151953714929 11.31593829293727 -2.129053394766011 -0.3513530740642594 -1.1566822337723435
Ni 8.26648875052681 3.225785002165183 11.294547500189536 1.1669080252654096 0.7174717364734676 0.11237726275285162
Ni 1.5487220050860946 4.860986832390503 2.560599955603211 -1.2973969100173075 -0.4884028998631266 -0.33588223212216994
Ni 5.822457274862326 7.737586835955111 1.2226669951942655 2.9578053042734096 1.3271931674431336 2.84437388922443
P 0.027963598262725146 1.7016263166583003 8.40565171998499 1.4662255708896683 0.1293840817234933 -1.6096414481158796
P 2.1520761883134054 4.063422433516978 7.083539984305781 -0.11852708440433136 -0.47684681959441094 -0.6931928093214449
P 0.2036600352590443 1.7501412256356328 12.155013760776308 -0.1056743968113793 -1.3565482235664832 0.7209023594215713
P 0.9290722709578618 7.592249156161329 10.999239931446075 -0.9135975424988848 0.8388792277493874 0.06648075733105324
P 0.24235620426818072 2.051131297199755 4.858440152590451 0.5318488868619035 1.6290602189621237 -0.04596901053094664
P 4.451193489694094 1.2254461324631318 13.284436136151832 -1.1726397855428643 0.7781312591370535 2.3893055989576917
P 1.1576005497633084 2.5984509958390856 1.5260955173725537 0.08307260025146337 1.2817982842481022 1.0432284501258615
P 3.879611630949319 8.135023228993472 0.7187697870555195 -2.0538730527784304 -0.33276759775258824 -0.303716960243535
Ni 3.0882115900544855 4.786242815494679 0.6789132129490203 -1.0576081158863013 0.47760812324046775 -0.4389634142850763
Ni 3.531744205046479 0.08256004636346258 6.528243324105017 -3.5346564668776153 1.3003418515782446 0.6152691002607726
Ni 1.057512080903186 4.62860465344418 10.587333766816512 -1.3623779428743827 1.844929526163055 2.1097025010432247
Ni 0.27638722480397787 8.976867481744465 12.966718538066601 0.5348709615176789 -0.37076824536607755 -2.3875935013625913
Ni 6.0667164305553785 8.900551788844913 13.057918096833788 0.6537425737456225 -0.5671773869598684 -0.03439853208452786
Ni 1.7784878611040569 8.43364166970167 4.001720504082024 2.4422047609495685 1.3275022140431203 1.3578980527261582
Ni 9.298741080567694 7.674277467828919 3.4422640786498384 -3.296723752118742 -1.6175889850977305 -0.5324492394500636
Ni 8.628284802091425 0.5920305870136298 3.5420730338733697 0.874216983818733 0.8127025693540197 -0.13847781649464538
Ni 3.072965391694974 4.425331419884257 9.827612879192017 1.8833855161464081 -0.12268970042245322 -1.0096634696862223
Ni 7.482485939206405 5.639088800271764 2.603974448812664 1.8363137594695857 -1.2325400614429225 -1.2062093939681937
Ni 4.8151729474435285 2.3499567850461687 9.308734869480018 0.7330212541722924 0.37173498015472106 -0.01460926527274258
Ni 2.995134490193027 5.995256934170338 6.426188848555202 1.6306324485452497 0.5689064538358332 1.751600538290906
Ni 1.6550218880926846 7.077097053813854 1.9196262484854847 2.808413669079737 0.5958145910805868 1.4497229452489548
Ni 4.297489223269691 7.805808867997143 3.014545159400737 -1.646610312030745 -0.35245222066570914 -0.031300352775178356
Ni 5.2838053223273835 5.543009516906179 1.6567441438332957 -0.7676324164882586 -1.777929663103738 1.205374042551092
Ni 3.5766169666379284 2.4071770850621106 6.0106188907025775 -0.8884161581372505 -0.08949752994120069 0.04293048081493897
Ni 6.448153726549808 7.075995939487889 3.8315117573717736 -1.0829903034048316 0.984203377741905 0.32425956028157704
Ni 9.174456330237014 7.741144282238996 6.6273210264813045 -0.4003145915646267 -0.28367521110131144 -0.017938586756291685
Ni 6.076287655081072 1.3770328713376023 3.770340621509336 1.8592006913700883 0.6850863781642266 -0.25898824987759267
Ni 6.93739670291967 5.451353513311563 11.960478857572438 1.7202683038365276 -0.19624793342557814 -0.09988735781595699
Ni 2.2501600644262587 1.8207066548329247 -0.04686982535187418 1.3633696173636907 -0.6464591527103318 -1.1406573190989968
Ni 8.845844288188223 3.8864441865104333 1.639677812904199 -0.062001895624093216 -1.3843513618216803 -0.26340437666741734
Ni 4.739581919527731 8.127701289287483 7.626012897664156 0.9196892572189193 -0.29204158078813575 1.4021534230001078
Ni 8.518540407603613 4.694737391636948 9.317095809370505 -0.2501469974368789 -0.3906395303687079 0.7306779507510964
P 7.1938904622345525 8.880383515336005 2.5638920051008385 -1.3814637558612402 -0.7141308450256927 0.34045468198420076
P 8.598837052297036 5.482739977218335 4.572389473171939 0.4744448950211377 0.30026396869792804 -0.2962157667704834
P 3.770893060919029 0.4542124828304955 8.924735835711848 0.21365687293064495 -0.27128557918770696 -0.6349565513873711
P 5.854831918292398 4.408052395076811 9.302027483325189 -0.9387971816929639 -3.031700866011295 -0.2995949676553614
P 5.565521187570345 3.0209589150686424 6.081225729327513 2.1039041491938923 0.355441128090704 -0.5561689516645066
P 5.719677193205401 7.328631093045119 11.293610141327433 -0.26132795375436285 1.0523496957008391 0.2545551538069035
P 3.6669836312354738 6.5348029538930295 8.838095078478828 -0.3702123728626076 -0.6828122374180693 -0.12001626735534814
P 6.837167065556217 4.593858379158183 0.1889954511332481 -0.41124178000009176 -0.3706643727983616 1.2081233231614548
