# total energy = -381165.3838881413 ev
CRYSTAL
PRIMVEC
9.29603595183384 0.00000000000000 0.00000000000000

0.00000000000000 9.29603595183384 0.00000000000000

0.00000000000000 0.00000000000000 13.60568827322254

PRIMCOORD
 96 1
Ni 1.8068612038710141 2.851865784704152 12.100395233200322 0.36373524977869615 -0.7981560389984125 -0.12200681542281568
Ni 8.943567412833533 -0.03691362899665796 5.367947597081104 -1.4576915652767282 -0.7105333574824214 -0.13643276104015858
Ni 1.1522715392033906 0.8864002641476311 0.40493067623962387 1.0625348637639571 0.4534775487408512 0.8536928957234524
Ni 8.630346778868086 6.167008815039635 3.016381450625091 -0.3762909749565197 -2.0974753628494134 -1.6899696528529864
Ni 6.051096543272697 1.7318421940739834 9.717672492786969 -0.16404795165426586 -3.9693071127199513 -0.04592041668119833
Ni 3.7799169377483874 8.383676465985284 12.527681946200897 -0.29043875507739014 1.3114163642248513 -0.8753665240421441
Ni 7.2361737932039345 8.487094865488626 2.2655378413302807 -1.029323410008995 -0.27619561489481465 0.7639431405621294
Ni 5.249387814286883 3.1975946562483126 8.136786766654996 1.5143483945388243 1.6865724542459795 -0.09758673470723839
Ni 3.8457049838863786 4.592093003169328 6.597847543361579 0.6522875864666507 0.2193184420917965 0.05545638119609159
Ni 0.5280092620898975 7.400341787381824 10.401657152606909 -0.16857797831413548 -0.4093826153041659 -1.2428892658877304
Ni 7.979047910912748 2.9013392878193693 6.6696445471120605 -0.011388958563231999 -0.75598223384384 -0.7061385708488355
Ni 3.570189071573566 6.077460101114629 2.637857093992585 -0.041378562946786795 -0.08157236155685306 -0.7142442306751053
Ni 8.852466260911488 4.1548353620512435 12.398877002229808 2.8002856406559644 -0.30156597533880325 0.49330907891549236
Ni 8.510790461024268 6.592088649115078 12.328277327904587 0.43518440685861826 -0.4028928938147642 0.5628206526530694
Ni 3.843529711483342 3.3007248786384316 10.57421853760831 -1.604782063141049 -0.4878475415802888 -0.21195403130692528
Ni 1.3076919635895812 8.264045779854182 12.678338152183 -1.2307806555496545 -0.4480571490562283 -1.0350669973609914
Ni 3.055356010783087 2.5088048754662804 0.43335237643211977 0.8806730238567221 -0.5828732004285704 0.9231944421587005
Ni 8.290651034629784 0.9203438096709121 1.0376932485895984 0.5133374583212772 -1.2788507715840038 0.8686947684489233
Ni 7.462811148699798 6.864062771746023 9.474497489406483 0.41875788587147883 0.6442372053583486 0.7074686025141687
Ni 6.116540636082004 2.0904460753540652 2.7677236452646423 0.41343415966572017 -2.120770071711296 0.9769243275819884
Ni 5.1667088708996705 7.864269755526882 0.6183128141308291 -1.337705122718051 -1.4059023485195785 1.9778812706331481
Ni 7.169697840408573 8.334835093311975 13.580109411708499 1.5466015981455752 0.043864305483118 -1.613835945813201
Ni 7.574279915301557 7.579494991447299 7.189477016015159 0.42250372606715625 -1.0652203810159202 -0.3853865094998847
Ni 6.700331691255924 0.48967240999535533 11.86152057603199 -0.6334956505711283 0.7363040386886223 -0.8104816504433009
P 2.7835585128344396 4.42480154092554 4.660588054964432 -0.9187173802239533 -1.3335152530064196 -1.2452955613363779
Ni 8.992064832178157 1.5084212670031236 12.043251570855425 1.452988246263788 -1.1985585622911552 0.34482941401312867
P 6.0144515697138505 5.544285961472905 6.205948979864762 0.3941056345404374 0.35909235169004605 0.48867337991569393
Ni 9.033106830722629 0.21338492670197826 8.886745393331134 0.5134253900493931 -0.46910471375514695 1.7825095691649364
P 5.002169035285366 5.62365551607601 0.3293594819095145 -0.14104943387656352 0.4821929143976728 1.0732527644020935
P 4.576382702480731 5.722500265911428 10.148278820211152 0.4291016909996481 0.7221187483271757 -1.8681206195675375
P 3.567325892513159 0.25155166133935986 0.9365328562088959 0.5708085559545524 0.5545792385798837 -0.5516854619718564
Ni 4.682060038710303 3.5772912430091215 3.7894974323576593 -0.03770445652930926 1.5687141137738985 -0.4044638378463099
Ni 1.416920385536931 1.999874797478914 8.53226337437373 -1.157958786491922 -0.9446788372847216 -0.27498899618122313
Ni 2.65902881577855 0.13128605595557707 2.8323236580132822 -0.21024604747688308 -0.8223313506930353 0.1687517848878384
Ni 2.83086603958253 2.3871104693630674 3.328278329076895 -0.5398128789039865 0.443843625195513 -0.5346819854353243
Ni 3.611119517687113 8.007772661875924 6.464905863410357 0.561878086234142 0.039203666782655064 3.3495825477909857
Ni 1.330950645437434 7.049862641487442 2.7551516862994005 1.0549115428907445 -0.1791120450762399 1.2672011031602177
Ni 5.2003884090030965 0.12232374773434816 7.918606015026836 -1.9662794247281623 0.8661658313794824 -2.5342209435475644
Ni 7.1652636312793065 4.489734351759774 4.132523946262663 -1.1837230399402194 1.1169471199662504 3.425555560883191
Ni 7.781888285288804 3.9104239858946723 2.260611871901353 0.2941987363404546 -0.5033021855724622 -1.2817257791389538
Ni 1.452170953709216 3.4363261544636226 6.286399663444247 0.9337488206357788 -0.538602146425337 -0.47519000071727835
Ni 8.429208449874485 5.497833670028572 6.394796090177614 -0.04238694960664313 0.3829480752617211 -1.793275549432189
Ni 1.7161504854572067 4.445950022621729 2.511092629903833 1.0969585926594656 -0.7149888221506138 0.6547375906690401
Ni 0.2768210757546348 9.340099120628098 2.994870423528396 -0.3107694962149422 0.1066493591301389 -0.3092417467165061
Ni 8.063474509051117 2.056199479060105 4.058222590437915 0.8510423454744828 0.093109158551859 0.4035750074834534
Ni 4.2443004116530565 4.853460348826493 12.00247543893799 -0.42518692932627417 1.3620015333715705 2.650333504973132
Ni 5.90160698979735 3.399067642534688 5.686783036736441 -0.33425395249012757 0.40300113725785436 1.102597536112798
Ni 8.119548197662727 2.4859366271266654 9.306902976392015 1.4261518427972342 0.7082031666873481 -0.3154751292207277
Ni 4.768866422041737 8.12365704553513 3.2770794816967057 0.33973323043714393 0.2511831520108771 -0.07058500930741392
Ni 7.490606296071931 0.46007290205301016 7.275465348186477 -0.07539271510870241 2.262006167677369 -0.5761777906862657
Ni 7.169121486182128 4.823647961661799 8.328640214981277 -1.261659861627014 -0.45315461818379377 -1.5757946747697635
Ni 3.7324885625334616 0.5875085399344943 4.94014402448391 -0.5146811168333653 0.22643037054622941 -0.6160016075514231
Ni 7.28289566968967 6.092547567397228 0.9016234525545229 1.0372313520021619 1.6095900260526537 -0.009494055533364295
Ni 0.9622884533022854 3.9446891742604535 10.123679649985018 0.7248297195004355 0.1702409678388552 0.7983208467110509
Ni 3.0177442494895574 6.196505136983374 8.363103408911948 -0.5849591364233216 0.323701630895578 0.47583200517665153
Ni 2.4595637732488242 8.995429997177727 8.576386079218913 0.8474122049210633 -0.6109015673206962 0.010906876720490894
P 7.48312298716405 2.764250646248512 11.521460427186001 -1.7817359242237056 0.2651041329673434 -0.301603513444958
Ni 1.270907549492078 1.4375204011144056 4.79342004169191 0.4936232677218015 0.3373225641131222 0.43777222219045253
P 2.271198197596131 0.7797570697869671 6.692338959580151 -0.8573808860980007 -0.5195782970246665 -0.24812893856558554
Ni 5.611087275525131 7.6742215973744035 5.553229677622313 -0.5757571582090794 1.5118413118462546 1.4756610052709553
P 1.7679851816936683 5.029025283030547 12.249472972284837 -0.382504045745767 0.13881540233972223 -0.6081229761342947
P 6.6993370154135095 8.7739147574685 9.098096347375915 1.652497366939141 0.14717045917263688 0.6273198607777196
P 0.6264356903093476 6.2313466795756005 8.324613172224886 0.07673637362079043 0.20224117489453558 0.10727028054358946
Ni 5.74709757693038 1.124392727508063 5.822200251050605 1.4567196882817621 -0.7509441571993003 -0.9274483323390479
Ni 0.10103582549950298 4.972170727402463 1.0543331528692372 0.40991920453392633 0.6886514698076656 -1.7322072213659587
Ni 5.789961598513293 0.9186454239100796 0.5769882160946801 -0.5869244876798085 0.39491013271960373 1.0024340418173188
Ni 6.18200332096313 6.799901531892354 11.862513392667225 -1.3295246437897876 0.17126015313198892 -0.7701711237497123
Ni 2.791962129297453 3.7529491375722803 8.5359501822158 0.1107088739114932 1.355406396652556 -0.3834643527765073
Ni 6.712081880646686 4.726857635762581 12.926968069435718 -1.1864304115690534 -1.4543784417430954 -2.0183355219934533
Ni 0.7667667892057564 8.176895443194063 7.198456986704618 -0.3437276963085177 -0.896536730361856 -0.20889287588309832
Ni 4.809620243472986 8.946616512612149 10.084386235795295 -1.4097685163432045 -0.7973661961072656 2.339992097434544
Ni 6.0445521339917665 3.735714286994375 10.274893618121746 0.29124788124224676 4.224054327933002 1.3371142832115874
Ni 5.93448706881248 5.75948919279896 2.5724278748407365 -1.0995572066245773 0.1912355678126513 0.915089810773695
Ni 0.19737064563911022 4.02004284135026 4.268880060203778 0.3637447628603929 -0.04351849210792505 0.4797855905077608
Ni 3.919859462343741 2.125724531634082 6.821551999527706 -1.3700578280171436 -0.01609741978249486 -1.6049090756372166
Ni 9.136646078692806 7.702435066362507 1.016221264843727 0.8589497732470175 0.07392872896866623 -0.1885251108600237
Ni 3.785847808659231 1.730280460041034 9.0674975155732 -1.0226771083370712 -2.3680749717136895 0.5368509680621851
Ni 8.171066828678233 4.9128899064017615 10.377139787496787 0.028282648994777095 -0.059129459172304624 0.2968222900062308
Ni 3.909178317082677 6.243068980858631 4.83337998165641 0.849485285400008 0.5191710342839188 0.149418117556233
Ni 5.290848134447322 6.9891874151001785 7.859393984691871 0.3177001618965045 -1.2395406611304716 1.0686160369610305
Ni 2.757352987602986 5.543281989594581 0.5431794630921001 0.07188161663165041 -1.532362828838374 -1.1023226851848564
Ni 0.0874440913948885 4.116777391034014 7.95232087806672 1.0598958834792134 0.5926027690115084 1.8490031820117963
Ni 5.472278867310848 3.5567377076111986 1.2937200216162308 -0.9975389185085466 1.4294551961388544 -1.1940704446128148
Ni 2.8372710083248043 6.848863753032499 10.9987433983399 -0.26781484703028713 -0.5057154229996452 -0.060052485207206255
Ni 7.5945824577298975 2.804651218315166 0.3468611287180486 -0.9789429006739142 -0.013597279068460453 -1.45202511101957
Ni 5.09864329596363 2.5047053236297887 12.584377539614913 0.7803632337913657 0.6232063528299783 -0.5159157605714146
Ni 7.173025821264502 7.166723108917241 4.260049755692477 1.1483084078863515 0.27624780828898876 0.362113397904557
Ni 2.058988289833229 8.076312334643397 5.1140384610348635 -1.5827433381734548 1.5530136723195058 -3.0458486182665867
P 0.2058300383175858 7.229071621768379 4.605525775059875 -0.7838182822195017 -0.30245249170881455 1.3746855565971423
Ni 1.7510571003008066 5.90880212159201 5.874037736097839 -1.2403040216590575 -0.15060596721674707 1.0492504879502254
P 3.6531468960380895 1.2727388685664294 11.589760262226985 -0.5125375881278013 -0.4069405815215765 -0.8057510777368511
Ni 2.318747421277892 7.678283965067254 0.9595042905471168 1.610052310401053 1.656139848787735 -0.6153968840878885
P 6.897918934531747 0.2078370524706439 4.157244894559223 -0.44537266024552974 -0.31369026940616296 0.1552799756536487
P 0.24241179883224204 2.591920732541281 2.1934684637276236 0.4136588740820166 -0.3262272255309091 0.02627410320518056
P 8.532598961270097 8.646243000274891 11.685667464714713 0.7501890242008306 -0.013408302986105942 -0.048070630254981726
Ni 1.877148531389645 0.11630921250031111 10.770126916798711 0.5096265851285933 1.172109366960691 0.18416194879532152
