# total energy = -381180.1944163406 ev
CRYSTAL
PRIMVEC
9.12141992997539 0.00000000000000 0.00000000000000

0.00000000000000 9.12141992997539 0.00000000000000

0.00000000000000 0.00000000000000 13.35012007478501

PRIMCOORD
 96 1
Ni 6.689831953144754 0.5013679789705143 7.205941059190447 0.09576562233809958 -0.7172084555097519 -0.1436850717271977
Ni 0.707275829170243 7.425328544061111 1.6272330751301702 -0.2049865988501566 -1.0340064173069612 -0.43863662707327683
Ni 6.1672201866870235 4.294282505321606 4.383992584460945 -0.46773868664555573 -0.37368387635097583 1.262928958147425
Ni 2.2799354476512015 2.351565959947083 6.031810880544807 -0.612020768526804 -0.22564515564077267 1.9110690981046052
Ni 1.063384280398092 5.295358364798627 11.801920008227025 0.4653791852744437 -0.779616071212696 -0.4037120472819499
Ni 0.31033260429586335 6.243520866090444 6.268014615570659 0.08430647265856447 -0.9209100169998978 -0.7965485853019766
Ni 7.777689003756759 6.413799537112922 2.688274062696375 0.7417982290339741 0.9157976354739971 0.39889611395054525
Ni 2.816247587147059 0.38084756690961286 7.660405783700671 -1.1888462200993977 -0.38919611305396196 0.8035003340294613
Ni 2.6550082434753026 8.74374773134738 0.8436301144381253 0.05533168269276922 0.10722451490731856 -1.183262041143401
Ni 5.390905240680374 0.9433372700420366 4.554419934631573 0.7613262717645727 0.7063694559127189 0.6162018964876872
Ni 3.635861914519881 2.4498583832885354 1.2275224113877694 0.7371064799852596 -0.670003258578859 -0.25129190967459947
Ni 7.513605648097728 1.405273349782308 12.80220504057861 0.49241664900821003 -0.1643289732297944 -0.18805331342992776
Ni 6.432662633945711 8.774833531156927 3.035830270408546 0.2638787452006746 -1.587692454648614 -0.5975948229094612
Ni 3.3999728684885806 4.382085295511363 12.503268738595555 -0.7255015487564795 -1.233548962323411 -0.10372344373259557
Ni 6.2956771464047 1.938055499687117 1.5620176576130598 -0.49548860306531445 0.15551908824764832 1.849970688131388
Ni 8.492543820914605 5.610704101598988 8.38366234094202 -0.8646090284153238 1.6882225882548927 0.4733454913093719
Ni 5.438382232466961 1.9965876526735777 8.679179934659636 0.712528019314947 0.5910529080258854 0.2716589033667257
Ni 5.072011271448701 6.694429148891237 10.27887179384352 -0.6125979811865127 0.02250640863263221 -2.007947751001226
Ni 1.2026592443922117 4.558648625004727 8.069159423361848 2.0626909081803766 -1.1363394084499332 0.514930770950326
Ni 4.0407526327551935 6.2548587913144065 7.987443356826113 -0.10392527533075652 0.7003289061455938 -0.1987622152069996
Ni 2.7768339307570797 4.653183023251832 6.317570379005308 0.035887715035544644 1.0099558041156607 0.461107040261651
Ni 1.8823418655214164 8.737326251574517 3.097561305435267 -0.601007705245752 0.09755819546214811 0.6402468532520328
Ni 5.124404708686388 5.874851307198942 5.672960530425307 -1.5590112846638378 0.701852541878972 0.8747700281087257
Ni 4.251092580997017 0.11554741380498461 2.4682106805939363 -0.6425166231228161 0.03429620217870868 0.0029593397386400645
P 4.0856756269048455 1.790689836035994 12.366790402013876 -0.4967846961689187 -0.3271152845628173 -0.19134021171131563
Ni 2.14342427395705 3.350963478119833 10.56305602304724 -1.003018196455563 0.9270001890580358 -0.09375733365881918
P 2.983616525147459 2.7296488244147143 8.265539950233798 0.916351451094938 0.9551378278345164 -1.0030390223911694
Ni 1.6175835247726236 7.192641116496111 8.066249690339768 0.2153419739425517 0.029515750070929814 -1.0603460836427545
P 8.734343547191383 7.724219238943507 4.308671545579693 -0.2738955060067283 -0.3498484644942749 -1.0634460627243167
P 9.04929706292607 1.0141559759461787 7.064189629630514 -1.3155686958303279 0.34770236468554955 -0.2907681133923508
P 6.9691663232643375 4.99350320837336 6.888594994955159 -0.06547185645056466 -0.5465818221967038 -1.6587063239633302
Ni 3.9569723888436084 8.781711081936386 11.668859467768774 0.90174321426346 0.6813083991790331 -0.9305539678475652
Ni 2.396498075516867 5.822923062387985 9.767108132348667 0.6799570273574612 -0.7944649633000704 1.181936894574074
Ni 2.040780933212677 7.677782089051958 11.80445667516571 -1.057643597109927 -1.238393434899906 0.34657904971438375
Ni 3.2200437349665423 6.556358212354529 2.218322991086195 -1.219286538867126 1.9937609179778824 0.5018929639297615
Ni 0.9957854358005139 6.059514457769442 3.7586061288089416 0.9154106844482235 0.92763679420077 -0.4275487446902314
Ni 4.900008652021292 4.1133682584253215 7.313943234262316 0.006384563370105133 -0.936545923764942 -0.13462656106935525
Ni 4.369725771232626 6.560107116028743 12.357578679822662 -1.0148159604214393 0.14322381582006302 2.9141585141177364
Ni 8.862827871169454 7.031885208091346 12.513254869355968 -0.7704531737665054 1.0239852856255331 -0.02270875445142541
Ni 6.736095796053798 5.452009634144034 13.113969707835182 -0.6136727023079303 1.3508313756873638 0.8141033063562881
Ni 1.1931364817744987 0.2223464735614552 10.014553105545085 0.3520303026369421 -1.209351282031285 -0.2875526917788467
Ni 3.28525276748956 2.3331133270202313 3.973062573956296 0.5954384386880907 2.3413905204439676 -2.60294293150431
Ni 6.3122325239441155 7.8361573068022965 11.92889291288924 0.950138574847712 0.21210804038628633 0.2696295316415227
Ni 4.405408766788654 3.9405994397068316 9.771620498887925 -0.5570197297005761 0.20769962690594554 -0.4393534506346433
Ni 7.440068758994276 8.057716601806368 0.712426695118732 -0.197973143646801 0.005851573684770567 0.942854382481473
Ni 4.645356844778654 8.488703703039072 6.6141031867836055 0.18242105484481486 -1.7425705668781537 -0.9384493114352418
Ni 4.674061953933772 5.150318663281141 1.157666015307544 0.7702693398904734 -0.7027074336800994 -0.16288298481188723
Ni 5.703970622447757 3.1860117164543893 12.88809962967677 -0.14118081724810522 -0.3804361074731448 0.5816233871818693
Ni 7.599857796865059 3.2687247542105404 8.336589428067276 0.3986032653004748 -0.4842955625629724 -0.857405311578033
Ni 8.32629681759043 4.7187933982606545 4.5282277767227965 -0.18829602556835312 0.825097857694579 1.777659440161487
Ni 5.452401855209706 0.34058196987931344 0.14824405640982588 -1.1960759050786174 -0.4599436160811691 0.17918403596475593
Ni 8.58869271052506 7.9652254016688095 7.680056971232856 -0.4555460012341058 1.065427869041036 0.39425141608968234
Ni 4.444822423178633 1.6579366874361894 6.596708638592055 -0.17752978819078458 0.9215029133888903 0.11646197434518651
Ni 8.97174674896458 5.211970341952714 0.700200343573921 0.667933520534024 1.180079272540045 -0.27642829973091104
Ni 0.1854913755184766 2.0772301280597856 10.9774165996635 -1.2388420924015502 0.39304942536178117 0.6230628852735786
Ni 6.371850125926272 7.060298431802242 7.6462684946382256 -2.3989482642537783 -0.04476727691336161 2.852670324905268
P 2.97970343591087 7.918058538166707 9.544467949058967 0.4442547445910026 0.7127388497741726 0.721597585716383
Ni 7.673750421353654 2.530847472639756 3.646598738157151 -0.12397088112772198 -0.32439068654280256 -0.1634709961048733
P 5.47937389453976 7.4884761356343175 1.3976378089898869 -0.7170655021739843 -0.3898550867941995 -0.3761629340190876
Ni 7.821207299206097 0.48202874400684065 4.970249972031084 -0.08741673615277203 0.4700873893833904 0.7221953672013821
P 8.262009048500735 2.686176136066036 1.2261149762614159 0.9967472758451865 0.2873547168354277 -0.2818101328681147
P 4.397883595179829 7.967998313388909 4.337200611326264 0.4596458823350922 -0.9305866208577135 0.48456938504964936
P 8.797500260184721 4.052236500701267 10.003098426143435 0.5951353056253751 0.12302497227468491 0.7749706020208847
Ni 5.974758221903742 0.8442394253029369 10.811341079037804 -0.041556483285547785 -0.12366466274121284 0.7670564893801306
Ni 3.445041805360343 4.852112074908637 4.031602936220875 -0.13665387591202918 0.15826631197548227 -0.4202887206937085
Ni 1.9524308578150058 1.0528672829860009 12.209232463507359 1.6081296394570435 -0.06058470356159243 -0.32030494650920316
Ni 5.355058059561972 6.2950021613149385 3.2812457276256124 0.4550068409011841 0.6389613016713899 -0.051410750371808235
Ni 6.3501685102727246 5.151942276064621 9.005657452588979 -1.746867908701927 -0.6266891691722561 0.9377150043723786
Ni 2.506247002543997 6.929971580957525 5.345334625701357 1.6452792519241468 0.7363945415198996 0.36616982736211773
Ni 7.40821675989365 5.878317446849068 10.974800576369667 0.7877695535577659 -1.5770416598029873 -0.8076909750720412
Ni 0.2895275571169919 7.048021000304692 10.128069179086694 0.3407920107189615 0.1823063836438215 0.1244755886782824
Ni 8.27788944095039 3.79046998575574 12.437412997385183 -0.4552336122000095 -0.9091739595098923 -0.42999232113471747
Ni 6.76056856626771 2.9600923826272654 10.688266669339969 0.4123905488925543 1.4393210331893405 -0.6814094435332716
Ni 7.916361954022172 1.0001454746235663 9.167100203929676 -0.08200225000542007 -0.15250215579819543 0.17669777920779248
Ni 1.1887399572709183 2.0587318880322742 1.9367155630697397 -0.01709372225749314 -0.9738032654545035 0.14666883694587
Ni 0.9118738434390296 2.1516153092355044 8.551953454517754 0.09143305640101672 0.4240515301702503 0.004373446477347306
Ni 8.491832350144316 0.36647312092373735 2.6201616821453704 1.7030722516732153 -0.007352583710329272 -0.5608277905927567
Ni 3.458687449877679 1.5410456884457744 9.997918371650522 0.28279589382015163 -0.8575786039311037 0.9586617818273749
Ni 0.0948116894191157 3.2941187878577756 6.28267364986465 -0.8954807782935158 -0.5051184128455946 0.07232358926507544
Ni 6.459999530081042 2.546335644023738 6.089577746382201 1.339544489919635 1.158105339372115 -0.4738054616649259
Ni 7.018084499431766 7.18035456357843 5.732942077070728 2.3515072971629953 0.7214091238546608 -4.278250868580064
Ni 0.8493729605531753 1.6130228147066692 4.265710568900413 -0.13854929316252912 0.19493641370300624 0.09226866492843463
Ni 2.348674469765268 4.4071600794539805 1.6150039871593198 -0.2737360976107286 -0.6440068345150974 0.8464323575062972
Ni 4.926862112889633 8.84469448794722 9.109281345997532 -0.22552714200566967 -0.971051156630663 -1.10760090286466
Ni 6.90319109145024 4.407862428804138 1.9211626296028215 -0.28997312829488125 -1.1174330584637335 0.4964972468354868
Ni 1.3471334178615195 2.9950730288331364 13.190118971664413 -0.43249169051780356 0.9983660423955322 -0.4964728213554546
Ni 7.211075506582699 7.754967546208173 9.60242089186705 -0.19161737663210227 0.8834235900186657 0.6264256310982244
Ni 0.1993230970065035 4.208641491703111 2.620735419471667 0.3499019434400296 -1.955070186275904 0.22967433140482382
P 8.133251081918706 9.113055789648117 11.153091502836016 0.7234755194653862 -0.3611595186317199 0.46844856822838676
Ni 0.83437825799833 8.625132783952035 5.852959898882361 1.3998916235491246 0.2996718436398839 -0.28153502482985704
P 1.468776676740659 3.9628374619884257 4.64346597438531 -0.17900354452283365 -0.5231259051666087 -0.5121652923900469
Ni 0.34081000538261114 0.00802867400010637 0.10670237270307237 0.06350907629723901 0.924287161002247 -0.21140432945104234
P 5.303029479129562 4.778867071249407 11.508751180193375 1.1298810544190991 0.5138534787257473 -0.4878226018796244
P 4.927026298452007 3.6066368844172443 2.9416589046826904 -0.8969036267829714 -0.9976209366993914 -2.3454407792539413
P 2.284377579255441 6.005816657452892 0.27387063946057 -0.44949336728212264 1.489230516425274 -1.1298602284834929
Ni 3.134785820993588 0.43663508457838196 4.895916782950118 -1.399692620164441 -2.16177556758938 1.5779266335111017
