# total energy = -340860.7750949681 ev
CRYSTAL
PRIMVEC
9.37093356193951 0.00000000000000 0.00000000000000

0.00000000000000 9.37093356193951 0.00000000000000

0.00000000000000 0.00000000000000 13.71530849637790

PRIMCOORD
 96 1
Ni 6.1735335296339455 3.3459105608152737 4.335272170375189 -0.03369507825960004 1.7494729504249418 0.6230248329467915
Ni 0.3325210168634749 6.424683919326231 6.399001001784734 0.9271130604868162 -0.5338913712132289 -0.7310507607094828
Ni 0.49116904743742607 2.956117209461208 4.263870342299357 0.8327067803900885 -0.9538268223325767 1.153497922507091
Ni 2.056919911102452 2.8814027563804796 6.346525648171106 -1.075421232808322 1.5201657725515496 -1.4985237688017419
Ni 0.47822591403781467 6.795248115064889 9.291394926109323 0.2647979145808343 0.17907347852882063 -0.003962069971541564
Ni 0.5128243377452468 7.462889645754662 1.561734481551593 -0.3545597539270152 -3.045475294087568 0.6719891786606362
Ni 0.07214775438527968 1.0928851236096742 6.177580835828046 1.6623012404034405 0.7941152932701356 1.7877093681983214
Ni 6.245521041055763 5.351693287613006 6.35974709829673 0.39366391901732845 0.9164848913490087 -1.534533354127131
Ni -0.028319898238463415 2.530386327997447 11.718359883232552 1.0914361201793397 0.29273320753852167 -0.4318579135885465
Ni 8.278535700708455 4.5827051107338335 4.552110886926238 -1.3517307475731817 1.9527718771600306 0.5956819221574644
Ni 5.131991750866778 4.599600903898835 10.27936307785247 0.1558754431458025 0.19012073748191774 -0.29252803350625106
Ni 2.301379454250195 8.201600336379748 6.246171383843146 1.7311003614550249 -0.9963703521217421 1.5554266526363727
Ni 1.3728979885921448 4.566193525843799 11.464187367474977 1.091660320375004 0.6607927957241846 0.2338642011164553
Ni 6.769815401448798 4.253513586555619 8.345175220361407 -0.2031760280039791 -0.7687413332817212 0.2541872289445235
Ni 5.284203824288359 2.6097768769125262 2.2918276616971807 -0.15954029359189945 -0.297586678976081 0.6519926809340513
Ni 8.494732508312303 3.6232058550723707 14.017045194091212 -0.03486338753608835 0.7435990296881387 -1.2322479841238005
Ni 1.5745979620161505 4.461192215575449 8.582546589382689 1.0591520633346534 0.7380899269444514 -0.8571787973895237
Ni 4.074566239756474 0.7675197515941165 11.752702480454458 -0.7066242522360024 0.5024516646467088 1.8063066715845344
Ni 3.246775454940318 6.573878552149293 9.874638081002498 -0.898200491217524 -0.3428175257894225 -0.43422512826914256
Ni 4.570644719273292 4.7225944065558725 2.2226476819626804 0.025181384361634054 0.6841592383642668 0.06434031394928275
Ni 5.037542111759709 6.3826833952188915 8.112166020901025 -0.07470571634400681 0.14922605615008497 0.68733223677561
Ni 9.13844067475171 9.038171685918924 10.790052716938266 -0.7919434824297974 -0.7936648359962782 0.3400769869298078
Ni 2.2911651366962014 1.8808213280981818 8.24107633099255 -1.5696276267271032 2.709221280448276 3.2212834716015553
Ni 7.754953531264139 2.8500007581021 2.9579529753408655 0.7839977452201594 -0.922291984949089 -1.60448381517434
P 6.712680819681182 5.134550015722045 2.6449010099913153 0.5294047961967849 -0.8471167851678314 -0.22170622559768272
P 4.540123588747275 6.991953380914326 6.062152487814439 1.624970622273782 0.2600675989847005 -0.3484500414848515
P 2.790842054690757 6.254873232724465 7.5481379652229545 -0.7763345722479469 -0.8653266233076388 0.7119394938013287
P 7.259259260022288 6.26666186711247 9.00674719740006 -0.09277825757500151 -2.0635465713124526 2.6424756994916105
P 0.6922064958604522 6.438777803364036 4.06931851697644 0.8341838791562474 0.20710004564873366 0.2926977263148959
P -0.2502760815933984 1.494195352279207 -0.17449615336965263 0.8066136828474625 -0.3228688505816375 1.306917447913233
P 9.221223501606739 1.022190801015793 3.4606051647330296 -0.46242550196275845 0.011498744668218907 0.5621606504715674
P 3.8579383692099802 5.720177136106721 11.84288084805592 0.4821016402354471 -0.7867642522217031 -0.41995267751052834
Ni 4.0544093617210235 8.94014235020119 9.49967516906215 -0.22878652948323175 -0.14313794097447605 -0.22659440692791946
Ni 7.408425780044743 -0.27124635665975405 2.687432866030134 2.194932256847007 1.1333661847542222 0.5253457956360631
Ni 0.612462662751074 6.702204115988185 12.924716703933562 2.210088909982787 -3.0322533960806552 -1.046024781924076
Ni 5.053650746507706 1.4855553515592232 5.092658194443719 -1.3388371794399652 0.797800969651839 1.7668302107564668
Ni 4.58592871187014 1.797373164962112 7.440554962765498 1.1790228062510728 -0.13372924606606645 0.5454824184849381
Ni 8.080377940160972 6.877937232584561 10.994533983435689 0.4583523603346494 -0.12109947311719788 0.5631749506686946
Ni 2.163233152065811 4.630927934708928 3.2033608569624294 0.012361606889146452 0.5966823383975207 -0.7111187976722463
Ni 7.0189229276302845 1.635630852134648 8.520347018038988 0.4099917096430746 0.30383728787148323 -1.3997874938710926
Ni 9.168193388727792 3.023812833323641 7.868595779345827 -0.7768991865021653 0.7368825368999115 0.012999497583461483
Ni 7.744673617175395 3.3271312100095822 10.313911835612162 -4.046722000465005 -4.061962471563843 0.8689894168712066
Ni 7.748047153248273 5.92384500557324 0.7651020507418868 -0.17318873761326947 0.576532088701891 -0.23306664491582438
Ni 9.188565798234565 5.1150584739676335 2.4358251747813022 0.8723596188950201 -1.9037681935678181 -0.11237726275285162
Ni 5.405716719446745 8.300332492112666 2.060944727056067 -1.3616274378616033 -1.170268199986894 1.3295074173986072
Ni 3.6831236041001114 3.0485708397251567 11.42822547293809 -1.438294134586723 0.6692846352452796 0.16557904358681164
Ni 1.3909370356485105 8.819379129725666 8.723279269222948 1.0282368618130355 0.07518831240738018 -0.896910568761507
Ni 4.555819902419698 8.726897386661111 4.513680688496027 -0.7042971467647224 -1.096317359531041 0.4932633132792215
Ni 6.7150891495998755 8.409831850478188 9.257942567573316 1.2540044019642853 2.7254973919004803 -1.0567514243129605
Ni 3.4302958173049216 7.8291525830004 12.136209809592726 0.20295594157337304 1.1444556097991645 -0.8366585659489849
Ni 9.417132238105637 1.2859076125795526 9.164898568496614 -0.6160949385961776 0.2503208040105818 1.403337930226512
Ni 6.520792213669132 2.50046493721772 0.5689759085849598 0.11178642324638811 -0.8138017159554695 -1.519412439325293
Ni 8.040204748093108 6.841043867254218 3.2502811211760516 -0.8816950373633331 1.6076557851444184 0.8610997297104848
Ni 2.3436517354300728 8.254977173799517 3.5611937023993843 0.7955551110404557 -1.1475586742045205 -1.0019761283442936
Ni 0.5510193257437093 2.7517277781124347 1.9345439529654223 0.5484121905372232 -1.058539626561635 0.3947936617463975
Ni 2.3591418885647077 0.8815105984033353 5.0088576842067045 0.7245224726726619 0.3428450365932482 -0.17071276526895116
P 3.097674531452614 0.28134447463790446 7.587843547707384 2.035731091762081 -3.570234621092541 -1.569499071569039
P 2.9619365591869236 8.67037191557332 1.4148853933925352 0.3773939782127113 0.26701986193281757 -0.8189197539083253
P 4.093598605767632 2.4835222893850397 13.630822168414275 0.050124427460216905 -1.8001072276420418 -0.3260721880102836
P 7.496849908888309 7.9370495117313045 5.220197536958961 -0.12841426161105626 0.1450014765457761 -0.34739666051967266
P 2.7383460850233496 2.868208481962109 4.260180068672969 1.3785918336300838 0.15247053122931162 -0.5654789162115229
P 5.732781041712339 9.130840847654197 11.071422493096717 1.1173749515322884 0.19808318686210405 0.025686863243142857
P 3.728994323757726 6.584270917440467 2.711324061079591 -0.031468760032242575 0.961185576690493 0.49126890855701205
P 8.699543631670185 5.116004938254747 12.084297649084597 -0.6276996127146415 -0.896444941978998 0.6438050029169364
Ni 4.5199760816453605 4.500128444416591 -0.20874035578943256 0.26235150992287076 0.685553033388 0.17570739027006513
Ni 0.9638286269549908 0.13856705710014053 1.7794240788676898 -0.16700214918658338 3.0833041920098836 0.8053998650450195
Ni 5.799033541810263 6.975010733081646 10.608050445806457 -2.49935267091547 -1.31849204012471 1.6171819794672986
Ni 9.005232854540678 4.73273375664158 9.766877030807862 1.259514276038921 2.953302017086417 -0.6750397925615019
Ni 4.83706973062889 0.4021807883950065 0.463101227311075 -0.4460311197651351 1.0138528251772216 -0.6185577983143734
Ni 5.515712737289663 8.711932005804478 7.156223034516389 -0.5755303869102539 0.5986646589348722 -0.6959834846927045
Ni 6.080845626031601 3.1827813498245154 12.0468139149415 -0.25657578378135815 -0.8772220891936441 -0.36742812524925106
Ni 1.5164138356925279 3.199489724318801 13.653013476120341 1.4714621366982592 0.45829193941035906 -0.7421648683447735
Ni 1.8074469185130693 0.785809002575887 10.871137530636615 1.262546892217658 1.489348787170693 0.12013685209361245
Ni 0.6247273405626953 8.650027618867153 4.955244699261832 -3.7625289691870103 -0.8847032280620376 -1.5970484419422173
Ni 4.2864243051332584 4.287511333423408 5.3893203970392 -0.9649337308790156 -0.8863034826696219 -1.4009149226073163
Ni 2.8661375056507032 6.109848665324823 5.112724174423873 -1.4415728053379948 0.3499024576606619 -0.5452073104466804
Ni 9.115847353996957 8.507345784851454 13.283838989825039 -2.8211087480489025 3.4151978717979503 0.18496053343721694
Ni 7.497374681166312 0.9603520106132186 5.26123379200547 -1.8680686832836797 -0.5902849195116091 -1.519388528065893
Ni 7.690603330673977 7.245568326126521 7.360183277109223 0.5251768741583666 1.5777744242039538 -2.5905517569288095
Ni 7.460528170503648 1.1538336753263498 12.098698899742375 -0.9902565259145205 -1.0360489016582868 0.12983505321798286
Ni 6.476692600449778 5.420953857375913 12.451703840221699 0.8328762160884172 -0.527281322095879 -1.0069087897592208
Ni 3.792013851785808 3.9472714786065164 7.558959519270067 0.6926770460272909 1.6314307760768292 1.6880392685994927
Ni 5.302420919081905 1.7376615764721586 9.996854733269421 0.1523877417075182 0.5390484899341361 0.24217554919562806
Ni 3.103062818235684 2.012370493073381 1.8399359450815986 -1.0415708599177802 -0.13311578085178363 -0.012889711478474576
Ni 1.725263831404329 0.3618707806975199 13.29546925543629 1.6483941434040448 0.547381949500496 -0.6115600268403015
Ni 5.7052586099177685 6.9691351577547165 0.16682510717726784 -0.6277281519597319 0.8747890542721192 -0.14644206564704457
Ni 3.1431329300346547 6.4691489989534805 0.21886658656819022 -0.7231456469297933 -0.33866493707362966 1.7948809462460957
Ni 5.695287936635705 6.621248621172632 4.037416110847251 -0.1741855543089 -0.5580468854135099 0.15765618919530913
P 0.11735220066850116 4.145766592761286 6.1961240391086365 0.7392896036795075 0.26379904100267476 0.21422200140549558
P 1.720606477437049 8.049303924556344 10.840236877302397 -0.604186617194366 -1.206111949158381 -0.15497272882587504
P 5.619092876056325 0.8278095266832274 3.24427435277962 0.6025819917114074 -0.7633517868350337 -0.5707733318412428
P 7.216865156706445 8.646916468933277 0.5392831685835056 -1.5152562510650742 -0.947947223623348 -0.03962275659794466
P 8.32398472835696 0.027193512027463347 7.801170975462577 -0.1243010107736311 -0.24696988526047792 -0.339509287351796
P 1.2504198872795753 5.365908993786776 0.9664749785854935 0.9113398568129596 -0.7678483891538066 -1.3545368495634091
P 6.1022300963602385 3.2058619591231277 6.450665769647519 -0.47118396488167885 -1.0349726378749724 0.902469036685891
P 1.5324100192380947 2.882986444148025 10.118880218492214 0.3955138277418737 0.17998313482728356 0.1522252479877249
