# total energy = -381178.15110835596 ev
CRYSTAL
PRIMVEC
9.09626328416271 0.00000000000000 0.00000000000000

0.00000000000000 9.09626328416271 0.00000000000000

0.00000000000000 0.00000000000000 13.31330078076385

PRIMCOORD
 96 1
Ni 3.9615135197836038 1.9536498960104784 7.395857662785276 -0.606358170924388 -0.9528806563692236 -1.3332792257362136
Ni 5.408501564052568 7.806003615462098 12.261403285537108 0.34541408287200515 -0.5101351493338956 -0.4688098082225475
Ni 7.139947946340574 6.81545695464982 10.433128092735577 0.9161761018593383 -1.049283912291322 0.2734779588533354
Ni 7.014565056494882 0.9646223111271199 8.444866006203346 0.7091627023871399 1.317924597657014 0.9997261559678525
Ni 1.7494751756480005 1.2805355267641538 5.943669284932099 -0.002771134987233937 0.3962072542644725 -0.15921427771104837
Ni 5.788916380958885 0.8774846592643223 3.634491038086751 0.4107836094167506 -0.5075691883789323 0.7621490247761842
Ni 3.158613669376634 5.232206889930445 10.344168459384383 0.9865366538607719 0.9370002376935411 -0.5700361965649022
Ni 8.134587925524194 4.6558039894043315 3.615812771545171 0.48853813988941025 -0.23782627108799684 -1.9354344143228472
Ni 7.833128671869517 6.168039528512468 7.548135473583287 -0.4102421350909838 0.50687267653254 -0.03887790801212015
Ni 0.8743628217864463 3.3339714284048725 2.57640280489474 0.4416939258423619 0.7856440225743309 -1.2622625282080195
Ni 5.353805734348407 6.5079668785947 1.0252079711544873 -0.11715488664715307 -0.8613347285394262 -0.21684581218158785
Ni 3.4370866663104707 0.23922807964203086 4.2125676510135905 0.08054186340980968 0.4317995495467854 0.8699101289132631
Ni 6.100827240855052 3.295676160975218 8.015711592636324 0.3264686521177539 -0.7394832077475523 -0.4916031519679792
Ni 8.585144026789196 0.42526667074055496 4.226280267557582 -0.10400703641128539 -2.1036503813118737 0.17862970612318269
Ni 3.751635442490391 4.160075845845821 8.1238288655917 1.5040056178519194 0.23536315425948498 -0.38743027940279084
Ni 7.801728371829809 1.9442625525455368 2.505189980749068 0.05983059900438727 0.9837212958991638 -0.03443529885973424
Ni 8.195924027252973 3.984326947506543 9.009962251761513 -0.4951463892345472 -0.3134817529397827 -1.4542683985277924
Ni 2.306812308826713 7.2998238656620975 9.449274462273594 0.7961523783048224 0.40137517161865716 0.3180369764106329
Ni 3.8551054346548383 4.646835074039572 4.595737725996972 0.7804372815624108 0.5794127526837957 1.0242801911581325
Ni 3.131570479336643 7.392405630958779 11.81791043252843 -2.0656826438188487 1.0823305583336456 0.2151396281237585
Ni 7.3490346487486615 -0.018220724510294908 11.038816412142873 -0.6720686257483199 1.0762825523673527 -0.8582195799492124
Ni 4.499320976199497 4.0804471591286715 0.5647424009256206 2.0249591979575574 1.9911203950312417 -0.4836371030433671
Ni 5.973052033827888 3.289181429159357 3.4759559079384177 -0.5641105751090866 -0.861152180214975 0.8275072384670199
Ni 4.058506972658285 6.808298195631497 7.773050583320195 1.0970321262098783 -0.5045008338662537 0.8434012839894571
P 5.452027182734491 1.864988620087237 9.676439987488436 0.03074242338917931 0.16444364443078777 0.37038000878872346
Ni 3.6301912345442338 5.125935248747391 2.4518040129237364 -0.030389925145767018 0.5149608528573132 0.0940758933405025
P 5.91841987796506 5.751712665094921 8.661166954834346 -0.0479454175310271 -1.0186353341675296 0.9603250284624105
Ni 8.587718269231617 9.043914053586024 6.987844783793075 1.497240274103628 0.6980321396916171 -0.36284384831267835
P 8.563103781425287 2.392399047839925 7.128526678458229 -0.1794509164728974 0.33999753984212416 0.26504422626368546
P 7.188476509698582 5.866007210285804 5.06401971506249 -0.29346597193948815 1.616925126261486 1.1997662094460113
P 2.37387905627537 3.3153422816837486 5.742013319807453 0.6462915167842159 0.9318114944037501 0.6549170536696979
Ni 2.218196514218709 4.61679011719393 0.7811670587340643 -0.5889500027502697 0.47931764973240676 -1.1846663776900952
Ni 1.530355295098605 8.975646599415105 0.10912513890103089 1.766425262008564 -0.239270202623375 2.174028416814804
Ni 5.089723025555596 2.916334703108497 5.7053353679476295 -0.3355009375233512 0.059111461450175616 -1.0449395192796973
Ni 8.434300696673764 8.99579482206515 1.5928029601717797 -0.06288738355284007 0.27834685690986255 -0.17723513976850122
Ni 1.1464111281298877 3.7166966961252355 10.120664180046129 1.6548676669435305 1.0726554971377267 -0.7726573805066758
Ni 8.981131646032702 8.327073947870732 9.124763458804136 -0.7329268946862733 -0.2844617115583488 1.2564798600879716
Ni 1.211858740756103 5.5070231891192165 11.831530267189338 0.6233693607704038 -0.7464275002758693 -0.09013002131887703
Ni 0.46833383776488835 1.595175265574548 9.931029836164958 -0.2328046495036894 -1.2552593574173092 -0.8452355089847187
Ni 5.454956179435762 4.057433613618689 10.22650556798704 -0.5389230200998654 0.8237878806339038 0.2271338243711572
Ni 2.411974205917981 7.161378742080305 4.241390979731962 0.44963657772820625 -1.8457203974954666 0.24515211532544878
Ni 2.7554672911148046 5.626666336981985 6.346237140864113 -0.8565684174990345 -0.6455870345180237 -0.7035510126273173
Ni 8.952951423111784 4.477617292568343 0.7653541150524226 -0.5376312978716353 0.459493415917628 -0.013159677310409595
Ni 1.507505482323476 1.2398479421530264 2.943437928484601 0.0656430919211063 -1.2893089908028506 -0.9747741140082051
Ni 5.945690474581237 8.763694574147081 1.4312460514390926 -0.16489770124907085 0.44354897677322963 0.21325475239621983
Ni 5.7773277418364675 5.529818424316061 3.446241145441398 -0.2567830146961578 0.48038568598560494 0.4416309338149104
Ni 7.26778682720907 2.749236350927319 0.10822006072781219 1.0512060690146992 0.5238782099516011 -0.3901111686690636
Ni 3.2233335809590553 2.234287803549602 9.51638669103749 0.5096085874064643 0.2318417713697878 2.4205563294418573
Ni 3.0143105523923004 3.746923578231825 11.928543731842725 0.9597827828056954 0.1980266225925557 0.6319000239492344
Ni 6.951700782574136 5.353441883826512 12.682063608670449 -0.32247907134238657 -0.09934279816639666 -0.7999370421582352
Ni 0.30517052897802605 5.917028149718804 9.514562890296482 -0.585615539060398 0.6233562481442814 0.46069643508679364
Ni 0.6119874815676358 3.158313492696069 12.210626125953778 -0.4823569507793629 -0.022335944493038953 0.6864621754658307
Ni 0.3396881183640857 4.725781541028164 6.938013635566677 1.1571008093670008 -1.3190743949907413 -0.35905147114978164
Ni 1.216024829231823 4.677016474830924 4.46705198303876 1.1623114070336629 0.2152437578017906 1.695951324357718
Ni 2.98299211872002 7.249667071218601 1.5128704582688466 -0.5260860162361972 0.3693651943709639 -1.0108335787349239
Ni 5.391718958730071 2.0630779404709885 1.5781315975025896 -0.3348396497902685 -0.29767023982882285 0.27303161534453624
P 2.0830351415970365 5.267345754082643 8.49967735844821 -1.431685885241586 0.15035477043788945 -1.1418778217696592
Ni 9.018908426468656 6.9067561468568135 4.394733962932826 0.27758298216064453 0.032754054502569394 1.100024633179299
P 0.6634295779797323 2.0733294289254354 0.7159404852999014 -0.2297177830482495 -0.8356964591460317 1.3893426443886847
Ni 3.9928137609297893 0.31502542036360515 10.704026631429825 2.2708705600465344 -0.7770004879667199 0.9002005523666883
P 4.127765919501371 5.747018993362451 12.423479590889803 1.393981942932909 -1.589453917424411 0.9070882806254571
P 1.9362669373268513 9.024166066510066 10.545079440565445 -2.244836854986934 1.4004261558963558 0.03131295118066865
P 1.1084342299068926 8.327583338601388 5.693352860635259 -2.975356682893611 -0.37211036121626884 -2.3250889550704668
Ni 5.052983219107051 2.190925917602532 12.538279888306121 -0.19181200914141158 0.6169017507681892 -2.1670864382793322
Ni 0.20172691597641615 2.475775394932613 4.6173186100769845 -0.6918252395499569 1.3975768593730187 0.8873141833223234
Ni 1.5940109439044778 2.677848878531136 8.090532904332909 -1.2571506609027512 0.8679388641195053 -2.695270988915771
Ni 6.92760478176151 1.4485071201978843 5.966861117197811 -0.3111572185716641 -0.6647985744494679 -0.2559854584955269
Ni 0.21992126132387352 0.8638020603883871 12.07549659025277 -2.180261799319026 0.37355737807544054 -0.19631041123239737
Ni 7.548852259111423 7.808987189741653 13.05804490696745 1.0077078886217485 -0.8050054578200782 -0.023850324255036345
Ni 0.8332586283277471 6.783629130246883 0.27384027016378376 -0.6924970688060008 0.2842619368427169 1.8167044698790904
Ni 6.997991665222476 7.555856381657939 3.29349760597536 0.8456260595549179 0.459587261183015 -0.5477102793741921
Ni 6.370340418687176 7.867694471449727 8.240733128650888 0.45688914552556154 -0.03703416993516203 -0.07621829633379133
Ni 5.780893476951057 5.1530421126287145 6.58964404375013 -1.5340165623917128 0.6209242416640209 -0.2221862505578948
Ni 4.48130127910255 9.134103501701231 8.552304697935387 -0.3782115890180002 -0.08985851282504526 -1.4385787557066771
Ni 4.0143173267739 0.25385032249076483 13.250528200435074 -0.389480219953284 -0.498057135123439 1.4876783414468056
Ni 1.1152746197185555 7.054324822275173 7.431696939192126 -0.548787828709087 0.14997784671444492 -0.1864224626947241
Ni 0.3355656919509932 7.616528456184257 11.470872533622025 0.27035715383616665 0.7903254872104002 -1.0121592395248826
Ni 4.657295776544109 7.532588140782629 3.110971991665751 -0.7978395361992582 1.0220263621269494 -0.812075734403298
Ni 1.0692475286985903 5.752094708142913 2.5060959685485913 -0.11895337330847255 0.4388659694752636 -0.612294591013481
Ni 3.033121624374373 2.433286750238096 0.6958186418126948 -1.5851496336221023 -1.950947936577414 1.7251801393158483
Ni 4.761420699647971 6.922374430509241 5.236293840917653 -0.1423748375562064 0.3973688786727415 1.2010167940236607
Ni 6.95278323787678 7.978859902152295 5.884705488606087 -0.8986766595229942 -0.5413270015556677 -0.9665100742272001
Ni 7.448311263648246 2.6848984823928896 10.735859003964284 -0.49006794627037537 -1.2047335807536155 1.0882433242736547
Ni 2.5937539266577017 1.5828043478300515 11.901917150650304 -1.451367165720597 -0.31582608480224317 -0.18597766184782163
Ni 1.0666914787822641 8.060207782585408 2.686517617215331 0.09159837833428741 0.5614433126895685 -0.6575863729717449
Ni 4.853656806948849 7.163825636840062 10.068529858016124 -0.4577571499528117 -0.5836051934985885 -0.28757197505255633
Ni 2.9631622652766354 8.305861462444138 6.3268266251472145 3.4156107909656535 -0.06933519606071285 1.3815383178529175
Ni 1.8421206147860134 0.3249931054109723 8.138526607423728 0.2214671130036831 -0.35137955642682067 1.181802425878739
P 7.994296260543774 6.443265159538375 1.4579263005834917 -0.11353914427143673 0.13737455612813762 0.030280910371728496
Ni 3.1485895874983725 2.6277375654028776 3.8532688991455633 0.40586586040015915 -0.3196457156586495 -0.5551736776307729
P 5.033981125600982 0.15336754311109146 6.16568268675688 0.2494126903740156 0.03959241758064149 -0.13787129325889805
Ni 7.363224819102642 3.7616868131577945 5.519122128598595 0.588406985762606 -0.9796167868124871 1.4762441314679349
P 6.60694331681372 0.7952462546788671 13.019582268297723 -0.01606373833108201 -1.2141715862380635 -0.6095759065307372
P 3.447228999608348 0.30583000804896426 2.1087739275160273 0.2846041506734841 0.0884274368054735 -0.9324704681439876
P 8.425004315839297 4.673487124768524 11.198522231345411 -1.1073761884483637 0.3960648151493373 -0.2214303462284767
Ni 6.712650989687834 4.568880099723148 1.6295609591464202 0.06206745875470601 -0.5713400029779901 -0.49625376336611315
