# total energy = -381171.48972471425 ev
CRYSTAL
PRIMVEC
9.23367756949760 0.00000000000000 0.00000000000000

0.00000000000000 9.23367756949760 0.00000000000000

0.00000000000000 0.00000000000000 13.51442047738823

PRIMCOORD
 96 1
Ni 1.412438738190877 1.862755964390365 12.3565453136374 -1.0521784602302975 -1.1801101257779805 0.09964053191247356
Ni 3.827553300691791 0.7784350387705103 1.396607597828782 0.4735146698973845 -1.1834880411112778 -0.28542638946446325
Ni 5.869017862672119 7.539685630531328 9.814037393819667 0.28421514276518145 -1.4135444384458689 0.6003438464095081
Ni 1.5524028242851549 3.0881942624452536 6.354534791510477 1.0347875184473598 -0.4246817075550815 0.8298317728351388
Ni 4.73355251981598 8.086162375967247 11.7778578070238 0.6268051259248302 0.4134207899292816 -0.4099459440068037
Ni 5.225753707918335 3.864949695247922 2.6698274077132034 2.0202036855504435 1.033990476467361 -0.10579960953533392
Ni 1.719763232020924 6.570694262354813 3.764644254738479 0.011317996115980508 -0.9487411802795532 -0.5413064327303775
Ni 4.258627542630792 1.920863497956224 3.356549866412279 -0.7993012083464492 0.052353573901051775 0.31963645968726884
Ni 3.3400335871672047 3.8056787182958725 11.26231018830522 -1.3018318058602096 0.8140313154677723 -1.0009993662533212
Ni 7.763362238365329 1.1777371192210686 6.301233387170907 -0.2678403009515839 0.19818963053298125 0.2738785367258638
Ni 0.3159219711068897 6.365817422253228 10.686339229661598 -2.6190876595849732 0.21523604449230674 1.377582418528963
Ni 1.0225189976189568 4.331038042904662 2.8730440325700504 -1.130830562816562 -0.21421660208885687 -0.44677442568906284
Ni 6.516234031467885 1.638165222467214 2.7353726686407818 0.6380539593657721 -0.3431985632779251 0.5217074275525273
Ni 1.225983085037311 6.6183308054449554 8.485096956046611 0.35318189974288206 0.40149807034976653 -0.4593995706522411
Ni 6.1122144650966534 6.033312689422052 1.6459215117084856 0.6565139658431726 0.03673232242402706 -0.898104589069608
Ni 8.372526421490525 7.513083405169301 0.4658233411076633 0.6710957203120894 -0.5048859851198143 -0.1296548188863767
Ni 3.9452549899280864 6.045371872456696 2.385024777083615 -1.4843058254301469 0.1594929852937318 0.877395895767347
Ni 2.1318068642858043 7.1377251742801 12.143923264707743 1.0391000297797848 -0.48546824271483485 -0.42387078161801195
Ni 3.5994260602217274 2.4386696742324423 13.174884613818717 -0.11890195124524684 -0.2742919701141986 0.8825116197273575
Ni 3.9690686446343233 1.2511540903607707 10.741166960919719 0.6417997995614495 0.6401764050254137 -0.7163692474379082
Ni 8.4882890384165 0.6349132166706826 0.6114596753935044 -0.06050834179770223 0.6273869665702292 1.4615477057980248
Ni 4.469764816191404 5.465755457869679 9.431430725960945 0.23614914049589006 -0.38100226438925994 0.3393282816892414
Ni 8.41146484021724 6.011355003927119 2.393011908266591 0.3500713791383584 0.1494003769444201 0.04948216589052768
Ni 5.031735672754529 8.900231100227032 3.6483396209333794 -1.5797320621509565 -2.034822721015199 -2.6429801499318546
P 5.371756619207602 0.9537835010570221 5.050217801975159 -0.3297336960222709 0.12387909274486407 2.0452264328470258
Ni 3.6724459832216976 7.088703579539731 4.801336024210325 0.42454595330816564 -0.8154436224342666 0.34182533707948226
P 5.219068525286572 5.140693069239057 4.528682143288762 -0.7152407902604198 -0.6542423962001764 0.06027591407192201
Ni 2.4656966487672065 4.5959153204940835 8.396076916383219 -0.006280947912705312 -0.47195246761658716 0.3556473305642391
P 6.835885484984953 8.018941202542894 7.994171862198 0.013892441711376073 -0.12362686752474192 -0.9236173886287319
P 1.9448525925381568 2.3966472071645533 3.4383925684241956 -0.096772209225743 -0.8056256079025803 0.3196763117862688
P 2.0240406122204715 8.831486369987429 8.307422530355485 0.39743701290651556 -1.127793061541819 -1.9664012950180068
Ni 5.904678325826632 5.051809688005153 7.291840794768632 -0.9100921004487875 0.7239177492091274 -0.06135114941397175
Ni 5.1022994374947634 0.2855819530247826 8.911084364958212 -1.2897594480767076 -0.5114592674619579 -0.34900462843674085
Ni 7.484191227745565 3.38359807840568 7.28888140107598 -1.0766209095433779 -1.1085925773539682 -0.7780111886194214
Ni 1.5440832807061247 1.612495598549673 1.3527660962602617 -0.23271800332715403 1.8330962809735527 0.3977871971570826
Ni 2.880611954786891 0.15764934893214375 12.343598774178844 1.0078732105550188 -0.5526180010884547 1.965719952680266
Ni 6.238605045018707 2.162619646664522 0.5567307444864326 -1.6451237001828893 -0.38982809021100606 -1.263626498435082
Ni 8.225627843467443 2.800657539858117 1.435096336453058 0.9773076790633363 1.419935172463561 -0.00126318298313976
Ni 0.5552154979810842 1.1949856291052297 7.644689166238342 0.4538146203652958 1.5390021885317624 0.34120261589381884
Ni 3.927073878599439 3.9303518341716432 6.732330713304077 0.3809711540410084 -0.5811577603993603 -0.6995904853176725
Ni 7.550082751585699 9.442820467364646 12.103298776438818 -0.6855041824279356 -0.6983969792302037 0.310253218700156
Ni 7.21958172680852 4.466708468883236 -0.04878982943089821 -1.6976166278752827 1.169050011309077 0.921300053349465
Ni 2.92786068341497 4.1977499057644785 4.318127514789012 1.4664176322958165 0.1373071932253119 0.05103305531741534
Ni 0.6129841555765211 0.3173928959594308 5.1934164453566 -1.0048789038133854 1.2854086273071799 0.5485769982498617
Ni 0.5368681804544098 8.21554466745379 2.5808627701158193 -1.5295335869196949 0.7718803931313352 -0.17910741709054961
Ni 3.7216060831270896 6.908997744761605 7.509099073255482 -0.07629620075957827 -1.1378355333794854 -0.1917186780966569
Ni 7.954979517335408 6.2156778233686145 8.814267407871807 -0.490728976893142 -0.14961275006554237 -0.3764881785689903
Ni 1.846421588595354 0.10257600184804881 10.314178621348889 -1.5403088231583277 0.8241753458803096 0.599420049043658
Ni 8.984654615147205 1.5893006002472037 3.1913898440648376 0.8414084219291444 -0.6812587768880203 0.6785056396229153
Ni 1.4496319918383076 6.273489879249092 1.1896125520701155 0.16102279167469688 1.2664752807377866 2.194342702892124
Ni 1.3478491629019553 8.799094628727453 0.4517641434900919 0.1429376520382119 -0.9518666132824124 -0.08754683397273309
Ni 5.629043813753779 7.766917204267578 5.868623584635688 -0.550797145829632 1.894000829768409 2.6108048507508905
Ni 9.010037995057033 8.35078111058196 7.591536424109228 -1.171699276006466 -0.9784145389742698 -0.21977455579260863
Ni 6.697952807977675 1.6747767544215495 10.463972880688713 -2.196148131531979 1.069576858212403 3.392982512043176
Ni 4.274103186402662 6.932977605665869 0.19521471978960192 -0.6209494384750015 1.389587156299323 1.6269732545261075
Ni 5.3105465699452346 1.7117022314166026 7.025120475116641 -0.13089974703707133 0.022837309609489702 1.0278321701754491
P 8.860867932327578 5.238274574836387 5.4646640371693 2.1234998119376334 -1.4192191202331428 -1.1359887099787338
Ni 6.28273279059494 6.9426544998621225 3.949305804321117 1.1269523108080783 -1.3327889163633562 -1.234464532159145
P 7.591615833737174 8.294058628666328 2.5263859186090887 -0.7455484401050256 -0.6585657061658787 -1.1594675098269644
Ni 8.258795213651547 8.357706368833094 10.141788629387262 0.07651345897670694 -1.124709794630805 -0.14899311420367245
P 0.6949515122369581 3.464392758002258 0.23673487479234173 0.43616425427338434 -0.5021912118964706 1.629467481702871
P 2.1176978048088246 5.558433880625205 10.4222126500666 2.4527066889221567 -0.6799362014218547 -0.439486633778398
P 5.22531972506793 0.8411003156333832 12.55528822166401 -0.03821790583061805 0.08947310446116849 0.5615309873073684
Ni 2.3149014587681527 -0.10397213391147768 3.696640065447864 1.5213973309658058 0.7225764046898846 0.40728999444119535
Ni 7.656814831752197 3.921478269932522 3.462895055484479 -0.6984869678408487 0.717702621537351 -0.5696592728414577
Ni 1.5349604071699623 2.7190779976597437 9.796157300383003 0.4685634965396962 -0.2807238417824714 -0.382957845453734
Ni 8.918615352464379 3.066402783148348 5.128885042236988 -0.3914998214864741 -0.29389071818173257 0.39799828472662424
Ni 3.283975930043682 7.583804142429894 9.80111763202635 0.4970220089907053 -0.47799224605276397 0.34682716116944784
Ni 3.167012935020841 3.5439962931796405 1.877720985787185 -1.0797766815635403 0.17265780481046394 -1.3332699697648327
Ni 0.1465624721559596 4.519488170434554 7.518302279787356 0.5770794765649288 1.2587493728484385 0.8846206956505605
Ni 8.940933151388371 1.315411253253638 10.439551649991907 1.1020784303845341 0.5682330819178923 0.9529475050514168
Ni 3.510127163492755 8.935623786729167 6.504504490725996 -0.31613718828475873 0.5379855958872606 -0.11726390142119159
Ni 2.9933643927930413 1.6259213658792069 7.973507814944378 -0.12432749313619233 -0.10872038272655471 -0.45800320452534676
Ni 2.017420065332386 5.396096593540926 6.076935352829836 -0.5315722361617491 0.42203475685053765 0.38790696192889323
Ni 7.306775345029147 0.013171841193659285 4.409457820604984 0.7328497615914347 -0.34143915738465713 0.06025457391568332
Ni 6.86919136033408 6.928665478194829 12.12159715547385 0.9956311599628724 -0.2649195277603631 -0.3828184916623923
Ni 7.6090951855630395 4.358849880041221 11.123192830453114 -0.21441766235606943 1.4540028035712314 -1.5196944893420858
Ni 8.058156631599656 2.668680584946815 12.462823096862621 1.1704744024604294 -2.4292399732587837 -0.09085892906510158
Ni 6.057043241029276 3.596914499895982 9.187832458557846 -0.35373545825350694 -0.09177269912862258 0.12573131546225444
Ni 7.271456527948357 0.8707856659688162 8.722896473874094 2.0662120339597574 -1.101151804805207 -4.397028378432305
Ni 4.928770933076649 5.593632659896309 12.084419599078455 0.3983212152836817 -0.6681803464375072 -1.806992127687333
Ni 2.983936807893829 1.6597350935000834 5.305179956484489 0.15056585800743102 0.3754952185281017 0.36018044254790227
Ni 0.0037008580094066885 5.443613098821382 13.227441783738232 -0.24483149876123644 0.6244749351297568 -0.8849924771676823
Ni 6.040404153871214 2.860944221353667 5.15880585135296 0.880763012467367 2.774390518056757 -0.7811425351595515
Ni 5.406364443107943 3.0605301641513853 11.798697294153117 1.881636394665785 0.44518702659728493 -0.30886970808906805
Ni 1.3210437966312278 7.574662801538396 5.975400909822759 2.2150300560381466 0.0306946008703794 1.2672214148751917
Ni 0.9582895357590943 3.9300378891309253 11.750761579906525 -0.5116490148752608 2.1706047358452363 -2.475955375037452
Ni 7.40439378533715 6.3970457201270134 6.191793992712099 -0.7064260201822673 0.671618682695095 1.8095421478026965
P 3.9186989329543995 2.9244072879670706 9.345721883109363 0.8060621812193667 1.3034233187170454 -0.5316750802882004
Ni 2.714590430313008 5.209668641420365 13.286499462736147 1.0203271200476558 -2.380740740106816 -0.4964226848438096
P 2.738385617663909 8.051000531406816 1.9197231387642038 1.4643306678598007 -1.3006436990893793 -0.12248915437587292
Ni 6.313287029998949 8.492942811961264 0.6124365984907978 -1.2251378554415806 0.7448048770707818 0.28241639899354587
P 8.711457793978752 2.779974101881393 8.922396543469498 -0.024947928194589294 0.559930475589468 0.0947433517211723
P 0.4538241769778629 8.384123920641759 12.10960999512502 -2.128574141136747 0.6184796367782703 -1.651703410282936
P 5.028217641562952 4.198423964234255 0.15354774931193804 -0.7037590148730654 -0.10467963699827779 1.8766008891244066
Ni 8.845752401984766 7.274429772157512 4.627702255866795 -1.017352353690048 0.21512317306352627 -1.279220753328913
