# total energy = -340859.8377481016 ev
CRYSTAL
PRIMVEC
9.39140150458400 0.00000000000000 0.00000000000000

0.00000000000000 9.39140150458400 0.00000000000000

0.00000000000000 0.00000000000000 13.74526539937120

PRIMCOORD
 96 1
Ni 4.577960788886889 7.966735352577604 10.569490926104223 -1.3677173528094253 0.3211120157915308 -0.1811460447871332
Ni 8.919089212703712 6.384077575341596 9.346684422388169 0.39588560925899563 0.033493760882071344 -1.045127209810471
Ni 6.20010001836949 7.603062717754334 12.391040602777013 1.1854353946456357 -0.15894662587195849 0.129371483318003
Ni 0.642283588966645 5.714442468410399 0.006471614829478248 -0.19226143797400436 -1.74675015217714 -0.28929307150872113
Ni 0.672540806580363 0.7045222855243554 14.225662171310422 -1.0519046377436205 0.9974882677762693 -1.5881881633381099
Ni 4.873658459066764 1.61733083187312 8.290718046039185 1.3109530514351873 -1.044255605838795 -0.5527871796764673
Ni 7.381970341734052 0.9884074507956286 4.236455618355449 -0.49254391861469365 0.6632320012932965 -0.5182132983563398
Ni 3.1037079601005506 -0.14434772058053486 7.545188205511322 -0.9115059500771786 -0.6713916542859534 -0.43688262049664767
Ni 3.788388092364535 6.250297059820021 1.6252402702846518 -0.020629246214577374 0.07368267439613116 0.23883594329943386
Ni 7.637059591477612 4.275773660214532 -0.10709015222832748 0.4836417310290575 -0.6883552787234855 0.9237199756448672
Ni 4.085485081379982 7.865477260731088 13.067390561838637 -0.3109841833289096 0.8777339958330562 0.9045482878124228
Ni 2.8442611000233975 4.138490151903237 5.416967945051396 -0.5358865472663867 -1.9379011306957852 0.9072644011920052
Ni 8.88856715756541 7.041719862453835 1.462990660010384 -1.1588280764707526 -0.49272569560819657 2.2294837695696317
Ni 1.5554978438637095 4.016308017334216 9.569563982129319 -0.12755782714803193 -0.5415913109606479 0.9679424357983525
Ni 3.944642231869482 1.5067282954534924 13.78760118370408 0.401137087465922 -2.623769638441675 -2.4056308184802764
Ni 5.077620918603274 4.195561699311072 4.482289641840919 0.04574429611465025 -0.036184420340357036 0.797828994676297
Ni 8.435601076509837 4.367424348243668 10.78819131214182 0.4129968150179855 -0.5174676784395669 0.31211084073418505
Ni 8.531083456384028 -0.0023919899826848204 2.104386761527623 -0.374336165222994 -0.10776676056403377 -1.432737466434552
Ni 0.3630142975724412 2.2851815725039235 2.7241328649801453 -1.3022917762157638 -0.1117270307633624 -0.33587066215794414
Ni 1.273126572527296 5.840700471265581 11.188880156296666 -0.004615901505456567 0.07227885207006907 -0.01620283501210758
Ni 5.187998061384957 2.723187150840937 1.3984294698416881 1.8549982232529665 -0.3470223078993894 1.2707595099354374
Ni 6.576901832603021 4.764042019813143 9.19151405062567 2.3499561506257916 0.7736045749112934 -0.7320293225726683
Ni 5.715015343906842 3.1323235607179067 12.15096632588118 -0.4869862220212581 0.8473576975340439 2.1526286109827892
Ni 3.1101410701835466 3.9246948949114038 2.9649500017410366 2.421607910634823 -1.1904549593474143 0.09110575496858503
P 1.5914105635095153 4.442724606120256 1.7272853615836574 -1.5056992035042585 0.45542875892995116 -1.7170539106642881
P 6.839569943422462 5.275563489726352 11.970737816420215 -1.3956940405280092 0.8692848366244385 -0.834183364935615
P 2.027068291451275 1.0093127107149706 12.485086098209308 1.6554029706217104 1.6417866653898563 0.31756440764958854
P 4.803739474296099 9.405770425435133 6.267675848445691 1.1813812791809202 -0.6199155978938485 1.0396962686028868
P 0.4048952529229829 2.3786635838413583 4.940447289690478 -0.5045129180511118 1.346347114663765 -0.6259453490276962
P 5.914751672731893 0.21452309061436206 0.398695049599196 -0.8645815176114982 0.2485724538609074 -1.758104915068327
P 8.137809123777394 8.982518738981895 5.871304231597638 -0.9337416215469273 0.8106060918363073 -0.38713923052493326
P 7.088564173539944 5.60556794988168 1.9397733354754132 -0.6948082334376808 -0.25590781118005607 -0.48681472944040033
Ni 8.614601190644006 4.29581491118842 2.5052399552101368 1.0330167997001822 0.766535583879654 -1.45513588873441
Ni 6.722468557108771 1.650341608430392 6.429884136553002 -0.5803409209250199 -2.162197228507831 -1.0329386381640793
Ni 7.770023055061639 1.9195367433486394 1.1665444951245014 -0.7629167561801442 0.8687929845896845 -0.6813881033770329
Ni 3.1762847115186434 5.901021443620448 4.296701459497668 1.0927440403574857 2.1711510952670094 -0.6657110589614084
Ni 7.40543006288343 7.985396067519084 3.513111085782421 -0.24562314142459632 -1.1292580761231197 1.290485784719771
Ni 4.425312947589052 2.0598255001658594 5.858259574801607 -1.2055259947479238 0.33121825098759733 -1.551772086602921
Ni 0.4313555268774959 3.188887972440367 -0.0702974582543804 0.40010581798793027 -0.39009085695408946 0.047639970475466344
Ni 4.240029985797184 9.513583715585197 4.277705471519746 -0.8587152886387082 -1.335401414285539 0.8665522681846237
Ni 8.319119522700493 6.821707497615368 11.486671169888949 0.995386133831602 -0.15313181896239433 2.0003174881494776
Ni 7.923807255950779 -0.4662849667777694 10.431446714264865 -0.28801703300977494 1.1414211938482148 -0.5376971181125643
Ni 0.2678239902874194 5.195379703027635 5.813024010806326 -0.5029867112145724 1.1092574646314768 1.8354493545867614
Ni 4.953457198300659 7.824211442184103 7.7078641854173675 1.9719445934337394 -0.3453215231581988 0.025792278472755576
Ni 1.7484066237393627 7.614107006013608 9.418256293837093 -0.4012399315923735 0.04607673975340452 -0.11093127433494444
Ni 4.832646208362466 0.654768518228448 11.690596063819134 0.850791148695625 0.23834177727183467 0.06239630284903448
Ni 9.257987330156261 1.0795416117378096 7.430306007391225 -0.9233865035648483 -1.0074986008244198 0.6122354556407714
Ni 7.293841429297795 5.508132158478636 4.462152598570904 -1.198710514487987 2.2042283374369522 -2.65783829799061
Ni 7.633218508230977 0.22477004887940877 12.893705041859166 0.21746544804345774 1.8113156947633513 -0.8417899736382792
Ni 6.503780379893228 2.3380175977987205 10.29583581457515 0.9898600618070501 -0.8188842726846993 -1.7672418443725888
Ni 1.5159318690028885 7.863861939659153 0.19560880783019546 1.1918335848624957 0.0915011906347908 0.08868017624622793
Ni 3.431402135466948 2.6134392319651822 10.937877105381004 -0.565037200688414 0.11979258138031625 0.7065640884220283
Ni 0.2086572211868593 7.687923422440396 7.018648945329911 1.2479396838274441 0.8176750828679465 0.884192092753574
Ni 2.2992123264659616 1.4798782783333673 3.7799067175967194 0.5781143455873463 -0.10414099088598838 2.2471899286001427
Ni 5.1865423941399 7.185999964942986 5.075975545046279 0.14509017960484044 -0.0902583193666252 1.2252594686211091
Ni 3.3974146531452507 8.831758569401844 1.4898632164943038 0.30757901430210255 -0.26879572288631776 0.5052189429792009
P 4.862801998839109 7.838411241374599 3.113371712327416 -0.556909429374957 -1.7713630656298138 -0.6824743944626762
P 1.4757554530393011 -0.017539381592705815 2.2753497141887578 0.0798540933141657 -0.4538099923796055 0.5765246325027232
P 0.26343069262782 7.379641274141959 4.054949878279466 -1.0222739593613812 -0.8036018926043322 1.0193053636513607
P 8.80880598393784 7.982287513595767 13.379297791147346 -0.09280165461376921 -0.8560904494213514 -0.7965105329751895
P 8.213193904268211 2.4656937022926355 12.051312285424702 -0.4814640066514483 -0.07674177293742912 0.15538436244199694
P 4.566033708878998 2.0203158737145244 3.4911737108293255 0.1824565360684406 3.1555439633119007 -0.3522375335517417
P 1.7720353901171995 1.0463617899520794 6.381858387148003 0.3671262777381161 -0.17369653048762343 -0.860014467066106
P 3.182398513947885 2.6856121531152914 8.565224957691655 -3.3144263116048274 -0.35657061370945686 0.6865822459834626
Ni 4.691690662032995 5.31604043054053 11.355142712466503 0.31668920413348683 0.5115538840582932 -0.6736138587482527
Ni 2.3521610485797306 8.200280727094315 5.410383633402946 -0.7675542549521556 -0.18753060815723832 0.20327887213043055
Ni 7.752818007365218 6.751055983521384 6.196764192527913 -2.1819808388926614 1.113386656308502 -0.7889769436023056
Ni 0.5617541986897475 9.004053222807165 11.711612142277133 -0.2769296648473618 -0.008329602911617912 0.0466521526409003
Ni 4.573415350521677 4.010936135629875 9.269436387823678 -0.7478336365947766 0.3091093349036999 0.7315824648432369
Ni 2.727394498749232 4.593569298314538 7.648676755233329 1.0591764888146857 1.7267585395465619 -0.6310009091737326
Ni 6.038530345569687 7.393427851662891 1.3677327346339787 0.30779318719543763 0.8685330460600784 -0.5045224311328086
Ni 9.374844540028846 2.0042284028062434 9.93006044493789 -0.8916650040918516 0.23809469425803514 0.15672622118187202
Ni 5.521026552849372 0.3920985291286902 2.4227271009193285 1.8217163212713852 0.4656486368857465 -0.6196595160189845
Ni 3.596831674316548 3.704184785789144 0.3429636551969717 -1.9228205822135787 2.639481135639661 -1.287900283380782
Ni 1.0774191549805001 4.592714680770666 3.91070640225648 -0.01876391087106446 -0.6224573904790958 -0.819347328364047
Ni 5.433658343941178 5.433667735342759 13.684429124215352 0.02898301749591137 -0.10994062828690099 0.5615754673920585
Ni 1.0349794112358879 3.1310932871107933 6.97991410950901 -0.3070912760324066 -0.4184069302899633 0.0024841998744344314
Ni 7.782429096550161 3.579523321202735 4.943649757629603 1.755683707221344 -3.633016075195137 2.1239497549908584
Ni 0.1386800097263916 0.17754162946863652 4.0729832475953325 1.6545470503793183 -0.0508852168856414 1.9282731206877177
Ni 6.541054852768281 7.091081069163656 9.958678862975722 -0.1590600115213712 -0.492510494273597 -0.9823724951807532
Ni 1.7004635186682753 6.7602501656691985 2.719967778378965 -0.030006573664419292 0.060587531775069856 -1.3087002508452688
Ni 7.54656404584294 8.675203905046303 7.922207900261532 -0.9903388012156815 0.20486241456746654 1.1256485043949904
Ni 3.727635115536941 6.45056869853519 9.02875636552587 -0.12997363567837616 -1.8484005154307908 -0.05433075223208062
Ni 2.993847344405823 0.4019153612013264 9.696583627652721 -0.2873907122796857 0.8366392826752753 1.7212077849316614
Ni 2.921148504767177 5.902411371054439 12.987268758390355 0.08731800579137865 -0.6734881318036658 0.1155741724235945
Ni 5.558122589094386 3.6864162539978613 6.979144953719524 1.24569588209859 -1.2615264213729436 -0.22784010640956243
Ni 2.38135891609511 1.9889767666386733 1.5598263408524 -0.0755220415977151 0.4551212549918613 -0.4981144707239357
Ni 6.682414229365738 3.3610699290267174 3.041731283646951 -0.9551342282900904 -0.910125010569252 -0.7709745934876142
P 5.835093804521714 9.654548653316251 9.651733111122264 0.6853879685650454 -1.5430308500751813 0.9639970779973591
P 7.715797102332852 2.702986246040171 7.780768696750638 0.951344165120039 1.7209743287646169 2.197893139247544
P 2.116699828140493 6.863921847722037 7.283547514024844 1.5215554538102245 -0.7539382068306177 0.18696882211649735
P 2.031754600840202 3.9328184572789824 12.211060026317787 0.11916034711295606 0.6920409551051888 -0.3944339644141336
P 8.19996141944056 5.354423088802145 7.641185234192153 0.6629322106646905 -1.033342301360401 0.4857448934149893
P 0.5356630068173683 -0.06300503492672133 9.514293705544722 -0.9255387740211608 0.8602726058234991 -1.5024819821185416
P 5.074784715325807 5.555145514793203 7.2747092659969494 -0.9905887124429585 3.0835564172300054 0.8108112658685778
P 2.4803536801606016 8.05412234428896 11.587355447098867 1.3272229922398044 -1.7555674933584537 -0.07969777024195952
