# total energy = -340892.19980502 ev
CRYSTAL
PRIMVEC
9.03665625281872 0.00000000000000 0.00000000000000

0.00000000000000 9.03665625281872 0.00000000000000

0.00000000000000 0.00000000000000 13.22605986521468

PRIMCOORD
 96 1
Ni 6.27407796581474 1.8565900113419196 11.507174729335324 0.9911710673089897 0.3032449057031229 0.02401307508514574
Ni 4.913952798319352 0.5218840535018929 5.95590634479884 -1.3443640227954652 -0.2768967547268973 -0.7247916671736485
Ni 2.5223837152695645 1.675152032224159 4.663707009439844 0.5616310032203424 -1.0629794075005436 1.3282586325931705
Ni 3.629157195219105 4.372259491205344 5.053333276759157 -0.0957036587519126 0.01901639320150273 -1.9690896404834475
Ni 5.090863412782366 4.5692947385747855 2.9907689579350714 0.5026054166157538 0.11518156497086614 -1.5289283492355281
Ni 7.36965502898338 6.478929920622017 2.624103026174199 -1.5989492585093559 -2.1544358393948575 0.531312297632143
Ni 5.265126287038113 4.068917022681338 11.86876115676 -0.14187501510165243 1.1550426412863914 -1.1104026339795134
Ni 5.591322458579792 7.983578327485388 12.436953553921072 -0.5072241463346877 -0.5031795439516689 0.17618792945090947
Ni 2.0698731661948626 6.269650004375966 0.1562130575663454 -1.1845828168373536 0.7098108774941001 0.3048132786315073
Ni 2.5722208730957647 1.471998968744411 0.3939936831629052 0.40286589723157074 0.5487207229165776 -1.7128763822478306
Ni 0.7416347430522452 8.820905835557536 4.408801017062426 0.2643487428585577 0.6329876005864582 0.7502687283988305
Ni 8.523672146487838 2.3297764293388967 1.439842028377315 0.7548931145447192 0.6736274855950076 0.16391476851051123
Ni 7.0714182710979605 0.5315966513680036 4.732707299974337 0.3106867066931488 0.9154222544124493 0.9377985652251204
Ni 0.5685610927257684 7.294849590636094 2.3825559223578825 1.5417450413842222 0.11851705710200235 -0.022200447356439185
Ni 7.716418629575363 3.881758840317161 3.822357285783209 -0.8078871502432473 -0.02720355699798541 -0.2156600194036028
Ni 7.447460637121836 3.7031041512466296 12.843152144674196 0.646299487204016 -0.18123860450093948 -0.26017070022146804
Ni 7.9967266619617465 8.539151938211551 7.178020990903643 0.47641178893952146 0.9874838482653896 -0.7677049215974068
Ni 6.659256391052086 0.8772116929827045 0.4228224231261226 0.0171302319223834 -0.6848367240472657 0.6553435996841552
Ni 2.052866179607572 6.63291453881938 9.04744486109321 -0.48248087795173683 -0.48409090275133404 -0.12676567026403976
Ni 0.00890200982313508 4.971181940751505 1.3542423044410172 -0.007066677038794281 -1.1275246383717807 0.44906784970892977
Ni 6.565862551317946 1.9623821431046262 6.91703061804311 0.24269028404851753 -0.446948746483398 0.3679382321164502
Ni 3.5047314787895574 4.39502282766304 0.6070283299759169 -0.9332739378818894 0.23321988266423707 -0.46644722152764184
Ni 5.9762478574492075 5.6692365065902175 4.83876691675457 0.32704869299093997 0.7602448657749359 0.5003675284241705
Ni 5.495868261278222 2.7783560330546875 9.318578880310934 0.011621900509644501 1.3876621713624682 0.4977568302742008
P 0.03534416893741338 5.5133632272893776 12.494010096223672 0.7935013138352205 0.6145021401877611 -1.2595029631850116
P 4.142882052020857 6.16999376203556 12.255094466633826 -1.0188268813530454 -1.7592153745236867 1.7493014578440842
P 2.435848697437526 8.44533337564553 1.214572653009291 -1.0903819678832125 -0.9659773416521816 -0.01822603608972345
P 6.352362516721064 7.845733176899556 5.73943505770998 -0.04797344255548512 -1.5882434420560776 0.6350735365812095
P 4.408659141563265 0.8910450059836741 12.664997182680327 1.2140918820400637 1.3919415154641124 -0.668545700196726
P 3.954540067721008 6.054125758835643 8.270439742801157 1.4782339082044542 0.20430011430609332 -0.37144598815939256
P 4.578457907756249 1.2537817997168343 3.7125817960568046 0.35216194311879995 -1.2893897234421148 -0.060511427121495785
P 0.12021915306271193 5.499591363549191 3.6938397715179945 1.1762203038052712 0.4131533952005078 -0.32568292299166485
Ni 1.4742400594317906 1.1386096190287247 2.3267021589685477 -0.4818668985168217 -0.15155804671737128 2.1346874531233366
Ni 1.8076655557714665 6.600798263404272 4.818822113302493 0.5459737562990598 -0.7802516479141659 -1.3563049972074255
Ni 6.037444091864263 5.61931801886004 9.196369855597572 -0.38960877511134834 -0.6011406312791906 0.3680084232327533
Ni 8.675045171101925 2.171246373174793 10.055125082370987 0.07847546779908421 1.1390871463983994 1.8181939099404236
Ni 2.5438728832316144 5.327524396700836 6.783050445227408 -2.0511391987870353 -0.2235952150902794 2.0476574108860217
Ni 0.4215554839552735 8.952967526304969 9.148637334953188 0.7902923199796196 0.13007570847387923 -0.1191811730485625
Ni 1.270680346432155 0.8299852250741813 11.337126551436809 -0.006898526892046184 1.0305575395264124 0.30941555329020903
Ni 4.076074054231356 6.848646627447645 1.4784222238274323 -0.18610595989556983 0.3802959823508547 0.6965262445700521
Ni 5.740960445242357 7.972047554432581 7.881765939023979 -0.9189806611876691 0.09970866614624764 1.055534521186724
Ni 5.461935618007617 2.899555663293128 4.71770916201529 -0.3542576493055641 -0.47422866524527363 0.6272380996971907
Ni 1.221846257421677 7.513798728799467 6.857989626083457 -0.6061108308002723 1.236354035872374 0.4816905208399575
Ni 5.030887126926973 4.688117728285883 6.925323557252013 1.1965937252553005 0.09823902357925662 0.6897182205092831
Ni 8.080062703570672 7.048392871616335 9.20442513075374 -0.029375110728007473 0.5914357452866007 0.574700691920107
Ni 4.786029896018772 0.33863512852223365 10.489151151602808 -1.0643449203895026 0.2649894617663501 -0.790113371199594
Ni 8.234155761640004 7.138144938983484 4.734664639663396 -0.22899556017024433 0.17886393362117584 1.2565737053533583
Ni 7.169990114718666 6.1987393647636 7.088532793891621 0.6283017650750147 -0.9181378535713994 -0.9968956284975928
Ni 2.1454828669259265 5.203839686063083 2.641998316046044 -0.06316223448078154 0.38928918698840054 -0.36010948010065075
Ni 2.3150105334389854 5.176314031894705 11.157067566024264 0.06783110071136061 -0.2924665841406963 0.6226088284552955
Ni 1.0232024852846804 3.306042523372574 3.729325815954569 -0.1871212885339616 0.32559987635955534 -0.015729494920114846
Ni 3.4401736083434336 2.891874505695255 2.8535617952626633 0.21752612607806407 0.21000847754478025 -0.5392405513402843
Ni 0.9549395858795822 3.349481728752546 8.2211727979684 1.0509885536872545 1.6230898603113013 -0.44505847143922056
Ni 3.643353781791174 2.850775794218635 7.1500742285657815 -0.34895423481477966 -0.4965183298814094 -0.9254073906496192
Ni 4.12921862815264 7.013303536378052 6.079913664055702 0.4342166436287103 0.17882510996344042 -0.7071366730960467
Ni 1.0660814179928075 7.313618725142897 11.100195371504013 -1.4465010958775477 -1.0607685158921538 0.20769705580278422
P 0.2933831699491637 5.856566385418347 7.827869515323703 -0.5303332215483254 -1.4159592185349483 0.11498821801313745
P 8.584732831062931 1.6838904785737394 7.997771299395057 -1.1333479299217772 -1.3479735945235947 -0.9603255426830428
P 1.7043042844720868 3.164013401059901 10.306036872797511 -0.48199776766773117 0.6326235323788202 0.5728104168759297
P 3.753872084640572 6.165620020532771 3.7122772607496892 0.8129596796701483 0.8473373858190697 0.5148130144255391
P 7.089383143220986 3.8157641415674344 10.50666238359476 -1.316154393130469 0.32123362897105967 -0.291506277109956
P 6.37270402937143 7.820999849434405 10.35638821634997 0.29068558098087355 -0.5227340690448289 -0.8722135802354593
P 2.672609084571968 8.709167584148476 5.6788469902435565 -0.9477055399261871 0.3829907555741985 0.2579695788050912
P 6.892962388459374 4.081315314709904 1.7581537175611763 -0.09936902341864177 -0.491180976828896 -0.07673405962794526
Ni 5.104427433434609 2.856279117721111 0.9265843666906335 0.8272516708127882 -1.0598190074946907 -0.3843850648185638
Ni 1.4873341739721648 1.295404637241309 7.178747538045842 0.8639590535361508 -0.9894103758641412 -1.135617442682244
Ni 6.924879857442536 0.7095094309811405 9.234672625708567 -0.19753297078558885 -0.548647703586797 -0.10585694513583058
Ni 2.9554564172936493 1.8014573731011856 9.200721909125967 -0.27288891911908486 -2.452747055241789 0.3910640195006362
Ni 6.5572686914643254 1.9393838535909944 2.7649076815992113 -0.6645234664112103 0.10856046010992271 -0.30726893926085147
Ni 4.270705551105464 6.9453478832768685 10.310679002983425 -0.2710510945793977 0.3580302289741189 -0.9185638853652245
Ni 7.945018916344065 7.136563524183922 0.48323879412859366 0.2448924339061589 -0.34670631932086743 -1.179955345367671
Ni 7.625717713328477 3.8094836656491737 8.11405498877086 -0.20593893546109693 0.6340062716589597 0.0556075620619752
Ni 2.886579025280721 8.210705639326497 12.088816381617468 1.8125277127935817 0.33853612480524925 1.239377138969414
Ni -0.15440572636684585 4.954599676996097 10.042639134779245 1.1814509560765911 -0.4023899860364167 0.40128878255243794
Ni 8.712104497347662 2.2917321075894312 5.7355863459206455 0.297646585679739 -0.18081514381027572 0.05611329805380014
Ni 3.5037284099738355 2.7126595439528787 11.530029336018593 -0.45772989625930205 -0.8896672569355324 0.25401085126765927
Ni 0.9376163163323789 3.2511629114997698 12.418145561793478 0.05469096378497678 0.24787671334546343 0.4388618557102055
Ni 3.3099734687314855 8.651098032708555 7.822724947064327 0.1292627256542806 -0.08751392385226864 0.7454592228253291
Ni 5.4641224887590125 8.036325288542782 3.6951762929400243 -0.5898051516617133 -0.2991637936552138 -0.5081903669026989
Ni 2.965125639210972 8.468837717895022 3.4436165742784803 0.6225532926270116 -0.6360598117538787 0.047857228692595
Ni 3.4147444583664748 4.071844899224526 9.239407833451255 0.41202596646428397 1.791363677121457 -0.3096896328872021
Ni 7.061568316060688 5.957795005902317 11.569667723886017 0.3569233690631853 -0.14295693531192155 -0.38327126292909475
Ni 0.34843357462032054 -0.018758290519605925 0.5111738088136586 0.5692445539015422 -0.48033220703985013 -0.09700977915784584
Ni 4.485217691174066 0.3434236525353077 1.6553599482584394 0.29247558300176085 0.4220488979179247 -0.09862160372965596
Ni 5.744114238185484 5.450070488682903 0.468690681638222 0.7186647283403044 1.087967959125081 0.5585883597392767
Ni 8.120113162951583 8.395324521355377 11.591332202974419 -0.7670963414791305 1.1755672436023044 -0.25815444112238767
Ni -0.007282641068383474 4.691741427340881 5.839927190730154 0.26902532239862054 1.0920045910882998 0.649118958930682
Ni 7.764511712794047 -0.19880281728255253 2.571846755537469 0.29649781678727644 0.09757490763269647 -0.942008746651726
P 8.725876361087849 1.4822465366455735 3.657031664308987 -0.5253167421703404 0.9231790155397326 -0.5186753255944228
P 1.76301543848783 3.2364060522558558 1.5617989303883457 -0.5974302723071389 0.37567468152875944 -1.2679130416255775
P 4.845075406306424 1.234443355882189 8.114280001505197 0.12053511597329564 -1.6864557261624566 -0.42751969122450884
P 8.465394751959975 1.5021181431840713 12.57076112660722 -0.3649660368620037 0.45662432189994906 -1.3281262207803644
P 6.1156021295866205 7.830126871991878 1.364506138322975 0.0036825910579097866 0.0332109395343299 1.0206202258080421
P 1.863710896267948 3.399888195906588 5.92134655760201 -0.519345355078254 -0.9122703390470288 0.3679114926435728
P 6.891814733147691 3.8622758099865555 5.949530983992605 0.6798863220205258 1.4702429195791777 0.5478704591011403
P 2.5377189204973183 8.623418755388219 9.93286364505284 -0.3658548672248602 0.586477372840061 0.03973742779893801
