# total energy = -381176.1486724141 ev
CRYSTAL
PRIMVEC
9.17696493447155 0.00000000000000 0.00000000000000

0.00000000000000 9.17696493447155 0.00000000000000

0.00000000000000 0.00000000000000 13.43141580343842

PRIMCOORD
 96 1
Ni 4.357617443537102 2.410421545056903 8.970237957960366 -0.5155738038509636 0.09328142246366515 -0.34503947314140576
Ni 1.4909814529254362 6.654235449493073 12.823133355992725 -2.744361575794835 0.1608934651856842 0.4239371160795732
Ni 0.23034089598253926 2.7533463615332847 11.338828144878105 -0.016417779236391077 -0.09488244840219787 1.8606021997033053
Ni 4.622427936585765 4.145914045140247 7.093332102814549 1.7269002073307487 -1.827300243117066 0.93135126693788
Ni 7.8700456162366335 6.494712272314499 2.7927669310488046 -0.811169420538945 0.4555236326366026 -0.1647838013790259
Ni 3.201833802820408 0.2545891897787163 8.409019764744386 -0.7910721355684376 0.1799445682798643 0.2718751331425898
Ni 0.9126399612973576 1.1450465920312571 6.93314910187488 -0.09592425940315093 0.08786230833062288 -0.7577007591968434
Ni 5.146175665282512 3.1075037827882754 2.9549651934340484 -1.6333807007143482 -1.001002708687431 -1.3609142138446628
Ni 4.352661882605362 7.7003543621833055 1.4922570510171247 0.7516319272949442 -0.1582460002605081 -0.7732469344615587
Ni 3.9563087777130765 3.2645675334303563 0.5411353236918711 0.7115625700778843 -0.11007278298939108 0.017505098763298886
Ni 5.816204211112462 5.873899788108475 8.481670123396626 -0.30709873223157436 -0.25912811788956663 -0.4405657257751896
Ni 3.0947753327654555 1.8541231226103774 6.666132466515124 1.4106771442004027 0.5489940311826221 -0.12945452995011253
Ni 1.44562889343533 2.6421949652273025 5.164741582543627 -1.020959611425332 0.0007839293538760693 0.33352890139864494
Ni 8.822752205363575 8.218384841879177 6.546794300010614 0.6951293642225255 0.4265298165074138 -0.598238627141047
Ni 3.3536758605547856 5.867760398731931 0.546826877191621 0.15272018534627246 -1.3491269914017476 0.16160154699630233
Ni 6.794578770472876 6.165185824283192 11.075021611766353 -0.10127061131672882 -0.9590271355865936 1.3862364946595351
Ni 3.6200097297417244 1.11329429420937 1.6792496365975058 1.1736098627656173 -0.509656152814948 -0.8428662374215934
Ni 2.6380286232587657 2.659539428488391 3.3101183153577316 2.012685008575895 -0.10705816453278336 -0.6623578262184593
Ni 2.7575494113605745 5.62712203067253 11.3101923442644 0.10354115251846041 0.23287638328188925 -0.7256257330391697
Ni 5.923859183872161 4.1419771272889205 9.95997176421209 -0.8043174306141181 -0.9410790357486051 0.06272386139178229
Ni 0.42579464300563163 4.191881461264476 6.839169641893844 -0.42505785994757767 -0.568026365223725 0.6469129524182988
Ni 1.7258383332311402 1.687974176926774 10.009721925180882 1.9728043703308735 -0.43493321007976066 -1.09754274729771
Ni 3.1872424289658414 6.780290236453027 4.477604421445081 -1.2411054345144301 -0.5443030534648562 -0.04233604176404967
Ni 2.7699291367252354 1.526771615210222 12.11349794826408 -0.5197263925667565 -0.47371444461301637 1.775911861342761
P 2.2061147801989045 3.160996309956998 8.202806944320605 0.10221600594913365 0.298720278359892 0.19375807712418888
Ni 2.756741838467995 4.8926436618358995 6.119165181763769 -1.1866165594379305 0.2769319788402069 -0.6648885630601129
P 0.7709210133107618 5.98473916761505 5.654169298698672 -0.1647992279979936 0.41511617535383344 -0.8040227821918348
Ni 8.333831057659332 0.9086131091920848 1.7780102951812011 0.42638017830342695 0.23509498819976282 0.6863444189410438
P 5.293309940131736 7.011155137119275 12.948690751466568 -0.45609827419314997 -1.0226264576047936 -1.4757412236895877
P 7.352914479080228 8.572395431699151 3.014291517055191 0.2634051479983657 0.24407867975561193 0.9481994488434702
P 2.0370567367090766 0.2694916627362199 4.708221544064742 0.0378972892664057 0.2512232612201932 0.511855474459112
Ni 0.4118520805545353 5.48353006419303 1.762121298519694 1.1291230932071523 -1.4966196098004934 -1.029560722830782
Ni 4.598815606442494 1.4636249211892955 4.633798195834701 -0.0526703338105222 0.9112516679745275 -0.5708129268299267
Ni 1.6585161202769887 4.903132932474748 3.75682083701296 -0.1664532186616488 0.6804519647160087 0.9876221736154668
Ni 7.007557766961419 4.824247744013205 6.453298466068658 -0.5878305444338457 -0.020158991446378186 -0.28618692177957167
Ni 5.879387612992142 0.7191867925763379 2.157944892549458 -0.21327095034613597 -0.18380533678685118 0.10335191932578974
Ni 5.568765712218952 0.2799322954622202 8.833707665808594 -0.5355317350301292 0.34064082985307786 0.2924763543327092
Ni 6.682307784474908 7.741595641493005 0.7687029409455739 1.780270652532089 1.1826336635307826 0.8314225143610262
Ni 3.3555479613512205 7.957171718988367 12.614772208135388 1.143626943250282 0.9087893224769639 -0.9977985999278364
Ni 4.550783373263374 7.615531677568362 7.828191315685748 -0.38172525859821355 0.06091380476623703 -0.5344043062939055
Ni 5.650633414204227 7.22221614798794 3.9403876616751594 0.12490110625147521 1.0167751410303392 -2.1438374950537207
Ni 5.265531268019929 1.075815570421917 13.094260353836418 -0.9167723406824404 -0.4351761793285021 0.6261960315859215
Ni 7.9145263640813415 5.688268146391384 0.15404361156312596 -0.005443025392442238 0.39639057391987215 -0.9649951802445703
Ni 5.690736749892565 1.4909447450666824 6.803079392863747 -0.105679796128018 1.4708260457761573 0.5351802652279816
Ni 5.751047761824774 5.022222403236202 1.380279727889186 0.5555030359457336 0.7512118090383901 -0.43962830156258487
Ni 4.291350581522116 8.529878554297763 5.455639433112025 -0.08995801451738701 0.5840057713711168 1.9549616857224974
Ni 4.1987641847807815 0.3427192524673611 10.650252953412885 -1.2362859016385999 1.5964123510201151 0.2708340934725852
Ni -0.0312181984770219 2.4931151738641355 8.733320849082114 -0.47649329290973425 -0.10657813957257127 -0.9375226858559145
Ni 1.9676972375940986 7.0034373098163245 2.272098074005018 2.0308755634419926 -0.2824156276625975 -0.2800314437011371
Ni 0.7734731271906078 8.757320447135235 8.470052086101104 -0.14805646132201597 -0.31228284753567503 2.633411275296497
Ni 7.995476369597776 0.9745844729441028 12.942135645589639 -0.33886291201704866 0.26545380299727833 -1.1889698901614556
Ni 7.656084684526432 6.7945971244022525 5.206728949082494 -0.12245161626971814 -1.4042936092715623 -0.35990867694375434
Ni 8.923992479806078 3.1987870505438574 0.4565328862294498 -0.5897038501971587 -0.16015170192365322 -0.06274391599644033
Ni 3.688570832928811 5.085506751727455 9.0293495406078 -0.8322115859212248 0.06810826563214721 0.43345868241676316
Ni 9.217159793741919 7.7104398463758645 0.967954115956729 -0.15704966595956177 1.5013887490543627 -0.01674405222755826
Ni 8.048317332273623 5.862869076553009 8.371089534294264 1.0225814632994712 0.14278724250327668 -0.5790756810593511
P 5.650459051875148 2.7395900914653626 11.900086716738713 -1.6649733879189645 -0.1758534289296262 -0.5616405163020393
Ni 4.989781833062685 6.25251382025807 5.898124221796462 0.7428541811023142 -0.8020612875900897 0.7881243657940233
P 7.201237606710242 3.2064589930233653 7.743372301856681 -0.05286136677540573 -1.4231909603966975 0.8382498216955048
Ni 0.6366188881853363 7.547622138874153 4.045529063806704 -0.22363326741706643 -0.07870275331854187 1.1952312976901351
P 8.990286872715128 0.6835682395312249 10.662878621431194 -0.530516541203725 -0.6975194617212568 -0.16531601973341203
P 1.8723761053756183 9.110798773003284 0.1044356935470059 -0.8810170374597022 0.4503001794541342 1.2423339076048925
P 2.233856744451958 4.183411122857077 1.658094897597791 0.5833899921639888 0.311822877180121 0.7811350789603837
Ni 0.3713100859540922 3.00104181543807 2.970720206411105 -1.196634862905881 -1.1079055785892726 -0.2656720896556715
Ni 4.886504272459356 4.9480358206951225 12.319818139174716 1.3206612798618869 0.4638113265666915 0.47230676563221236
Ni 2.075893651270414 7.899824866650514 6.54753304566803 1.6044737878720108 1.8021941920780573 -2.02057649550883
Ni 1.497460389995451 9.259190292014821 2.4132764987714665 -0.7308257891828704 0.9054656574203696 -0.028070790094287142
Ni 1.8529025863068194 3.897906574436056 12.967991743599224 -0.2962923856446897 0.9205611183009114 -1.3497003474067142
Ni 6.760981902748619 9.093078054189972 5.485363621737775 0.006745803364265801 0.22897319157274112 -0.8587106606530179
Ni 1.252380371026862 4.94494318359513 9.438833046576256 0.8426044991197746 -2.2882884984126655 0.19810941211434915
Ni 3.691030259465304 3.4974330123986763 11.074591212122465 -0.507488712849984 -1.5777636255706762 -0.5538246198020461
Ni 3.6358858786526684 8.69641293249828 3.253532233392547 -0.19850510489087103 0.9045685995273969 1.6174025801185372
Ni 1.7074476959955731 2.1006898098584887 1.180648626539931 -0.9856079713989155 -0.454980615648939 -1.6951018318732292
Ni 7.344545087284402 3.829886912165586 12.14397373029781 0.990499752273578 0.813225017516393 0.046897178772170846
Ni 8.37152085163462 4.326030331079606 4.556648371395735 1.8813913685345145 0.14284894897914752 0.38769638857998395
Ni 6.090109076167336 8.778051210366346 11.60189593233244 1.3142677176307174 -1.4660720760309398 0.11047798884760973
Ni 6.368703370177987 4.8404634406176195 3.79708844036922 -0.7413598559449748 0.8167687690035933 0.5078029016562932
Ni 7.028995156473537 1.9136724464734485 10.257370576565755 0.18274655650503366 -0.6006649771943526 0.22167331547721822
Ni 8.25170640066278 4.176445806658576 9.990568682179708 -1.054752648715377 1.2799715154520086 -0.8904049064325052
Ni 1.1073200901972173 6.4012448869630765 7.803558507069128 -0.7664851902576929 -0.5639308549981127 -0.07597249887157238
Ni 8.899223852112069 0.6899067690415075 4.2770996730574895 0.6163816165986611 -0.8685011643808785 -0.8279368698052709
Ni 6.966958875179908 7.688305007547428 9.528340571664632 0.7430040764166171 1.620923705897918 -1.041266184193168
Ni 4.4349058401428625 7.216453014163621 10.442146925173885 0.25520050070038636 -0.6680566763754494 -0.4098798666555586
Ni 8.250504218288599 2.187145994187968 5.832363928232278 -0.8851896807801529 0.9973265453874243 1.9091199447980347
Ni 7.656607771513671 0.5937028128200024 8.089002487523205 1.0758022702968246 0.06908374217153909 -0.5261484940430164
Ni 6.49925486983526 2.805242096846224 0.7168237241690733 0.22363198186548583 -0.17036592345249368 0.9601185688785594
Ni 8.382753456413228 7.869439936567199 11.980084153320494 -0.20292611677670214 0.9015290413701249 0.7469208949725201
Ni 0.13539601931628356 6.901270161940293 10.168078710147558 -0.20468886510407974 -0.6079350284932047 -0.601049614227281
P 2.597870225782298 7.338763599530705 9.013043909749438 0.6814855481868457 -0.11305783375964401 0.3219144570881682
Ni 1.7730079317295508 8.466786922064967 10.737194599174382 0.6590323613896522 0.5108774268165589 0.8688451779838585
P 0.31389257098813805 5.1452946766724255 11.47338355422893 0.36435514275088215 0.010716872196871865 1.4838399415373218
Ni 6.882585861834697 2.178281046298967 3.907440523050842 1.333652292804916 -0.4706543176304539 0.12321780501178135
P 7.922436907642747 4.18166749956628 2.154949531275162 -2.104065871582738 -0.056784870199528006 -0.05830259239563508
P 4.582710033414341 4.174197450309916 4.962639124603784 -0.2202278412799433 -0.290008609518507 -0.7570703247016961
P 6.86338765170655 7.59614075118176 7.178984385037325 -0.9707778483646184 -0.1831684745338007 0.6437713214655235
Ni 3.9861430899150863 5.133025074884025 3.0043528642976467 -0.539992084794328 0.49026720676537494 -0.3822569627319674
