# total energy = -340857.3890355322 ev
CRYSTAL
PRIMVEC
9.36103109125260 0.00000000000000 0.00000000000000

0.00000000000000 9.36103109125260 0.00000000000000

0.00000000000000 0.00000000000000 13.70081522957102

PRIMCOORD
 96 1
Ni 1.3666075608889858 1.549362969935117 6.09791790886992 0.8135327785647989 0.28881304654850903 0.3629942578476136
Ni 1.8110973978882918 8.500930149442388 5.058930520721764 -0.6736346846838591 -0.7432766133517135 0.16712170548358316
Ni 2.9230193871992363 7.288264744050182 13.70150055866465 -2.576679369822091 0.6340186129541339 -0.14933867046854926
Ni 2.137497828284261 1.1762135505120321 13.432580603283117 -1.6567695119519337 0.521096790551722 -0.5980092847390603
Ni 7.875454138264016 8.156163376140691 2.2503179105136764 -0.5826114621267514 -3.0627196829903127 2.1457467962612915
Ni 9.424030781591547 3.4358353897790224 3.0728052449130687 -2.0432209723812234 2.4760818733129875 1.514409843904379
Ni 8.052255931567005 4.181647455010974 6.69412197597785 -0.048482006760787476 0.2553473106908957 -0.41579186126461937
Ni 4.798164959481507 4.017043085156588 5.8646747149982295 -0.8039651894810219 -1.7021569389477975 -0.4668871372785379
Ni 0.6629341768956335 9.176955728251201 2.9972589160893737 0.2508365673047358 -0.18731232149884514 -0.7440903675022604
Ni 0.42667860323440965 6.308848149148293 3.040950592377952 0.7260160264990528 0.45520070207954505 0.055177416503092075
Ni 9.291282000375384 2.270452552183365 9.588405806185389 0.03307647083899465 0.3654270356588223 -1.7174115511140229
Ni 7.758974829000019 1.0865161510611265 2.7366141121495664 1.7937743434454785 2.3887702952795116 0.642756507047764
Ni 3.314713009117859 0.6564694488575626 2.788389974846598 0.58138890257356 -2.0281687060337905 -2.3242975695174226
Ni 2.375314821923403 6.487568953815031 7.202504594255825 -1.3513836486464081 0.7672421230283755 -0.09991718261262793
Ni 7.023712645753163 1.6048177178319198 9.247392806331804 -0.9919549966628658 1.8530400710853312 1.9591996350632455
Ni 4.396295896819496 5.54640153175351 9.91881463007383 1.1045970830413299 0.4821240088329503 0.6503973114224735
Ni 5.827663070461703 8.988096926965246 8.398681479569465 -4.062026749142875 -0.4407107359934862 1.31502927838709
Ni 2.5235186653910233 3.992919708159616 9.250927531653518 -0.5367391250746691 0.7076768618702328 -0.3661515725296726
Ni 8.049953117930508 3.3988780392225446 11.301281649755316 -0.2034971587888237 1.0216625510296276 0.5861595844893259
Ni 7.927754218699437 6.075664865875275 8.201404303066832 2.682929950851915 -2.9976388913305794 1.9151155002598375
Ni 3.1572979111042474 9.127155043104175 7.211917110969234 -0.23145122079958846 -0.138315065664536 -0.36733890796955443
Ni 8.492963912025072 5.576834243673244 10.454324580210372 0.35203595906389695 0.6935782176853217 -0.41616055745794783
Ni 1.6233900034205857 1.6855566105749862 10.909877283695913 -0.13346493666108628 -0.25914842960454076 3.706182214966166
Ni 8.35056390780391 1.5542962332946064 7.3359779192746934 0.5602235813498545 0.310243191397827 -1.1883682520217145
P 0.5552083677596413 2.919069032099228 12.743552552356029 0.44957178592854186 -1.5944359440200346 -0.19178218434474067
P 7.5631701426804 6.226377465662332 12.435339669172873 -4.07719111558814 2.6699682484849245 -0.2913550962440724
P 3.387775856405933 2.4964933687708224 5.3122447012520535 -0.5897308467803521 -0.32789998524764175 -0.49986539197677143
P 8.28692761877581 5.243263263498585 4.096132564229935 0.6897976675969668 -2.5573547013515503 -0.03728099583864547
P 3.960015684044616 4.461776308963003 11.942493554116423 0.37887030564792173 -0.3864586595181409 0.20982130123463863
P 0.6884373698682954 7.718001596126234 1.1783019965376527 0.6983494138217199 -1.361812557289216 -0.03201511945401583
P 1.3237527607756225 5.7909865508365055 9.670583489399714 0.36055633783008223 -0.44443523603292495 0.8944610787797499
P 3.897212526779313 0.43655729929374393 0.4399787561398414 0.8237796531037878 -0.8651301910261164 0.5965280722078437
Ni 4.8057473946260725 4.452574415448055 3.260958224458406 -1.1277478101261802 0.7451800010220134 -0.5321815876109738
Ni 2.489893841885737 7.609114083037845 2.5232790229963307 0.4686015488664833 -0.09670176099912377 -0.2762588640325823
Ni 4.967440483826186 2.0872103695230146 3.5408249695412413 0.13927794379843753 0.21300766938242027 2.2387757363945187
Ni 0.38327337449573723 7.517984445837411 9.012341061262669 0.15164469289390659 -0.13039658214840769 0.4984037198295804
Ni 2.661528346053171 6.554753073608305 11.387158812437706 0.659144204377168 0.05741761868752047 -1.4984229815578194
Ni 7.571332961749612 7.037988218093241 4.64864589115239 -0.6279718925394218 1.4965723015023258 0.37896672201646986
Ni 9.040387646369625 5.070673934164799 12.719165194283654 0.8818477608911136 -2.46301038484101 1.090481212465238
Ni 4.921065936040778 6.350682596878005 12.402114561693109 0.9276139113826348 0.672924545990712 -0.6856275953796772
Ni 1.7953521436745135 4.552578310076945 12.148882758235994 0.9713049245126819 -0.3889526295845882 -0.41324415514210117
Ni 4.011594965089751 1.8901419440126341 7.56323379769149 -0.295149273179182 0.27122927202847485 -1.2915728471363628
Ni 4.7335738452870535 2.6787713652337777 9.668733749665682 -0.7510912243001258 3.935083929871023 -1.0336665174690391
Ni 7.877101679727526 5.653313867291893 1.577319689144064 -0.0318629101468677 0.5314071713387944 -0.08065473483859013
Ni 2.7625525930657124 8.069199397754247 9.113399007986963 -0.06515329676888133 -0.43355741277815657 1.7159555353937865
Ni 5.372286354359767 9.064445496149299 12.663457698548699 -0.8559140717444873 0.8476484893015853 0.06671164239493671
Ni 1.1478028212975155 5.288654903024515 0.8228767532907674 0.4716328794936394 0.4445128833483958 0.9063418893777359
Ni 8.050299476079088 9.184435192054298 5.6673151614224215 -1.2695480061258395 -1.4599482225213887 1.0860627716825682
Ni 4.4199793053574625 0.8856134472356666 10.641163270997318 -1.197952039055408 -3.4449270234312674 1.0907462932011667
Ni 5.651741214076724 8.857800735882263 5.967239787720395 0.8353393329169291 0.6333848360248768 -1.1708963204891962
Ni 3.855237663583962 0.3620491088126817 5.069726597823281 -0.9873372953851963 2.1301371147484924 -1.8357509449875804
Ni 4.537890852370988 7.09633552458223 7.502963735426335 0.3033359227550324 -1.2875089614796342 1.8129288048867425
Ni 5.59697918247708 7.019846539932538 3.0698452868973747 -0.27545565140499656 -0.011704432921121777 0.09847762195262395
Ni 1.003539971898861 0.30335544417511356 8.215570351343711 0.2670417163096885 0.2381078068841577 0.29283836565781823
Ni 7.954021271805182 9.044403528686933 8.731625270664264 3.2211250916468206 -1.880613866938542 -0.1414536112935177
Ni 6.559124675105234 8.658513746014767 10.716421280064898 0.6521937412012638 -0.4615914360972373 -0.19127901945607703
P 6.219459663721795 2.161761620746873 11.212075704434149 -0.765035859405676 -1.3539382967474618 2.798004300820956
P 7.207984541828207 1.457662309841079 0.4626258985413835 -0.7578308570168045 1.8780779878905653 -0.028075675190293584
P 5.687622046063296 5.439779388177449 1.4334481308429934 -0.6106578267410063 -0.09408849174599279 -0.07058423797646554
P 2.1928496048395942 3.885118074672178 2.460378511008185 0.35206964051530976 0.5753897475673316 -0.19282219557348085
P 4.308405176359827 4.614885332696985 8.00967447356009 -1.471269046850847 0.6365537206711618 -1.3393657982499254
P 6.16564309625746 6.968061316204463 9.098191076955036 0.5532273525376795 -1.05159584825395 1.1638584398058083
P 3.812626250277708 7.628116976054475 5.598167097316394 -1.2644333106070933 -1.5857237609580175 -1.135174955828187
P 6.4680792871841835 9.04498391261158 3.706522707821411 -0.7145820736304983 -0.7828343210396775 2.1076877846060413
Ni 0.6937591160160558 2.158663119471748 1.5559737300574537 1.618894077062399 -2.3692651353670486 -1.9817659503995355
Ni 6.718814503662216 3.4778102529743746 2.0738924306586015 -0.3360398407459568 -0.566524840977534 -0.10696817592213835
Ni 1.8006130431204965 1.846847175440265 3.6964521106257022 -0.5187678853082291 1.6591161578072393 1.314151760878143
Ni 4.531310047547989 2.338628941267162 1.423583476330223 -0.9758611764247969 1.5750721947814423 -1.3710975821355675
Ni 6.834910010653464 7.286626563617713 7.036492325332621 -0.038073409832953785 1.441765895185407 -2.8656448827880645
Ni 7.129230187666187 8.014559059558156 0.08604566124115835 0.07290363013826154 -1.453392423680742 -1.8088042411954073
Ni 3.5672361825250425 5.003180900347117 0.43090978926569845 0.8800559590980134 -0.8649561273420975 0.4084860716318255
Ni 2.8169495444546935 5.7418036937382935 4.268872606163509 -0.15711342931796168 0.2603033691445904 0.3757844676337464
Ni 0.6627769115741164 7.079448224581245 12.490361937435503 -0.9649337308790156 0.4131287126101595 1.1542887938395026
Ni 4.920204721184851 7.593481161196579 0.7319221673708306 0.9601301388427851 -0.3480132110577491 2.0059898559439064
Ni 0.3483923006245241 6.1394602924311 5.77800373688342 -0.056425429977580245 0.6339144832761019 -0.2481875597176629
Ni 0.7025126161440606 3.928721757268955 5.3192177332757415 -0.569108285433994 -0.8900742625659638 -0.6352658550976736
Ni 8.353727936296334 1.191275449459695 11.720623076858477 -0.8981979201143628 0.3825814359509218 1.7947991851655667
Ni 5.449421250151403 5.981446088430758 5.461706667291809 0.21439555086888237 2.2721054608949 -1.0551691674275054
Ni 1.9103149659095973 8.744691397793627 11.668120798152534 0.35034263052187403 1.4141352779523322 -1.0296111164527428
Ni 8.709306700452318 9.452769146892559 0.7825400705278837 3.2872898603993512 1.3506328865233126 -1.8782685066348168
Ni 6.115458608837684 4.181853397693913 13.156851433921144 0.015080291371890158 0.474315311421809 0.48426110978061115
Ni 8.550946138303397 3.5407257426121888 0.5984965836102804 -0.9875506969475831 -0.9472417129158913 0.20745974298099756
Ni 5.778864015636242 9.775069445691836 1.8259346320909307 -1.0790295189848707 -1.2167318907660722 -1.2523432122117786
Ni 6.772902541026788 1.7926842498273514 4.912345199521423 1.04154232067269 -3.0092438225593594 1.8629593870815724
Ni 2.592790295106813 4.320874069708669 6.500460965767002 -0.12507079906012009 -0.8631627828871006 1.0338457233593807
Ni 6.004464863764694 3.386924002581049 7.689006738574654 2.161095767913536 0.2639147406449326 0.39537036018547395
Ni 6.670633276885571 3.829738215023717 4.54158752352974 1.0351670132739657 2.8027189326878053 -0.7944523648945802
Ni 4.318580617103214 2.325298833062394 12.756349081791367 0.40262884152010014 0.17424700367445475 -1.2495607643706352
P 2.54254964150078 1.8833739185687806 9.188862959737484 1.0182548108996594 -1.9057988508446018 -1.9455715027568494
P 9.240208215006552 1.0070316364777785 4.624025443407052 1.2044582156050418 2.1560975433679963 -1.6832626731464557
P 6.213758795816807 1.2754311185333376 7.323127095859309 -0.2837492588723565 0.9648216307811835 -3.1451181399928867
P 4.398402128804098 7.987955009334876 10.500798354924834 -0.26747263319952 -0.14055655340054501 1.7197641105065997
P 6.560584995947892 3.8920639597058426 9.817291440106715 1.0952603790214364 1.8271840292541754 -1.111943238993756
P -0.2523312722708084 9.013708707898003 10.727299734239592 1.438942309693683 -1.9330772269445806 -1.5760157896416342
P 9.201060383186087 7.871588032443391 6.917541703873358 0.17335251688464337 0.017682247771111482 0.5177993507473728
P 0.4304501626415032 3.0884381667543352 7.449571222668234 0.7646579072409669 1.251442040553748 0.21984346135733107
