# total energy = -340887.5176500914 ev
CRYSTAL
PRIMVEC
9.10441812585114 0.00000000000000 0.00000000000000
0.00000000000000 9.10441812585114 0.00000000000000
0.00000000000000 0.00000000000000 13.32523621587470
PRIMCOORD
 96 1
Ni 6.77226684961333 2.253534696634161 12.072198143367933 -0.8501805116948197 0.21559754159678352 -0.40995288598533913
Ni 4.657847663035164 0.5431650374467045 6.069392108148153 0.389112295090904 -0.40587177393742996 -0.14333308770441763
Ni 2.69820358581249 1.704046640749375 5.052063508330881 -0.26393916612496476 -0.07779541101292409 -0.30384037319527674
Ni 3.612906273267053 4.374773092442167 5.293423455627114 -0.11209984072174888 0.9352891685397053 -1.3770342593349767
Ni 3.6036926020513027 2.910700706539383 2.97424590378983 0.21795395764410205 0.2933222472727723 0.08594452248261973
Ni 5.28825578785828 4.619381496151226 3.0568894390929247 0.34659807587777725 1.0321176849246805 -0.2562263708617394
Ni 5.233037491491159 3.258744405388898 0.7070491172086771 0.13632734581054587 -0.004749084649211176 0.08121600665869884
Ni 5.636709185526676 8.514142347972827 12.702507940474517 0.9822524246631213 -0.061684621493990545 0.3530111784929727
Ni 2.3432678423875575 5.666863018596406 11.682460761383508 1.7208416598414944 -0.35244733556970265 0.6047373474915133
Ni 1.0699967486473059 7.718088438466545 11.253842051045343 0.07984843688721087 0.7333539549213628 0.510009936609941
Ni 0.5812296994881385 -0.03756027727329896 4.6069876516591295 1.3404456615776659 0.17813554009558352 1.3657507160013576
Ni 8.791262629064738 2.6327519233915115 1.9111985575525854 0.09751422959809011 0.7202634402859918 -1.2371865590759983
Ni 1.4708915951326225 1.2266018460604717 2.792063764334759 0.12879632754082335 0.2073119045492236 -0.39490293363075213
Ni 2.0781107668070073 7.084739586565674 0.35311485978545637 0.873115009003806 -0.14987474547767737 -0.4171614879186364
Ni 7.898838452939167 3.7962601513441268 4.0038208565244 -0.005122665938546016 0.5733567762977029 -0.6344515867264944
Ni 8.032254597203602 4.334058134263475 12.875709481819692 -0.09243064442759565 -0.5846781148477931 -0.039754911300434764
Ni 8.447070099112715 0.5610852637846113 6.801879880242135 0.33460619362322375 -1.8569969988505501 -0.9928687667263868
Ni 7.535535749190841 0.8060341727342525 0.8017997078306501 -1.373875144880705 0.6864259229112565 -0.5617927256091872
Ni 1.646351942632566 7.015482277338189 9.063679567715878 1.5158905422149636 1.5790350360839323 0.03832949170781786
Ni 0.4973088143119512 5.126069682090119 1.2650643711771312 -1.0372542348202973 0.8629002732543333 2.0061315237280937
Ni 6.8566921195576525 2.066065621531871 7.258562959673728 -1.2799172651753055 1.2012088554298086 0.11224947892573572
Ni 3.7661154226925957 5.101014323210924 0.5115290050944419 -1.296336329963277 -0.35882752806443363 -0.10689515659235785
Ni 6.748531631372756 5.635015763741965 5.043521743178098 -2.529306794075399 0.14695834316183076 -0.5744734064006494
Ni 5.158481410872799 3.340338201273834 9.945236710281053 1.4893241045803447 0.09165365705225505 0.35966930723943863
P 0.4222037372762888 6.038969694741601 12.622183300486295 -1.5425940196480787 0.6345274342697523 -0.14583579952161338
P 4.0711316411412835 7.038826005596277 12.654150733660945 -0.33461339271207535 -1.0515395410947181 0.12997980632596323
P 2.529152748723503 8.842811844898312 1.5683534814937756 0.2427648460401948 0.3886464111980791 0.30788214736481817
P 6.7471477598067535 8.224840355332821 6.123572500840772 -0.11821983757655771 0.07989574518537854 -0.231002306187628
P 4.842512577332661 1.4659205827968518 12.917857475422652 -0.34900180022326344 -0.057598110129442735 0.16873353005539327
P 4.180867193674327 6.763918098126331 8.226814193198013 -0.9567735636657264 -0.862501752264334 0.5102953290608437
P 4.783834602050535 1.4738869487195612 3.9375807514875283 -0.05548080667612381 -1.4142075259511642 1.9308920463678039
P -0.03435370118418106 5.570310663613171 3.487640404172915 2.000610336799548 0.30609137401298253 0.3594415074993487
Ni 0.6928853738190102 7.500064935893841 2.16375147658068 -0.5675908203482032 0.5950116355633173 1.4194780303214845
Ni 2.0336721015855863 6.5363349564463755 5.154281542758347 0.5374842307708098 0.7302498620747423 -0.9344201356711906
Ni 5.842004711459441 5.7561227346035375 9.414093146622173 0.15780839850245723 1.0429047482378555 0.18409021501712167
Ni 8.850268363401968 2.9430122867218915 10.675313632436369 0.09167756831165501 0.3508730491040474 -0.3804610471738093
Ni 2.3124493867894196 5.580389254557673 7.270049093671545 0.6077334540053597 -0.0935300481393615 0.023326590541082406
Ni 0.12500275140823353 -0.02433884116706099 8.952706724749811 1.2802877611408467 1.2625147534281418 0.23062049736817702
Ni 1.4646732775038105 1.5196275457432078 11.50043885968871 0.3730498423114027 0.44585808452238057 -0.515660450027499
Ni 4.156594814760107 7.110587029828041 1.8431867327345033 1.1256269071284355 1.1963780097000687 -0.5414948945920997
Ni 5.69237359838547 8.366286596447345 8.274199048148107 2.220315729917118 -0.21227824741556342 0.2501238575084273
Ni 6.966327523490525 1.082897709232996 4.8893220330526805 -0.16446472747671032 0.31001539165773706 0.9113653107342562
Ni 0.6281338411574104 7.629584389169795 6.758293388563988 -0.8921766536209473 -0.4253640783340868 0.5780711510542366
Ni 4.923250557907043 4.857161586212249 7.333397635488928 0.302895235673188 0.042204658392507956 -0.255239838578754
Ni 8.18130302751294 7.272572838395859 9.380673558745043 -1.1574219401518455 -1.4567968213766007 1.1821220140016866
Ni 4.9169958226054415 0.8700500684055036 10.694834415493375 0.04949322163412122 -0.5730392450572841 -0.24450291177722405
Ni 8.345073302047446 7.197097211539564 4.644204692366387 -0.18524309767464225 1.7303830236730264 -0.1143737243575901
Ni 7.290544959917491 6.431297283703182 7.3580086987600914 -0.7163954726901534 0.14362516502353975 -0.19886120267870913
Ni 2.402155219288223 5.855087760409079 2.8310133758249783 -0.26267161226645086 -1.0356835478990678 -0.0533619605609081
Ni 3.4076016429160916 4.876089671644605 9.569145030290864 -0.4333368121269182 0.34622320903686177 -0.5436286531056508
Ni 1.4064232098769613 3.600387698245653 3.7961736593712514 -0.7379852830457871 0.5698806448236443 0.060468489698702305
Ni 0.9559092842159136 0.2151173722840997 0.1645204785939696 -0.6000941922925472 0.028700453258486056 0.5402543373167793
Ni 1.1918320729646703 3.7555816108382247 8.600920199579352 -0.7269495940569158 -0.41520256442005266 -0.21657198969491087
Ni 5.816048015178706 3.269569558625585 5.104338346294789 -1.132109686639302 -0.5273201457536144 0.3632552248184841
Ni 4.673106667933976 7.063034653583116 6.101679106401528 0.13991300627927516 0.2964461376137347 -0.49935605644052067
Ni 8.140660904679828 7.755270882384652 0.36124146346843944 0.04859976328557436 -1.302204872928912 -0.19647033384902937
P 0.2285381951488603 5.797028885564376 8.075346718973629 -0.30593685071298926 -0.1665051549455068 -0.0565095050509543
P 8.731528541271715 2.026516028882444 8.400548343007733 0.7118654460302837 0.6939122039859726 0.2935960697594492
P 1.9426825461209518 3.675508252792251 10.808685165051635 -1.1829632789560593 -0.031040671355888477 -1.2578291750270145
P 4.275835379891218 6.477575041400473 3.950998843026829 -0.4420263694811162 -0.8105361578303202 1.027927558102733
P 7.043159708658231 4.166464004086069 10.8852387550225 -1.3377776278271993 1.2406986859943148 0.5636002111315712
P 6.6203323187354215 8.341486161277677 10.50247171560999 -0.7329112109569894 -0.9908993017048419 0.5160677127682467
P 2.29485054641388 8.770823210211613 6.123811947039363 1.1212125801108237 0.4287214248420939 -0.45366806748510263
P 7.14512008805071 4.169814429982705 1.625505556286021 -0.7945958324509799 0.1511520695282042 0.2035411246528817
Ni 2.800600977278444 2.008653160379181 0.7943641294888484 0.6739730418598845 -1.7239416389230569 -0.43675637933142847
Ni 1.6930667124033325 1.4521547024824106 7.446222317116344 -0.24427871158155995 -0.20721420262909473 0.34233698660857814
Ni 7.211910099946704 1.2211209863056478 9.845311168355689 -0.7630913340847955 0.7929364424706861 -1.6729679760886673
Ni 3.0808076561392665 2.3031992979008793 9.518402465909578 -0.2385909171681633 -1.222423284723895 -0.36454668993639794
Ni 6.297471440619865 2.282832714393336 2.6853945798505934 1.0956162196989583 0.3066138221753558 -0.05476835399013148
Ni 3.8417185114036547 7.164840257866239 10.41265936141828 -0.08310036816560527 1.4709970241363828 -0.4355073374156757
Ni 7.279765328771791 6.418696768918005 11.743037918301608 0.2362013338900642 0.2578628780238978 -1.0332168315261303
Ni 7.689564296254147 4.357884396686023 8.847024459198241 0.5813241107738956 -0.5886018753822314 -0.9114434722703593
Ni 3.1369272899079284 9.262470897288434 12.253633720530818 0.7845592741505844 -1.3972055920765292 0.2577803456124206
Ni 0.4684204953716584 5.438269286496542 10.391352291510948 -1.290525379708455 -0.8347598062643753 -0.1110487737494152
Ni 9.193641495716227 2.6896909547979377 5.986069383247534 -0.6555922253598515 0.2992391269778395 -0.0683913440902048
Ni 3.569824166357042 3.107938822367464 11.969966452313171 1.62170326437642 0.016679260427893854 0.4305039706638134
Ni 1.4265348696749778 3.6648014569921297 13.100692401662474 -1.1180472950089648 -0.7837282936088568 -2.5391772591115753
Ni 3.554282924494111 9.083623706219065 8.258168899027975 -1.2962319431749287 0.13486155989829676 -0.03574399036882876
Ni 5.723101009801634 8.434542419673118 3.9982908329113096 -0.8498562955861815 -1.3746660162131163 -0.3990393243966289
Ni 2.920132883791871 8.538942783142495 3.710411860835554 0.7476621440139187 -0.39643094023950437 0.5674172708848164
Ni 3.8840995781124676 2.679129829688975 6.9626620847242595 0.7262672232779105 -0.3391740154995643 1.3213997006898082
Ni 5.019948583581436 5.294392165723316 11.579404210040064 -0.15478992339110761 -0.6163397076171321 0.31431736146720063
Ni 8.057737863738074 9.194460893353991 2.958322276362609 -0.6677928811911016 -1.2942269969297582 -0.9335742427311275
Ni 4.69242624334882 0.5824232887138152 1.796002174984752 -0.1548256617250495 -0.21465703206038514 -0.3348450491069072
Ni 5.987693611453945 5.7516342564322285 0.4166108931776371 0.6570832080830813 0.7999830649048222 0.31570190051955305
Ni 8.296191680745702 9.171244626950665 11.61551506393634 0.08840198288417678 -0.653009809344656 0.3578008865721322
Ni 8.86938764161647 5.275573333309327 5.897935883771417 1.6462259321081327 -1.176452217310419 0.5036086610692875
Ni 7.3913581826171 6.322499486244468 2.2709004639038475 0.13155537834319925 -0.655660873814258 1.212254828831325
P 8.714375817387847 1.8425066326951587 3.9647110072739062 1.423802111618135 0.28888555165765734 -0.16819822637721354
P 2.282641521611191 3.901880506851954 1.6333945346540522 0.07020448603954361 0.7253315988375185 1.5327538936292056
P 5.229113487248088 1.6069480206742972 8.596843241110566 -1.2881795051840976 -0.23819316750911235 -0.34516237187251525
P 8.795104693544033 1.887591711608594 12.705892963160306 0.40199249348768185 0.9656382131452081 1.2607381211436932
P 6.276585905275071 8.116497778783977 1.819881243032845 0.9207315824405046 0.4224900992204014 -1.0544690560366872
P 1.9428464256485045 3.6136073134682514 6.444110841874177 0.587001363664331 -0.42195453843190556 -0.6485407178297089
P 6.953663277777967 4.204857335624428 6.702740049607203 0.10342056778019607 0.38339261899830746 -0.559940502891797
P 2.095673189509757 0.13074217663986307 9.847389707030151 0.21301024048558154 0.08105788381427975 0.7076634921337941
