# total energy = -340895.22564328555 ev
CRYSTAL
PRIMVEC
9.05453137420086 0.00000000000000 0.00000000000000
0.00000000000000 9.05453137420086 0.00000000000000
0.00000000000000 0.00000000000000 13.25222191220716
PRIMCOORD
 96 1
Ni 6.548925017381311 1.8963990972884162 11.596529102750536 -0.39202149831789906 1.058729631085254 -0.28429921783855555
Ni 4.489770724030217 0.2077888118144066 5.80267048619608 0.5026252141100955 -0.11373711921485574 -0.009773534446996072
Ni 2.734414057288022 1.6086189361501644 4.735151232506288 0.2738975628892573 -1.5663425282179282 -0.42564509990961535
Ni 3.4594013058856588 4.162965533961221 4.932158814170385 -0.6227224712150243 0.5357086269276258 0.002597328413531011
Ni 5.1592446426105925 4.620165026032923 2.6707199584450234 0.7613041602773857 -0.012364949323256125 -0.6296886181202124
Ni 7.517116970637836 6.066463383611981 2.4999388260379813 -0.8350498267009682 0.4248660556517457 0.9720238049565775
Ni 4.913975504866737 4.6536215183528995 11.402767570476616 0.4031775149347186 -0.03887893645338466 0.19414502814996243
Ni 5.495611417494175 8.009375607029686 12.293238145349653 0.3258528729106259 0.0613902301820233 0.7754524267533097
Ni 1.8902420161578115 6.429323716419313 0.33912840686128065 0.18004047042778026 0.7630861918784729 0.11125189089915678
Ni 2.671955901936682 1.559208360077061 0.5008839826933422 0.25590781118005607 -1.165111081265987 0.03922140739446793
Ni 0.48228688131959346 8.849862454012609 4.718705487715821 0.07900845748441877 0.9613807234204347 0.24238586543422125
Ni 8.805730669555892 2.4852061985267944 1.573648526234544 -0.5526041171313838 -0.7217392535005699 -0.24385730777342515
Ni 6.844908583672986 0.8179265773579005 4.7757028553761804 -0.3506110536919123 -0.35611372867769636 -0.5386098597348208
Ni 0.7571833501920548 7.473890639288561 2.569804493261304 -0.3388066048578165 -0.8548030980684955 -0.05370211750914622
Ni 7.834595993700181 3.9036618730520156 3.9036138840373216 -0.35120163608805965 -0.25489968163051585 -0.4933422461462729
Ni 7.808274471866846 3.751373714911366 12.739214546154612 0.08345929416692077 -0.15395508619463807 -0.863257913704068
Ni 7.867989104302636 8.688691800887955 7.153999489147989 0.010838742486716818 0.6663463785525621 -0.9065504058441161
Ni 6.7384544618310445 0.7914647102929118 0.4571379212603954 0.4761896456263863 0.23685722230650819 -0.7789195593663036
Ni 1.9800991825403431 6.449922774613616 9.141183842254065 -0.10715509512196385 0.6170794139966339 -0.2219911038279532
Ni 9.132581132280261 4.831352908812665 1.3449020967952878 1.5335982439073716 0.46392214111294294 0.08534057035003366
Ni 6.186028466449681 1.9317117684786493 7.050737994962888 1.3113500297632898 0.11116961559799564 -0.40630063394473254
Ni 3.3457759954327777 4.454150198783454 0.29956010606607064 0.4050266523283154 0.3630114842387942 0.4543185565849079
Ni 6.204273346564635 5.711860783144519 4.6528681813675075 -0.12712742447883268 -0.3188584438706638 0.6732958132872018
Ni 5.246376395139724 2.9838663883882592 9.250606944835308 0.5572968946213628 -0.8337421636331382 1.0729789419154165
P 0.36046540933814847 5.561926803083218 12.260040612618404 -0.7225185548687557 0.13560872247696645 1.1634406355420994
P 3.913314003177346 6.458633233507207 12.333829608156273 0.3380463296530243 -1.1001151360105763 1.2052979378975177
P 2.497982141872799 8.369963252537339 1.5685462979741094 -0.3773926926611307 0.33488515831622323 -1.9386853171599774
P 6.445141982206322 7.83250439702199 5.607571599682471 -0.2570540089693573 -0.4707409638069893 0.7799359164459599
P 4.652190902443141 1.3839760201938347 12.832762339403077 0.6339921305915726 -1.644670928916187 -0.5972803769928359
P 4.0931550993774515 6.135893527890625 8.251986334450093 -0.3914144608615195 0.5499381402634465 0.34954661698313994
P 4.790227228672656 1.1541086398075653 3.707706427898767 -0.23828726988481544 -1.1166650699494576 0.8046172212427238
P 0.4757422662590036 5.479892751548984 3.6382255782461073 -0.8324990352546566 -0.2737535811122253 -0.578031813175869
Ni 1.3136404228077496 0.8498012430991769 2.703678451555908 0.707713371535123 0.6855142097302646 -0.8076313254786994
Ni 1.9417532434401799 6.5860938674418 4.709507895050427 0.8781569423030875 -0.20311689263126959 0.6267112806594433
Ni 5.974089057590761 5.584300549368107 9.377125907538163 0.14233935633258069 1.040074477877912 -0.04510820519254812
Ni 8.612642794393912 2.5424127258549722 10.289130873665489 0.548173849274172 -0.43310978371777664 0.025293484459466116
Ni 2.5417245814933165 5.1052072011584615 7.033775236448072 -1.170607585604184 -0.25838455485532275 -0.3231830393879466
Ni 0.18280373876765546 0.09947126747734973 9.418831077666937 0.7570968070642574 1.325323975444879 -0.556031654755694
Ni 1.4315575809899053 1.2170738488990736 11.407538402899728 -0.07338288376752522 -0.25887769244165737 0.3621342238401634
Ni 4.095998222134819 6.748532154916872 1.7192897531134625 0.25152819405512167 0.6264755104995533 -0.4482468964695312
Ni 5.546597481974228 7.811851011641241 7.713044346744754 0.48604931202928553 0.9861964969125337 1.3158440609789015
Ni 5.454920354845737 3.0705725779568933 4.752896302505934 -0.16111869382261285 -0.675553756083443 -0.29399124831533885
Ni 0.9407023969145893 7.321022991159149 6.846005087386098 -0.6700066010129687 -0.5128011262018329 0.7898917421070912
Ni 5.1657095777977275 4.362708489462898 7.335104597886084 -0.10093559657481328 0.5343307727434926 -1.0438524568631053
Ni 8.187749869195736 7.17222082748215 8.953200911711843 -0.794920048559618 -0.5696536164145027 0.48044430713768227
Ni 4.650660686691564 0.8555644521280444 10.570091161998489 -0.3513055086557756 -1.0644904448284314 -0.5152953533785964
Ni 8.323513508125572 6.899733769328592 5.008398871270098 0.2093135083602847 -0.25053137735949116 -0.3084624453483204
Ni 7.116046516696456 6.083685101715526 7.122486099196583 0.22682606332275126 -0.8781646556125715 -1.178653595837112
Ni 2.682604030480198 5.106031163486233 2.7253984606972232 -1.9669767079055025 -0.32574514368816804 -0.6664528222234393
Ni 2.4450221896185242 5.238915461534403 11.324420523995887 -0.9681452958377779 -0.14492074390651172 -0.19428232505877507
Ni 1.1560191458642677 3.211841371779975 3.709071851184789 0.2173122102950451 0.8570944652058335 0.10569959362235988
Ni 3.6933160616621934 2.74643847455485 2.6917119832879557 -0.05033474369881009 -0.23155020827129796 -0.25041310661407196
Ni 1.0137815172162232 3.2015916426037334 8.184744670332137 -0.36437211203174663 0.7992050490882172 -0.6712587282525149
Ni 3.672907148620453 2.510323467727232 6.868453986278904 0.10316757122912555 -0.052720213211851136 0.694812604313055
Ni 4.298593354924939 6.580579658017479 6.070881994776297 -0.19710308233702184 0.5373343354565069 -0.5079918777386476
Ni 0.4023924154782446 7.383734673380573 10.95233815128926 1.0657587700178937 -0.5655177398692584 1.354446860952764
P 0.2128955673403788 5.549685077070603 7.961245341650506 0.39308876324014885 -0.35236274627569636 -0.383997599572158
P 8.368921981463782 1.6933965105999473 8.028752303528943 -0.2456514235593705 -0.48738551434220573 0.7100533325222095
P 1.7466099897243064 3.2431066675799434 10.423640460041517 -0.761822751785017 0.12421616436930863 -0.9425792744432154
P 4.143851418863123 6.109961350893489 3.9462063982113875 -0.046537224329590815 0.43550013832682416 -0.439516715685385
P 6.903817362843155 3.8718714144497315 10.580520170890004 -0.5278171399946909 0.7618939713425846 -0.1428245234991153
P 6.427947427696001 7.763834833353599 10.288481663787453 -0.4483605392292601 -0.7609760875140055 -0.692933127902155
P 2.405408616167942 8.506686671761063 5.808130368433954 0.6394896633710341 0.21654087934665933 -0.557893390554781
P 7.039716819739105 4.059734825181772 1.5151662154779808 -0.3862239177995155 0.6043336842951914 0.564963410027685
Ni 5.348276087851233 3.2210407753515846 0.34328172026511655 0.43762489797931076 0.23817491267666724 -0.09063729997259873
Ni 1.151337953298793 0.7803665715549967 7.0277856641423435 0.25234503352946214 1.0805071319716617 0.07352326600013143
Ni 6.869727053347968 0.7007238216775165 9.36152857230937 -0.8772789105735085 -0.009537764287106154 -0.41432144736668
Ni 2.5675390495864843 1.600026186160541 9.04468065006291 0.7788066879375233 -0.6302830571711016 0.743799318624403
Ni 6.20473512764943 2.226011191990483 2.479914730566904 1.2848735807393161 -0.1573494565881677 0.18991042124332455
Ni 4.0852595482805585 7.354751119411358 10.286692488447148 0.22145040083313475 -0.2453151232658743 -0.6201439118545707
Ni 8.268815085905008 7.105823951113437 0.4546687506364014 -0.35425739219524793 -0.7151844831011877 -0.682917909757998
Ni 7.608594898082689 3.888884878338564 8.312005199129985 -0.009726740369460668 -0.3395385979278346 -0.23350064712944946
Ni 3.1139256727412103 8.498365557703671 12.47925895900805 -0.6220755816596447 0.603820749214515 -0.040861256990736075
Ni 0.12765621180580047 5.036917927795194 10.093487809834308 -0.2885520795776385 -0.7736886499846675 0.4451595157934592
Ni 8.389792675590316 2.2402449148394687 5.898988060500209 1.1924683902330173 0.5428141276241555 -0.15078311622455967
Ni 3.4816392342044313 2.709314897149733 11.513993430194779 0.3822057977790579 0.5196184062339825 0.31061625846652957
Ni 1.2401266850145436 3.3807536489732573 12.794529581941344 -0.8116890404878409 0.21876874023591358 -1.0119142133936123
Ni 3.1554316431863465 8.42961450325561 7.9861462075582645 0.05901144553720159 -0.10115594011573545 0.14244271467966435
Ni 5.687015149876314 7.976933222190044 3.4693784936765604 0.31657324738091286 -0.31778680807303983 0.4311752856992252
Ni 3.2135798417462635 8.369202671927088 3.552933706431297 0.4619390492446432 0.31473388017932896 1.0882181274626743
Ni 3.304487333733428 4.285047776437609 9.17373125965417 -0.01647974282257807 -0.6045614840352813 0.40202874604225597
Ni 7.1810671043418575 6.011837397640012 11.655752979602093 0.7961258959422612 0.09343517443271006 -1.2753967515971325
Ni 0.6230812177143755 -0.2288505565466121 0.2642429076103002 1.1671283688063319 0.6877194449116995 0.22725209511657637
Ni 4.781734078524851 0.22449985436535388 1.5897628751876873 -1.6266544377341081 0.18404470649116692 0.01575186351761803
Ni 5.92183535876029 5.745453093430612 0.3446000599895519 -0.468808779781283 -0.282758612824313 0.21230498688844082
Ni 7.733520263316444 8.835176004609902 11.624663341704968 1.0521905444151556 0.17782906459875825 0.2870505553314475
Ni 9.238700236472448 4.700361007759049 5.873344723044347 0.15046275677066345 -0.21972904726665382 0.28132882235632195
Ni 7.845669685204195 9.030464130822965 2.3179590495980977 0.6738910236690394 -0.2668609677574501 0.9835662583785383
P 8.582717569192956 1.7130901156868081 3.6347133256423403 -0.9678133664196559 -1.2193593010865902 0.6127293645580544
P 1.9165454289289978 3.2128011520738635 1.582858795243443 -0.22414414561521398 0.8437041599418567 0.6849637365434332
P 4.755367284036143 1.008068108108265 8.23369799258598 -1.2705517648000053 -0.6930375146905032 0.7682145142439737
P 8.725806323761997 1.5435802394426141 12.74235556298433 -1.045868715962186 0.69073586314052 -0.6351673818465964
P 6.324010465492748 7.681348055265643 1.2750554440872215 0.015660589355392385 0.2904297562163256 0.3919381945754734
P 1.767118502607865 2.988420817518692 5.9726041144945565 -0.7802516479141659 1.0352508312370234 0.7764266177411209
P 6.914121419205843 3.8747326462692477 6.0333790325191625 0.3503356885433386 1.6104865697249944 0.42345452001619976
P 2.1621586388536813 8.593094061804242 10.192018311533024 0.7955206582580944 -0.3515855017900396 -0.3518210148396135
