# total energy = -340860.0735869886 ev
CRYSTAL
PRIMVEC
9.37360349757119 0.00000000000000 0.00000000000000
0.00000000000000 9.37360349757119 0.00000000000000
0.00000000000000 0.00000000000000 13.71921621705854
PRIMCOORD
 96 1
Ni 7.820003487449782 2.284356481921659 0.8812171269042641 1.3022480674620218 -0.598704253923556 0.4541717465943985
Ni 7.647444825500525 7.297968776097833 11.686096461541942 0.2810462581188966 -1.5438350911440317 2.4595291111606286
Ni 7.409177204875387 0.8448316112277782 3.9405287573796324 -0.685067094890517 -0.5021086794849934 2.0443368311532213
Ni 1.262521246090686 6.386573333579162 3.081404275939446 -0.39395265390234085 1.6768382576773508 -0.7021163370633198
Ni 1.2440177533052097 3.162222545669485 1.601691018736725 -1.6742995504158973 -0.46929806071287566 0.4313938294679344
Ni 2.1675051439967614 3.714862071583024 7.183312736050524 -1.1283000830852246 0.4019696106695464 0.015862420953553325
Ni 6.256411479060862 1.0402168717743967 8.586500833804738 -0.13110106441460004 0.9549722487909295 -0.1083408878999489
Ni 6.527280491736601 4.427171554997982 1.2684228666873103 -0.6316465131775315 0.7130944333413783 -0.04103634911601965
Ni 4.9989613523201974 1.5233698769084336 4.103101719802867 3.1238057516683555 2.8616432178278393 -0.02307667931380542
Ni 8.985011139088941 0.5910272432409757 12.1610419396836 1.4354924034718697 0.6865387943400371 -0.20979173354828384
Ni 2.3102838684690887 6.867354817094797 11.02640851196645 -0.10481127748013562 2.1162778402678977 0.9703898688975803
Ni 3.807679490813918 5.350640198483064 13.343761951995218 2.002308036216945 -0.8309368329738592 0.7003001097901875
Ni 4.402237770393439 3.4980318815558515 6.979898046972984 -0.365000489644365 -1.81968643532555 0.17505947227342109
Ni 6.390247786047199 3.7383710684958777 7.803132876347806 1.1826920275725439 0.6216297523714778 1.3499661994735912
Ni 1.5198454020921526 5.162483860751116 0.3347744900892457 -0.4613772632039022 -1.223845618992718 0.7097615123134035
Ni 8.314264212417045 5.316370305056671 7.609335504189161 1.097497238771755 0.4819707710845377 0.35268233439864427
Ni 6.065649279629642 4.7794034437517015 11.918143759060474 -0.12560301741450625 0.5180364064588433 -1.747139674306075
Ni 2.226990030124741 9.302926266400094 11.950397390431064 0.00774467694242537 -0.04838096240654893 -0.2980476777728996
Ni 8.525751448600387 4.90449417891998 3.2582729206560592 -0.5873453772673111 0.7376746937839038 -0.9907663756714035
Ni 7.851967474480416 5.244334164197306 13.239536857627584 0.28475456020841927 0.5708826037255974 -1.0462806066886239
Ni 8.99007288483573 0.21435649613351065 8.171782631167261 -1.221174242808142 -1.2853222382409606 -0.8853855988410428
Ni 1.404296995016891 8.540421137662833 1.8823038919750281 -0.4910182259987867 0.9022746612868977 -0.1311252327843161
Ni 2.2282835873711426 2.175182125046055 13.198352057094885 -0.823702005788317 -0.35552340339186517 0.7926227678850091
Ni 5.063067424842929 3.7399458338393226 3.050192989248564 -1.106455219295991 1.2129554544427756 0.44643529718208913
P 0.4056539283094369 4.202917471208856 4.789611297674388 1.3431409490216415 -0.5587266850893539 1.1833836543229297
P 4.252513205924132 8.933278222836135 10.915268510492512 -0.3057537881679057 -0.28602339961851386 0.3881728139957702
P 0.5861407838746794 7.658768138208152 12.572385645156551 -0.5871520303095824 -0.19696449987662853 -0.4525738059796593
P 0.7528578162880146 0.3437515899072045 10.10738576849563 1.0447482292044974 2.3692116564212937 -0.13315820405394488
P 3.3415770699639653 6.888098601053388 4.376800623295189 0.1881309607453986 0.4185740519954469 -0.3243444066858995
P 2.48152085236224 6.819511946184426 1.0350023362948828 0.42164652027318356 1.5710494467752945 1.100950744537994
P 5.756685943407715 0.29527600077848587 2.6682364672770014 0.3480582053630715 -0.7030959273677697 -1.4574179999003674
P 5.752852139684686 3.6171703786700378 5.118447610114393 -2.5056163924369943 0.23583083792452286 -0.3051282387687648
Ni 7.336091220453726 5.844666583369458 9.859410844360543 -0.8923658868136178 0.04487603457708401 -0.8634165507691196
Ni 3.4809531764620636 3.2765992523403975 9.56765744367769 0.5406641711606883 1.0439259904135183 -0.7882899448376102
Ni 0.47203684905789917 5.432199920228975 12.055157717543404 -0.6129967592868282 2.0586979849708995 -1.4724185870742577
Ni 1.3636717985973095 8.605052131966712 4.924444018684584 1.2702715145554253 -0.04831899882036195 -0.3347062095361978
Ni 5.4100407221819315 2.1835902471476616 1.2611002078402918 -0.3980481641279532 -0.8780903507312103 0.25923867532550193
Ni 0.7328704821104711 2.46768541398769 10.717766690335477 2.18608457664839 -0.059145142901588454 -0.7655703917529073
Ni 8.386806527851087 3.9267617463086957 10.912072111789447 -1.7202845017864437 0.6480486086846388 -1.7018355510526368
Ni -0.06482409053051659 6.383461297305211 5.269564154664067 -0.29668370754583745 -1.364696306594914 -0.11181676226369129
Ni 8.027919380800666 1.4027128560702116 10.068490939233191 -0.46650378579719015 0.7583432778768489 0.4129351085421147
Ni 8.242593642083838 8.73401416527096 2.3480716751894994 2.8246756394645547 2.3108327022617687 -0.8324249874836115
Ni 0.4861038154323491 1.9247756882318636 5.66369042571536 0.874902697031848 0.28641343596808094 -0.8678205933740861
Ni 6.862424301793297 8.089860150976163 7.742494099661623 -0.12071200787079212 -0.5624537562319539 -1.1780385879609325
Ni 8.03915833107918 8.610535689859066 13.654241937220535 0.7180463780300149 -0.6059599070447047 0.6926899015430973
Ni 4.429289989329045 8.668342701008019 8.733008377643866 2.0036378107719623 -0.8817937677247265 2.748783101901298
Ni 4.229444768363313 5.363678880582658 5.825000763782868 3.5919660992323625 0.5378835230917575 -1.940054943813994
Ni 3.6748367857704682 5.833961928475327 8.04109304278684 -0.6732888713086662 -1.0623559149839317 1.2750861623352492
Ni 4.623773509244476 6.148886876354581 10.562478892346322 -0.048854302498541675 0.39579227821424096 -0.7057053399661588
Ni 6.37142559075174 7.680899215445491 2.082865256227898 -2.0506640589228295 -2.108419777676059 -1.1095816807401147
Ni 7.6609896821747965 3.772847181193437 5.65758539792854 2.58084687093622 -0.31967245513152687 -0.06041501075294757
Ni 4.260761976770747 7.845912126790743 6.890352952631355 -0.7755509000043869 -1.8543132813707996 -4.195002661982685
Ni 2.428044445907761 4.253356830215264 11.99587623860562 -0.10623232619737834 -2.329170581339008 0.8801325779722197
Ni 8.563723915304521 2.577506549486494 7.61467283387105 -0.5950337470505043 0.23795842579048695 0.6306460969374752
Ni 5.924914000662499 9.184631393577039 0.3342561298303618 -2.060170198641052 0.7898632028620011 -0.0854837807961173
Ni 2.4400051636353535 4.717565783211789 3.8877235009167643 0.6919422247437954 -0.9329823747833995 -0.2744930303814111
P 2.485523380943496 5.036071447526733 10.197671377492808 1.736295018282087 -0.22954809023960468 -1.9361936610863753
P 5.9675920161905 6.349397623149983 0.044277152239855996 -0.5422536271349951 0.5391657322382908 0.2465628796300463
P 0.5212782615709002 1.2999875382201433 0.7252591162838212 -0.8096671249618055 -1.3997504699855698 -0.1134563547496433
P 5.330224490637691 3.3353061293998905 13.159046664010763 -1.0539574065075914 -1.0889766028952534 0.6303301083589532
P 5.701250453877164 6.319739542515106 8.215766389625868 1.0145241402126335 -0.24972790762158925 0.584173921517865
P 8.870100137033647 4.3284300185227 1.098659413222668 -0.7532535220587673 0.44424163196488003 0.6662371066682075
P 2.204980809729453 1.1492318773950092 4.100207151123963 -1.3494784612038953 -0.40019529237794305 0.3178114906633881
P 6.320808133283872 3.1424254956376076 10.069286758147824 0.39035130970432774 -0.26147862039961417 -0.52611172726781
Ni 3.7755655261315266 7.594174638317211 13.158786077840835 0.49253389131236464 1.8213908196111663 -0.6281289869425764
Ni 7.249657225025723 2.949976047624126 3.0262940504411424 -0.21980900857496982 0.007118356212336127 1.1650000096094195
Ni -0.04144069990100842 3.1714555448557538 12.797668950580857 1.6168701046538347 0.07798284443338181 2.1967055466973457
Ni 7.242242704867005 2.3584173210797377 12.375047863056126 -2.0954459911242105 -0.7775496756019705 -1.2955171764960913
Ni 5.8800050675646185 6.1501804336009815 3.882236193583118 -0.6985072795558228 -0.9842470864956469 -1.0671438232908783
Ni 3.4174657617528283 2.824519741929691 4.770390724241451 -1.4438783135427198 0.6414583570616308 1.465611077234121
Ni 1.4770549033253342 1.7348289922820705 8.298094746837032 -0.07302035822178392 0.28263931363762934 -0.2844339436442069
Ni -0.05585917639676303 1.704486638611054 3.1765472861328923 1.8810291000990895 -0.16859777580847735 -0.6829171384270497
Ni 9.049679627805762 6.744260659415529 0.9582100291541857 0.9195370479117712 -0.24130651632711345 0.677499309845588
Ni 6.869979426000538 6.04245898522677 5.837704808246979 0.1306572920089621 -0.978669078187237 2.089641211516975
Ni 4.288882786475119 5.978202935052281 2.1091788352286014 -0.4345238904564839 0.0005005937855023637 -0.13396501622595638
Ni 3.40396777309473 1.0441819059427129 9.420107555158857 -0.8201765091335615 0.35825751449357657 0.8903318871027247
Ni 5.488310309192431 0.4253234973373211 6.454232939088202 -0.1130506346707924 1.6109015457752258 -0.24243934437997597
Ni 2.188323916781231 5.801613623712066 5.956019365636827 -3.45862843217776 1.2225140446654879 0.723952716212121
Ni 7.1922251580061625 8.482960949833569 9.942974642478054 -1.1605311752047884 1.2242868202951946 -0.5142563705911207
Ni 3.090045800761599 1.6599057816263907 2.116642098124142 -0.20823981568013172 -1.1936019896168284 0.3635035933838643
Ni 1.3104297322237 5.907713438726658 8.759458811251799 -1.1032233426222549 1.2141052517765025 -1.2895072228565858
Ni 3.9603192458892456 2.1651336223783595 11.706853368545062 0.9445297133013669 -0.04751578619277623 -0.04452765009872976
Ni 0.05617787890674591 7.825740132629472 10.213160319477977 0.20857380198078274 -1.8367127946802175 0.06612723064637643
Ni 6.241132505788153 8.066782339812109 5.164242348717964 -0.5992506133453293 1.0815404583321826 -0.9253983917885547
Ni 1.7567913446611847 8.39988270436362 8.334135313914476 2.0684910598019215 0.6070012038250255 0.9032226270224637
Ni 3.886661471670262 8.656053907167207 1.8472241192291488 0.19118928795574816 -0.7527493287288392 0.18347829246473563
Ni 8.51259090965874 8.456058708549719 5.677478058713413 -0.5413701960887773 0.9036807976058049 -0.008333973786992098
Ni 3.9687648624037917 9.163409555853473 4.469432445182035 -2.309359717260668 -3.8522422146834434 0.48914980533148017
P 2.9947256294670157 0.5255713718524342 7.067783076181732 0.834321690285692 -0.17162576400152377 0.5384918460997178
P 3.6225133325138685 0.6227062727332733 0.1299959417410439 0.6868874359287073 -0.250059322819079 -0.48373557629444425
P 6.711640520158458 0.06663225859450767 11.98643795750851 0.23381046506038441 0.3587856190829046 -0.7198662048475731
P 3.1320676640631646 3.7651045849215 1.969530894236694 2.0505961817993716 2.0189631282751233 0.05347457487937242
P 0.43069832143215 3.9902397874146964 8.729907589693799 -0.4487384913939691 -1.4296117763213767 0.5768786734080323
P 7.931802453231126 7.164348061985896 3.5632777842319343 0.11072481475109319 -1.733701289412982 2.1432793085574056
P 9.643750480017074 7.493005338604117 7.274682870941968 -1.2324739840916774 -1.5789455616939194 -0.9536543013104545
P 7.873554882730139 1.036308079225489 6.193800496254079 -1.241670820099597 0.4780446965572541 0.5463964456587751
