# total energy = -340865.4397001868 ev
CRYSTAL
PRIMVEC
9.25885943513621 0.00000000000000 0.00000000000000
0.00000000000000 9.25885943513621 0.00000000000000
0.00000000000000 0.00000000000000 13.55127668317997
PRIMCOORD
 96 1
Ni 1.693491719526674 3.3814373821385755 6.846850769294854 0.09419107876212811 -1.3686300944316816 -0.7391145115542238
Ni 4.143543376649169 2.865774454239838 10.611218845420472 0.9094171858689498 -0.15035914131326364 1.628348280496763
Ni 2.030449397822698 1.8243842180310812 4.9865042145982175 0.5073547583752811 1.2526026365207525 -1.8529061166106282
Ni 2.0620035914212704 6.263905560280475 5.2710400814751095 -3.0825524014455237 0.6029725422816068 1.0863923871078451
Ni 7.784043651067105 8.603267550598119 6.686498431238822 -0.0034987571818778456 -0.8054363747099096 -1.4143689912296933
Ni 8.197220261787848 3.7498103711388118 9.799687206465073 1.5351555610921626 -1.3950276105886037 -0.7418411664567676
Ni 5.502429168224314 7.317054548211704 12.486783261795107 -0.19177010015988263 -0.5108851401260427 0.1365937120980551
Ni 2.2591987836931007 6.089940846805247 2.5066742131530315 -0.5824068023151131 -2.350003201813643 -1.0823017619782394
Ni 4.561617924111006 6.532884691217133 2.8840366289622046 2.414086148336481 -1.499604146350114 -0.8880338350971673
Ni 6.9757822413309 2.8851810240117297 0.6203722972724512 -1.4592198289957965 -1.0872868738976562 1.6787994951687797
Ni 1.4462616498467789 0.9521440882930758 7.0455125649311245 -0.17529472821267877 -1.6142167261913878 1.2208181450203037
Ni 2.3033265086610575 6.278645664801874 11.289839554473433 0.9805778651741757 -0.17025845134035195 0.04874914437924508
Ni 1.6634930143449325 2.2575784832589014 9.199514963234291 -1.8152281424438805 -1.3352525474125005 1.0750862180664065
Ni 5.854265833936096 3.9773838818369676 2.923945091599507 -1.6608344260499268 -0.28220839674779785 -2.033542311640878
Ni 3.3915943511460975 8.379962374186624 7.512624810619524 -1.8550046510108698 2.3201861184522103 -0.20968528987740662
Ni 9.237758682911197 7.484732496002241 8.164455009350458 0.3757662128013012 0.38506897825946584 0.11493499617769884
Ni 6.6975812862087425 1.848966490332786 10.681970421237224 0.0803693423876874 1.202031351331104 -0.030059281279225657
Ni 0.8348260038834068 5.729854537168485 9.36897338973052 0.227225355643699 -1.2930126649066827 0.30062983667777904
Ni 3.134318418774168 6.419658096875307 8.605900770275182 -0.261626201721072 -0.35228072808485134 0.3565464453397408
Ni 2.10122412078851 8.307983999469693 9.744032201265243 -0.4854420174625897 0.3234982566355203 0.15070058381308238
Ni 5.479976433636128 8.659894736058467 2.649613413914218 0.30545245487740297 1.3982538308353856 1.4310073711173226
Ni 6.314421898388988 6.835038316186562 4.813210768445728 0.5121575790805633 0.5120238817161763 -0.40704933918529895
Ni 1.8435130220142535 8.65195063450108 0.6408834489974857 1.9689150625787963 -0.35860821296477596 1.4550402436968102
Ni 6.2078616829764375 1.7931911199578445 6.400241342357829 -0.9776491215631551 -0.3756433140701918 -0.6530671449451527
P 3.382409562399095 2.028801320809627 2.9466709625466008 -1.9863952216414307 0.24531615170713875 0.08944045145102017
P 0.3043322346389552 3.2075745161192106 4.6800692929386525 -0.043031010948545244 -0.23097453827348607 0.7800061075622631
P 5.552723293701851 8.772149150139773 6.044668726787764 0.22870913927807707 0.10072862277032975 -0.7844708282018361
P 7.861105139717608 3.5060894092564108 12.04726149190025 -0.2944172801091639 -1.2094440988554074 -0.9859656118486503
P 3.9763283718398323 1.7894690583889987 12.816201450699314 -3.0230303348204903 2.3436350935037704 0.9844759146770012
P 0.513218588958003 4.777182693876842 1.3058019716928984 0.7467709996582171 1.5912480332103562 1.2641211786833133
P 3.3811225809113594 7.776840258279637 12.614531451571207 -0.9649836102803445 -0.49236651249656493 -0.8267662465359373
P 3.1793442531256524 8.056467077783887 2.6560909121071643 -0.680664337837131 1.9447446359801794 -0.6754465410816174
Ni 4.093656640995087 3.243295196548581 4.628899279340686 0.0981444069829213 0.44133268584820123 -0.491758703709237
Ni 8.5949253180769 3.106856641129401 2.684453576793346 -1.7263425350550656 -1.2258055709325666 0.26526328425302703
Ni 7.106109949398243 7.605403213481758 9.412649282348827 -0.06792083221168947 -0.8607482599083369 -1.0728190192987845
Ni 7.345071857433911 0.7672326250843989 8.248703224841107 0.6366722485268971 0.4298799639265693 -0.6591979404332389
Ni 0.9295339530912818 7.73009227603809 3.298204863548679 -0.7970556068453821 0.68066639471966 0.6354936548377635
Ni 4.363737576227001 7.822829014032017 9.990909508393464 1.9667509650479418 -0.3952441190202548 -0.03394987458288347
Ni 0.8897115978484824 7.99448827146087 12.241179973751148 -0.996828265594767 1.4425002022482705 -2.544702816915495
Ni 0.09653564809765157 5.19764602712167 3.96366688130402 0.8597722691483128 0.8261540668732352 -0.8826021225586348
Ni 3.7522361923602983 0.3616964253253742 11.293729201401474 -0.24245194278546633 0.16576004924936613 -0.43914082040320496
Ni 8.978566166597103 7.891511234722805 1.1920263269753695 -1.6443168880108778 0.6970769748671994 0.5477102793741921
Ni 5.224950404152829 5.47622659548841 8.373469135932316 0.49415394341429086 -1.590273842222545 0.34796615986989754
Ni 0.026630332050532352 0.20882061641571742 9.722661827367103 -0.1907498864254844 0.30872212676761024 -0.07604166154661098
Ni 2.2758462132970423 2.027523598181516 0.6463146960529209 0.6723563321920679 -0.03209199543853828 0.38635967204643135
Ni 0.953644023552163 6.39840901403824 0.08293438331000397 1.3762462162160427 -2.475973629869897 0.4484595267009696
Ni 7.909436386954859 7.121988893653393 12.66980684352645 0.37625189418846816 1.3936374151092967 -0.18822943399647582
Ni 7.381570282071697 8.784426398001191 11.311318257029175 -0.43965118438072026 2.2286581883445424 0.7183227716198533
Ni 7.192606216005598 5.412562676713826 10.92991805253798 -0.047763640537524195 2.3444622173907557 0.6221475725481609
Ni 0.192999077090236 0.30847557432069267 4.59435725174145 -0.4805695198616369 -0.7959988834460936 1.6996606548885052
Ni 0.36962663859332534 4.7042599154782625 11.70202917075826 0.5017422972845101 0.580902964076077 -0.34457230369700015
Ni 7.633161274634493 5.451153603626633 8.238254601755429 -1.1687923867723162 2.171592810790118 0.9409386535159989
Ni 1.5661916585563767 3.451971374754164 2.5290612098378875 1.4577224185146638 -0.43545257291834033 1.1976375931387826
Ni 1.0655466009677579 0.9017471894737127 2.6650479329074166 1.156939601198788 0.6543123302061635 -0.9412065624654048
Ni 8.607498849446284 4.105387616138688 6.914958940688956 0.9188194530194563 -1.2564934869347264 -1.598443522517531
Ni 3.936367133702673 4.562432703757918 6.493243809622965 -0.3776469747637819 0.9790737698248235 -0.042110041796172636
P 1.5798299587825202 0.5784907716492755 11.459298906855627 0.6636672890585021 0.5235347105692533 -1.8128156763476457
P 2.096705797292001 3.803437686080987 10.74971286767618 0.03959138913937698 1.0228383165052837 1.0648467997265856
P 5.021598070231042 5.264096862643077 0.7117248357525908 2.4894572661786287 2.979090438904431 -0.4844819675421656
P 1.8591234593403076 5.316751997324732 7.367138497575778 -0.740704481749163 1.4034744558043764 -0.47636730885483125
P 6.7105529485419595 8.875885413367005 0.37634023770668357 0.1614259406503865 -1.2431371202324784 0.08463685941478973
P 8.948558202555736 7.170810860450715 10.584590365141864 -0.335448487018861 -0.22655301216702273 -0.34765351372548514
P 0.34647671187545237 0.8770251083916855 0.5852839969554001 -1.220142716219834 0.961801355897621 -0.17677156986852136
P 7.878104405987262 7.1462008115701385 3.2580251163243936 1.1037488761084215 0.5843721535716 0.7540251101174692
Ni 9.079663654831496 3.2116669320730162 0.194651783533119 3.289424133133535 -3.1387443752560586 -0.14291348366849582
Ni 8.984593684212323 1.5872370464817156 11.753347326110212 -0.14296799105551508 0.20348995969997213 0.7127733025565337
Ni 4.130590232035201 6.917571790874847 5.908804220665273 0.7232932282512511 -0.2513207060300059 -1.3017256192996485
Ni 6.633472942172207 6.993975900492048 1.4950586177231155 -1.773559301950184 0.8298469423437901 -2.020859059746255
Ni 7.743637987667993 0.5095622652924877 2.0970604116156 0.5470538767371158 0.6440438584006198 -0.30804078442986943
Ni 5.423543684227882 7.5055371535773565 7.709023740963691 1.8924707662771278 1.5641794591283384 0.6163384220655515
Ni 3.828594007679379 1.3042307432147064 8.756293353033684 -0.2679151200535773 -2.2072624962775858 0.262056090169639
Ni 7.194059856966565 4.310313956196554 4.49670683694507 2.073485170582403 -0.6272807800096681 1.679105456444973
Ni 4.267982449995651 8.892301371480347 0.7238039440180537 -0.09543446425092596 0.2095359087837359 -0.6407765005032577
Ni 7.918389704211261 5.200618121060972 13.458233924176135 -0.08030275081581009 -0.7755863812280127 -0.652042046114748
Ni 8.64569164539526 6.351170312236621 5.942343513767228 -0.00825144137551482 0.379304822082179 0.28097015346532256
Ni 7.742823208021082 5.26305987036519 2.0292355613259923 0.6099037221838012 -1.9305475185441914 2.951148203968208
Ni 3.8119002837773173 4.0251133031986575 1.559182701821013 -1.9734126933388334 -1.738206119261871 1.4943346704210587
Ni 3.0623863383553562 3.9761709712262245 8.868158895010783 -0.45698787588695494 2.3338227353990386 -0.46164954302868233
Ni 4.926167004086533 3.1105879615578704 7.9965816996218555 2.2309698671968543 -0.4991858494112435 -0.34370327082848545
Ni 4.60149583251155 0.9499127031236934 4.669011436889717 1.2040491530920812 0.4907603443517096 -0.5020474872297547
Ni 8.488781751347428 1.9052325802677994 6.103088427471318 0.5491326136430156 -0.5285473332924961 0.561608120402207
Ni 5.091567272409567 1.8178011688384212 1.7886876106367338 -0.08697887728440504 -0.7975466875491878 -1.6549190890067564
Ni 2.8229800050577367 8.905735976794762 4.6968593089808035 -1.6470689968347185 -2.2360858482671815 0.11481749676322806
Ni 4.653363964125165 5.492790695355735 10.86926233725523 -0.12330625096052958 -0.280864995346026 -0.22451155625696173
Ni 7.0997028185384385 0.1015122851455485 4.535571826102748 -0.5368877348373914 0.2599467571361201 -0.6555297475530323
Ni 2.4712174102229456 4.310869487773994 13.01453826036278 0.0524402200775871 -0.41455104687898287 -0.32191625686038106
Ni 5.7651400511955275 1.021733677227017 12.756480880238586 2.6292774556337815 0.06909762612861003 -0.7271789364589025
Ni 5.955641087959209 4.159255661431087 12.675877877781904 -2.958509272318969 0.14868406760368585 -1.2587411453183224
P 3.548707940105656 1.9352775797476607 6.6634207236260155 0.13248688901853312 0.29645745046764427 -0.3866784888384308
P 5.980510384909258 0.2052902132410884 9.540532651475434 -3.7029500811821134 -1.445930310975742 2.2647608476043706
P 6.5602075859675395 1.9025660286960888 3.2728633647578063 0.7690732626998433 0.5480787184572045 1.3021377671364025
P 6.449092011619985 5.158166249684958 6.210726374144102 -0.540185688862373 0.4419230111340325 2.285142496584516
P 8.790759457984002 2.193562727818605 8.409394437159378 1.8299124839289322 1.116636016483735 -0.6990492681022219
P 0.8096196844430448 8.167443769237083 6.217556634888722 0.3121162400508237 -0.018244290922168577 -0.5637861018901322
P 6.045794604118043 3.9979292913426105 9.754277129439192 -1.117315816159579 -0.28329468783344114 0.05171645453768513
P 3.5250608126259744 5.340500972260277 4.172397686781385 0.8267677891978342 -1.9854899362183418 0.7114838943211489
