# total energy = -340893.1687395412 ev
CRYSTAL
PRIMVEC
9.02776488007036 0.00000000000000 0.00000000000000

0.00000000000000 9.02776488007036 0.00000000000000

0.00000000000000 0.00000000000000 13.21304644244533

PRIMCOORD
 96 1
Ni 6.4592754095941745 2.341468151977769 11.241831292145905 0.28951855725596587 -0.9644102542753779 0.7851022911382478
Ni 4.530890689833209 0.44648977294226744 6.308291460607862 -0.0826833352328447 -0.1873020370862 0.08867991913591179
Ni 2.7030030474033064 1.3091161681438612 4.8798426867334115 -0.33312446687137465 1.061192747913766 -0.1289397950972231
Ni 3.262950156769026 4.111740599696312 4.85189633813603 -0.015968093293482175 0.60050376902614 -0.3391670735210288
Ni 5.083579476330246 4.571912852911932 2.696504862327588 0.18216548719058306 -0.6944850457703071 0.8139161300461466
Ni 7.2992457263489445 5.898524829164633 2.72730488736625 -0.7453563786988777 1.793323629061305 -0.9688860306585444
Ni 5.404642902327544 4.809343066153664 11.49557467631265 0.3434800990740859 0.24451319618986925 -0.19237610917499773
Ni 5.609329412777346 7.85201576272884 12.617626530822216 -0.3288188975174853 0.019578179242243702 -1.2937243462617267
Ni 1.928258331054297 6.315670755524356 0.5429171339186015 0.9266893426858364 0.8311895724146136 -0.516266201932298
Ni 2.899248597800598 1.3319925240508783 0.26732475347476126 -0.7785344081127431 0.5960321064080315 -0.1589412265553198
Ni 0.4198687002119549 0.2244843985729622 4.857353621934685 -0.18472167795353348 -0.21134262297517153 -0.3836582139548683
Ni 8.683057620133951 2.51994706132336 1.3067951298235398 0.2938853188650939 -0.22280717197134528 0.6708077567580253
Ni 6.565008590487222 0.7480884353361251 4.82482297439114 0.28168157771005037 -0.3046309874173721 -0.2971480487767657
Ni 0.6572826634771152 7.4017921062809915 2.2620075720952184 -0.06497614776106873 -0.10863116544685807 0.8714034256293378
Ni 7.733833294228935 3.8102132566440754 3.7520825765648036 0.033733644807019326 -0.8662540202179145 0.3468981236166993
Ni 7.678583373885231 4.118023923970695 12.679014428427633 0.14542853678086565 -0.4443683873507314 -0.2901582477224938
Ni 7.5877821159086025 9.097549383653632 6.875593489925218 0.3062081020965049 -0.10816888109845887 0.4841351257257082
Ni 6.847252628007736 0.7775379067663858 0.5733759094492585 0.5252779185126051 -0.6845618731193244 -0.3549945274715886
Ni 1.8394973479138896 6.472410807322947 9.098609243236696 0.004752684193636976 -0.4152287896722978 -0.36803413426436615
Ni 9.158757628740284 4.99548654778223 1.4305107153461016 -0.17640493055772202 -1.3148906959266966 -0.03682591057909787
Ni 6.245064607320417 2.130714983607874 7.322327012516061 -0.07682533379017091 0.49413208903741995 -1.4174473730447006
Ni 3.6122163198829473 4.247653598188871 0.502682191927128 -0.5910297680974338 -0.4157383823188647 -0.05181492778876237
Ni 5.924831735681227 5.859560996451655 4.762365286661421 0.2219185987188049 -1.1266509775175757 0.5057676163938194
Ni 5.3871651497482285 3.3594840453695523 9.273166491569656 0.5221979940357007 -0.2670329745589401 -0.09893039321932638
P 0.20518935694704765 5.6643626667667615 12.605999672585181 0.40621450198882947 -0.012905395207758418 -1.9615971887611443
P 3.869065255127834 6.091105107068535 12.58715782475032 0.6652575163637575 0.30902603116127425 -0.39015590586407
P 2.4800714243694157 8.341293529537287 1.4178258030789548 -0.21192677761341566 0.20399723835369385 -0.9924666461919617
P 6.491432307676572 7.727613164307888 5.691466724911842 -1.3146376993756261 0.3154275638122439 -0.8941479184147053
P 4.910327642781878 1.0054673003725436 12.576243257153012 -0.08361201769470117 -0.3770003423187185 -0.9322897195917492
P 4.028820580356947 6.173582765934561 8.10654727075931 -0.19687039750092547 -0.5899542756450679 0.5200920034362915
P 4.546463584047733 0.9737979015872966 3.8109463111427533 0.6102765321421877 -0.9102995884739032 0.6874674768018935
P 0.34352450472526175 5.513734411712073 3.5059360564453192 -0.06278531075733702 -0.011508257749915663 0.5493791824361829
Ni 1.233319055201748 0.8201724286316101 2.474050808049609 0.4455732062921101 0.6092619748347442 -0.2805623765039426
Ni 1.8505473319826304 6.476960800763017 4.7696714566833425 -0.4787589490154594 -0.7997241548164808 0.42680055367029723
Ni 6.011958693399704 5.670582796687809 8.99889035922812 0.2600747980735521 0.8002571445018154 0.06114186161664309
Ni 8.799804674036691 2.3036057065657602 10.392021614576985 -0.9210198031048848 1.0235014040105792 -0.6117055512792303
Ni 2.4649228350987076 4.942069263685221 6.9169903052415656 -1.1187872584987828 0.3609134640591849 0.7813201983879963
Ni 0.4885212401213874 0.1283684954809186 9.232788008118465 -1.1509985531240048 -0.3695384867240345 -0.3321649311715828
Ni 1.5174137844984803 1.1998802145231404 11.33676726638355 0.888855045446882 -1.1633789290662286 0.9255439162274833
Ni 4.125327385663187 6.462687904674226 1.6361315994487748 -1.1250836330304559 2.4478871560463262 0.6572611284218421
Ni 5.578960012117834 7.886420574236986 7.823576498175452 0.33138331581055186 -0.2375102825094748 0.18046315978749564
Ni 4.973404635174273 2.667108654709423 5.217330325162294 1.029607002687685 -0.17631751305023827 -0.6153488044587725
Ni 0.432272848995002 7.763363112765578 6.977677648301448 1.2782306215015018 -0.8472137157570119 -0.29703929111304334
Ni 4.995685158606995 4.481156733759114 6.861627537838337 0.14749647505348792 0.4713940240099559 0.5628422499196243
Ni 8.335181732793384 6.875157448887212 9.058309301338936 0.5163811302436074 0.721499626685938 -0.6284393190941434
Ni 4.736389699111594 0.06885476184010227 10.293451965022616 -0.16325399499806076 0.12810495790075357 0.8148903210339579
Ni 8.36384488591287 7.150359829893331 4.539487830216102 -0.21606805347529884 0.06675792225183988 1.1740834599679264
Ni 7.400808079921929 6.207238272967457 6.871260162839437 -0.38214769084761285 -0.44699014124429465 -0.36512107438262925
Ni 2.3298765020233057 4.856395776093432 2.754167001415709 0.6992068767260087 1.2673947072282625 -1.127727498411206
Ni 2.1114497336056743 5.4080734529371215 11.467167008935927 0.7238789255513921 -0.40599415844790726 -1.0208752792416418
Ni 1.1594809672129978 3.0970288682074374 3.683837188846139 -0.6501242602667447 -0.8500414150137943 0.5685719533145498
Ni 3.7741744197139995 2.606947630335169 2.7036268659483635 -1.1289456870890235 0.4130567217216434 -0.2964433094002572
Ni 1.1677865107940775 3.172257231969542 8.38589790967359 -0.24123375410764905 0.26055559436471254 -0.3136905265164791
Ni 3.4288985286249014 2.6404406376023486 7.171790840661945 0.4817658541625832 -0.172098075652252 0.18058657273923737
Ni 3.9025402068654893 6.768837463284631 6.045920241658034 0.7446467542263626 0.9226465400750303 -0.647409432438743
Ni 0.7074355078361692 7.379574777201604 11.175277707543648 -0.5402134567765148 0.140052617180933 0.5255170311066046
P 0.4012272687548123 5.598423872944798 7.519848186074229 0.6131163155838278 0.17710247084537883 1.6332989396338191
P 8.448778096794172 1.6982399126822023 8.011400046826234 0.5582006373825547 1.3822062904542196 0.6114026753268309
P 2.0703914594679027 3.1254392439135863 10.571018717619916 -0.5917404210112132 1.3122607145030174 -0.42493316144425525
P 3.916957547190472 6.176886927837468 3.8450893174728 -0.3577882881666418 -1.1900757216311246 0.07021579889345328
P 7.210593076385682 4.191970345136589 10.25533222831489 -0.49537290342305657 -0.380874480562144 0.27584414509266686
P 6.558219711386166 7.805929023618611 9.822737088117885 -0.8382989297658853 -0.3796454932510494 0.8985187937888913
P 2.3177341584183577 8.3639803023843 5.7766509076535275 -0.27862993536792013 0.6825466424615083 1.4742319861339126
P 7.02534334346856 4.012507409431936 1.676471263511488 -0.9122150603290612 -0.4969862706567635 -0.6441708708967873
Ni 5.544437839667781 2.8275591178252144 0.3561850420275509 0.052217048323187486 0.7161224215344247 0.8041960745449054
Ni 1.3879285545164968 1.033227677015826 7.050415251765704 0.1873084648441032 0.12109175980771401 -0.12528188662966167
Ni 6.871275510039533 0.8194168047210271 9.176037673271312 -0.30148987068522914 0.043990032427704884 1.0563629306252904
Ni 2.7503897846392706 1.5110492103412398 9.232351967080458 -1.5527411353844096 -0.5667441560771916 0.6776494622702072
Ni 6.188577883204315 2.078236587046118 2.8507541538283316 1.0109168824773491 0.3240222474597903 -1.1875059040214193
Ni 4.2528355351622835 6.68487925099763 10.404441110560125 -0.49125965258563137 0.15602096758473127 -0.2451634281793584
Ni 8.172031968013743 7.238398591852775 0.32109321762101345 -1.6125347105032746 0.3100007363697177 0.43302956529914455
Ni 7.74653535924913 4.061275394676493 8.020913505332475 0.319214798768818 -0.7276857008919919 -0.3283419578810668
Ni 3.1408406105976323 8.20870274847716 12.076883282658315 -0.20343802341611414 0.18517573477181656 1.0280023772047264
Ni 0.18679528624438493 4.845174264494213 9.935008176251603 0.6930316011532323 -0.48279969474373624 0.5109892698040748
Ni 8.370633765013926 2.2610488234774895 5.8081514872377245 0.2714563004376163 0.77806441045486 -0.30498759942584247
Ni 4.093116320992218 2.947186028687047 11.537050935958904 -1.5355880206438908 -1.189172493090565 -0.25815778355649727
Ni 1.2167892179224469 3.4845456706181346 12.56522396748446 -0.4957886508042365 -0.7969764168680146 0.9764820978382474
Ni 3.1216746660078143 8.170623636710864 8.03900243758618 -0.14429982249306114 1.2050745090328019 -0.4386967908872509
Ni 5.380168632057646 7.852828261557424 3.504998071686543 0.5540560190865619 0.39270695442069786 0.2395730785757745
Ni 2.9357749340278243 8.234395766989936 3.6229250544436824 0.5271321981125243 0.4782971788876923 -0.8122659960372334
Ni 3.373829163576439 4.435566521710797 9.324512806430253 -0.5244824191945031 -0.006543971766104858 0.28313759343028655
Ni 7.454062864253221 6.278115254114257 11.173903681746864 -0.3381789985761466 -0.5090876819059877 1.1124194072992262
Ni 0.6674244544107943 -0.05633054378571995 -0.009970263403200333 0.5007459948095118 -0.21306037699722663 0.8644935858833821
Ni 4.546129556751538 0.41688412118162343 1.6550528916135407 0.5740396612973404 -1.232625422067877 0.07389659017915015
Ni 5.84194782740091 5.4925913866393685 0.565605712318568 1.4362812179217523 0.26216459072304527 -1.1834592447558714
Ni 7.768581160798038 8.863008055135754 11.343611214849656 0.31673239866659647 0.4901134547963301 0.36683162931583274
Ni 9.075702192929487 4.758913972192892 5.570395371688083 0.07703539291844798 -0.5839011274724525 0.3568876307292434
Ni 7.6516896626591056 8.595054969233555 2.7931850007172594 -0.024276356048861414 0.7729350596480947 -0.5558390791289137
P 8.429964235030074 1.6038456043302804 3.3936785099587428 -1.012666003957972 -0.36058770528865 0.8530776307369565
P 1.9859006090599418 3.0487844933190793 1.498597214404954 -0.6546095497316081 -0.29525777373258827 -0.18325460648970376
P 4.658182172978016 1.448342356304089 8.679412208723036 2.3436466634679958 -0.5219930771137461 -2.057025225254167
P 8.503016907484525 1.6802927163352608 12.52982610185249 -0.20064117739726736 -0.07424343199560762 -0.919810613288132
P 6.147700164361783 7.639276486111296 1.413465392698888 1.0888423913102345 -0.16528259539231535 1.0647724948452244
P 1.6250157126972713 3.011888018736609 6.005289883569983 -0.09453020726910172 0.049932366054068845 -0.6436620495811689
P 6.824926965751204 4.002721312429881 5.83250297990686 0.11534714401445298 -0.04584508335857266 0.09251446239065357
P 2.260958545829869 8.44568157348079 10.114256251154918 1.4803735802552764 -0.015660589355392385 -0.023445632617449943
