# total energy = -340864.1617865244 ev
CRYSTAL
PRIMVEC
9.26919941111375 0.00000000000000 0.00000000000000

0.00000000000000 9.26919941111375 0.00000000000000

0.00000000000000 0.00000000000000 13.56641028319966

PRIMCOORD
 96 1
Ni 6.100412234586153 6.398713603802718 6.8917228448615 -0.6556323345691677 -0.21624545959342759 0.33524716964133233
Ni 1.8372201692967396 5.546531235346334 3.2046847376115597 -0.10020488905637581 -1.160440158152879 -2.380220605937288
Ni 2.6855928968747436 0.5775026265256146 3.435068830321891 -0.8952972015278 -0.44612033704483167 -0.6665865195878262
Ni 3.633071902485918 8.847107692702448 5.401045592108639 -0.8548630047721536 -2.9786484662710055 0.6467502015881894
Ni 5.506034103965216 5.088901600780707 2.959715559932542 -0.03301245037027863 -0.08678553032667634 -0.40429003127260693
Ni 6.867262355046523 0.8067289962536839 2.537284782475329 0.08580439736032965 -1.4368797707376997 -0.5122087440334727
Ni 8.403743355732503 6.396887571556877 6.294570442914775 -0.5615078473789168 -1.62855371163935 -0.5130453810021551
Ni 7.498244553377243 6.8737044485026635 2.0635462065896633 -0.2912170280043114 -0.3899507318317994 0.20806549488579648
Ni -0.300461092634235 0.6475926033284228 12.241962102219352 1.094438140230457 0.17162267867773023 -0.32689108436715314
Ni 1.9933876377126456 7.527312762123223 12.863452640551383 -0.9575708627560411 -0.38563282118273584 -1.0467140946816167
Ni 5.632873826057051 7.523948042807282 9.17655079052994 -0.4649824640566573 -0.2206739276784264 0.4915959528791276
Ni 0.7728936383501593 4.907373603305808 4.99307661927052 -0.6511156776457367 -1.36593120744328 1.331090702725327
Ni 0.49972106821215106 7.383028407104112 7.731076641600907 0.25009891780776283 2.358001389527771 0.2592165638383149
Ni 3.4756345537772195 1.7205394895472488 5.612763371434832 -0.13122653424887076 2.1679544427065824 0.5425960980760784
Ni 5.515423802772511 2.7076350526138833 2.032668650156433 0.6242023981946605 0.5834720103548339 0.49912619981790174
Ni 4.948640078221977 7.875130193559504 2.6284918489353735 -1.1081462338451689 -0.5074676298040616 0.7558493078104015
Ni 6.65620268886477 2.690579726053741 12.67563919908712 -0.32854893168555027 -0.7489716068539617 -0.2912928755475693
Ni 7.861031741549734 8.829245945810387 10.14539530033738 0.31513497227248954 -0.6274766980705581 -0.12322397565936843
Ni 3.8910615243057136 4.432188105422296 7.201403083037429 -2.26651948216669 0.08700458831601791 -0.3007139117511531
Ni 1.2859345458378124 2.593271672668759 5.481006339158129 -0.17224437142212917 -1.5394274489946391 2.626313487909451
Ni 5.135423711653181 0.7563787061043962 4.175360841184371 -0.3189036952863024 0.623771481304829 -1.9340820140600108
Ni 2.632081809792299 7.424128036434366 1.4612243722393554 1.5605225791020414 0.0721091592614242 1.3279948374088226
Ni 8.443341374789528 7.020389526119099 12.50209754365799 3.8955807295700775 0.4165606211098439 0.4944997567894839
Ni 4.032806118739239 2.0610249844025117 7.996273065812284 0.15730343384158071 -0.01411175681103376 0.39446250365922386
P 7.333419652892221 8.627288633260187 0.9005138270161064 0.14226633700280014 1.032988260455092 -0.3094656898018541
P 4.453080880458469 3.05656478795626 4.205804599094224 0.16515763977867687 0.6110614899373282 -0.9070083193171411
P 2.956930165567693 7.077932714861142 3.610252060932433 2.8331240273422242 2.8602337390748227 1.1326347059048363
P 2.1798190415735856 0.27636024774889567 12.254158514549697 -0.5034613368581459 0.6864362073239016 -0.08329268668206946
P 0.3321691693173506 7.235833523530715 10.18811611261077 -0.9032683926587346 0.6725224254562869 0.3398543293960405
P 2.107398788087506 3.8468845208352596 -0.24213558347823744 0.9321285114235366 -0.5060622648161026 0.7487507490924072
P 7.308179623423055 4.738247794383882 7.628527782978369 0.9874931042367704 -1.4905397221550007 -0.15351079956836788
P 4.591516370771358 6.303759927018973 1.1834051525336302 0.14313896941574059 -1.8676935593324482 -0.49767866873809774
Ni 8.97695990453996 6.761825213947821 3.983885139109285 -0.45430364418657243 0.8357759062337156 0.8905247198398212
Ni 6.822872159994067 6.43586455426633 11.138646538604336 -0.6757648436529845 1.4898033582096084 -2.7227190578243947
Ni 2.2416260619556643 5.1634445008875876 11.27397128565984 -0.1064758096667521 -0.48458095501387516 1.2163832491774018
Ni 6.983182960460182 4.30373554266662 0.9474493441736789 0.6188761008857406 -0.2191058118603581 -0.036961150605381514
Ni 6.508155038963365 6.306392379596733 13.458218223699612 -1.7933308281501563 0.18445325478349525 0.800988366240885
Ni 0.7485962864414097 2.6788449198444266 1.4709106854216099 0.6762672372106998 1.0952225838049654 0.17473319928225392
Ni 8.703509258425429 1.4847032538572027 8.352241831040406 -0.20840076673802818 -0.7230939677562515 -0.46990304128672616
Ni 1.364704200787858 0.37813698207661933 0.9407412246999971 -0.09892885055742962 -0.5704614570277788 -0.7320771450914683
Ni 9.206066701598125 4.973351763335747 10.734163711591906 -0.5322317241226189 0.9426769763633441 0.306560343229601
Ni 1.7048467352720749 0.2685546550878656 7.080174007231927 -0.8531033417685694 0.7309314615227992 -1.6362289687964209
Ni 3.361660480199229 2.2073300248510312 1.6012022573020313 -2.06078597784818 -3.0839317982915535 -1.2447671996367335
Ni 5.799033491229388 4.231417250371932 5.563707061496303 -0.5677420012140867 0.27443826588407577 -0.1001758355906533
Ni 1.734359865580494 7.060858849902566 5.42108282005704 -0.475243222552717 2.2052647491212665 -0.16096982694957437
Ni 7.881933785785126 6.45099188738924 8.847306980485623 0.0439370677025824 -0.06276294215983384 0.4726374094987537
Ni 5.5701584241516615 4.624663027173025 11.44402679526328 -0.6676090473150696 -0.892765693355198 -0.787541753817676
Ni 8.286330409244833 8.638068711950103 5.483447846232011 0.4752038846743494 0.3290094162617366 0.7782716413696597
Ni 6.038725713793902 0.7623054320840453 6.254576629051164 -2.1367610478229135 -0.5942757858385572 0.6475626701871556
Ni 3.0426239123331875 7.419493436825632 10.46860208093136 -0.10211958958058542 3.2993107961196277 1.4304412142012075
Ni 3.320310582490103 4.270653770659475 1.7338825018207942 0.23205157338774873 3.7422450221269936 -0.8969691899135843
Ni 6.619079545998809 2.4647171487216912 7.92066698855516 1.1150316481110927 0.21486760540929445 -1.4238031400593993
Ni 0.6130379555656228 5.2301178508588375 13.755932852605712 -0.36155623984950636 0.7865243682967551 -0.3999302116420145
Ni 8.13410235049635 3.704027622495638 5.743407172885518 0.5293207211234109 -0.14507166766207918 1.6292954749013813
Ni 1.8248272499429845 6.180359077836817 9.09839382964817 -0.6125002792663837 -2.9255091632438646 -0.35411083931505466
Ni 2.370403046683951 2.482143243250532 11.684505045921433 -0.6754151736230496 -0.8073176508930225 -0.20301739093892776
P 9.416116025065174 2.7509129437602424 3.899895071159961 -1.4425781066740575 0.8813564230769918 -2.763390824512144
P 6.4545512598887465 1.1552573752699442 10.945257673810763 0.6188570747223471 0.6071349011894125 -0.08426507789766778
P 4.329754184870054 3.3637089732262897 10.262976019330887 -1.2487611512874752 -0.7566684612775871 0.38777763543988053
P 0.8562098355163732 9.025169009670014 4.651609516218127 2.4712831663727632 0.2405588395278115 0.38444265752937656
P 7.534848621087026 4.723565382823412 12.292537633909625 1.0471540104325128 -0.005804522496919036 0.32574102992311
P 2.082928102153389 2.629922086374629 7.329415358830275 0.25652873259350656 0.2910205957227891 2.251458988289142
P 0.5813808594782033 7.142260957430373 1.1969808217075344 -1.010760045184511 0.7554435877315505 0.2894925891140369
P 1.5055682212957238 5.562845025969079 6.936925948685327 0.33662733781831056 -0.5910431378338724 0.8572019373179753
Ni 3.362948898890457 7.139934388426789 7.4696379507522925 -1.806415686358573 -0.9334909389887021 0.6138457375506848
Ni 5.4405472114938025 4.203572575922657 8.630800732843685 1.823998946657975 0.42769838289421824 1.1726873509513482
Ni 8.075984471402824 1.6370054661994242 0.726529103864383 -0.24543416534224186 -0.6858438251555414 0.3102958990126334
Ni 2.2757830610720347 3.5084567882062743 9.478063937275358 0.5330328798676756 -0.04310171628548061 -0.8984835696755817
Ni 6.682147177474464 8.121190355986418 4.060657281627965 0.39837135179532684 -0.40858711598606406 0.3916926542235706
Ni 9.008475181879353 5.116449660855023 2.4919593252218304 -0.5880801985508065 -1.9722580109091 -1.0866201868479353
Ni 2.1848058707525833 3.1301066145476533 3.537116225266765 2.0937920004605552 0.36685708323712946 -0.9143357062164899
Ni 5.70738891856628 0.6393624813432328 8.932531705770714 0.8892481671202427 -0.608755467511971 0.04990151281613341
Ni 7.399360736125291 8.611438302598316 7.708433841752476 0.29040893028071924 -0.3587048864436403 -0.059179081463317434
Ni 9.032547292247118 8.825408497334355 2.908013820537348 -0.45898588015359015 0.32909837643111706 -2.0679495854761547
Ni 6.810386548648137 8.651889087983347 12.383201525295526 1.015517357363838 1.4691023782168313 -0.5001620972815837
Ni 9.01781853469056 3.2168941268208093 12.743810451651912 1.3372220124340453 -0.45013794284465697 -1.0089551307652882
Ni 0.12649583480086815 3.7906575583820965 8.436014072808119 -0.3287677325645757 1.2384967932469897 -1.410949938245815
Ni 1.082512699811253 0.4631142197426035 9.656584079604189 0.29074188814010576 -0.3548520883564534 1.4215739936185647
Ni 4.826675954918529 6.608373620902634 4.844931642777333 1.24770288522629 1.814330313219959 -0.32056771325228656
Ni 3.234190452560605 5.228143511425516 5.169141350726643 -1.0511716162323381 -2.1079963169853957 -0.3889837399328398
Ni 3.7755487636576235 0.949777767017107 10.21146429851965 -0.5646890733203758 0.4746223011392665 1.2746927835515725
Ni 7.002240434051296 2.324427818565309 4.268413405208613 -1.6973795721638123 -1.160616278719427 2.25962584037065
Ni 5.066831637443915 8.295840607641955 0.28902012004011385 -1.0682293430455732 0.06626221356234394 0.49920384713337246
Ni 3.9965450114005026 6.046409879945183 12.481232576219469 0.837592390617164 1.0971491114037168 1.083688357913121
Ni 4.118045674743077 5.728874922352372 9.59400215416753 0.08776563485175853 -1.2994877311080653 0.3983914063999849
Ni 4.318510646219265 3.3173166311428606 12.989824268082739 -0.7030244506998861 0.20146315907793041 0.7321049130056101
Ni 4.795123600782266 0.9796523960950073 12.410592935903065 -0.4226741902067495 0.025453921296730356 0.22191088540932105
Ni 7.594236380473344 3.152547345853144 10.37021787351723 -1.8094663002594384 -0.17688161308382438 -0.22913517107190215
P 4.967197015055348 8.207634907888528 7.007471043169714 3.065369204798017 1.9103985544001418 -0.26297345977758585
P 7.7076264945006345 3.328977283758436 2.7292359944702715 -0.1972105544491636 0.6943212664989332 -3.5671801505369336
P 4.987709752923606 8.011850882017162 11.532492959514721 -1.25749210340257 -1.213822430428761 -0.7058621772589972
P 4.662555513574035 0.5997635353662865 1.9163503960963448 0.09805184726911499 0.10105926663687112 -0.4029281179280738
P 0.33223405371187287 2.719851857182506 10.34791525328008 1.7485931189231498 -1.4455351324198524 0.2047199754523313
P 2.936936502855614 -0.13921039536746943 8.647270246013283 0.6172838166979563 -1.0590859859834083 0.35503695067374985
P 7.960434633957865 1.3880440444174431 6.0715924403792005 1.197970036777537 1.32889755172875 1.926024690973173
P 6.9410173732199185 5.8547413785263736 4.449402862208978 0.30092088555563656 0.9641752554464362 0.39836261004457846
