# total energy = -381160.8118191791 ev
CRYSTAL
PRIMVEC
9.35059314608409 0.00000000000000 0.00000000000000

0.00000000000000 9.35059314608409 0.00000000000000

0.00000000000000 0.00000000000000 13.68553824174241

PRIMCOORD
 96 1
Ni 2.9008344732893834 9.373969504795173 13.143974326577306 -0.32211680290696143 0.0520524977208652 0.4813025413729195
Ni 2.1850746292160106 5.790092912417235 6.229793328576424 0.3001361848708122 -0.9491322450703849 1.2029626048961217
Ni 4.749633725646593 8.207501726456831 0.4146099699026139 -1.0386498296162434 2.7945446244071293 2.003955084902065
Ni 0.3739161890698273 8.416132157969042 3.833250362865954 1.362142172714493 -1.7681170478886905 -0.7375371397647749
Ni 8.688187661951101 4.070920931127333 12.86443273782164 -0.16299739890256443 -0.6624359877545625 -3.6853182270329627
Ni 1.4704929598634402 1.4054969877658527 6.950323845209744 1.7055975891982305 -2.6091107508779197 -0.818577540077558
Ni 1.4594218577251084 4.459381967643254 13.559384707242621 0.39533256496900304 -0.9840581104132924 0.06528853679516497
Ni 4.053603632850145 4.839100199683381 0.2896598654650309 -0.634072863230837 -1.9957044148574985 1.4554775883445448
Ni 3.389552568189757 2.5494017851415314 0.0814006524958044 -1.1130603833173347 0.024602371929712468 1.0841910085811521
Ni 7.525946351658812 3.09079177053618 3.786555371431494 -1.7400367447127065 -2.7750978285364276 0.24257021353088545
Ni 0.2751608359247462 1.3647377527819105 2.9208082750441893 -0.5345182061639505 0.0880577121708806 0.06835843396974033
Ni 0.8724486664063436 0.8904074153648569 10.85378126566458 1.4732199999296305 -0.8063558012003855 1.0454380561826706
Ni 1.8302102734289964 5.944966784644589 1.910637529191186 1.2229030525737905 -0.07737632119763448 -0.7482000187952599
Ni 7.476313403896764 9.071356262816435 3.6004869858226467 0.9656006750390532 -1.4641146951942527 1.5694080545171294
Ni 7.622809144776191 1.7670283163777238 12.016641585214941 -1.014393271061724 -0.5749778568408936 0.6050289105900032
Ni 0.4609935865894333 1.8617311225069662 8.890056679648929 0.11486326239949897 1.050473304613733 0.015261297034444685
Ni 5.420819292782949 8.182965770366476 7.472468440046018 0.8587150315283922 1.3997191025270024 1.6762967833515838
Ni 3.393554622003276 3.8898186454725967 11.906089523913002 0.856245229831661 1.2899065151775333 -0.4075437623232142
Ni 8.99334426523189 6.749080382185103 2.1524616308730433 -0.299204159974846 0.9366467110088643 -0.7160447742189539
Ni 8.156662552194915 9.288018853734748 10.309247610895852 0.06116345888319788 0.4556354756241186 0.9258367648775538
Ni 7.059211500953722 7.225932574540255 0.47635754598427515 0.747930567183957 0.6913773533792609 1.4740898041290935
Ni 7.2344883671556035 7.423519955693199 11.926139065471288 -0.8424065241763556 0.6986525468844356 -0.8155202413084729
Ni 5.3392166674778645 7.884494841096587 5.362158347457929 0.21874097232177167 -0.5267889558404928 -2.805115200834124
Ni 8.209007171933413 4.612189358812693 1.049327289192934 -0.5663790594282891 0.869945867247205 2.76281798272781
P 2.7711978516290543 0.5161938774369225 4.614311943428741 -1.4999083078540942 -3.0830226562137226 1.6166425620240612
Ni 7.761029610830937 7.126863041469627 7.5551557341416835 -0.9517239170569609 0.36732399557121903 1.4337221989453244
P 5.771485232302978 0.09826070677420458 12.455413487487023 -0.4133359435249591 -0.32373196991288117 -1.4391965917963343
Ni 0.8073741493273694 1.9029859389210873 13.116890333888387 2.025194196786499 0.17465838018026048 -2.345840071574889
P 6.009869250811954 0.8028652933720455 8.983802920111996 -0.5911338977754658 0.4720542833017741 -0.33424752473222435
P 0.1701854683012714 3.234903110194937 4.169408857311978 1.8453488730886605 0.5132222728996516 0.8548712323022697
P 6.618321689362105 1.2352787923890036 2.595407637870252 -0.2872721844239504 1.9838122914056027 -0.017107091993931827
Ni 1.310887687566833 5.016060172629264 9.124120724181632 -0.7773509293276032 0.18153993779144217 -0.7422134621945217
Ni 1.5976703755589206 3.394125008177632 5.873969601945328 -1.745130614295846 0.6944392801340363 0.27461901443631415
Ni 4.630039640892148 1.501518227511231 1.9567714850443116 -1.5897503656189074 -0.6280495398548925 -0.774669525840698
Ni 8.042688173846837 5.154542455288633 3.4224797464582717 0.4504711578143597 -0.2974398689855716 -0.13996931343850735
Ni 4.128342922876906 2.0682202682170825 10.114447641522839 1.9358823004935435 -0.47727747937392634 -0.5374613479526743
Ni 6.641539211836326 0.43113807812872457 0.6012562221602358 0.48520856129554496 0.15740422108550314 0.13791551623327217
Ni 2.5748634499410894 7.529106852100328 4.7718872019802205 0.028460055112905825 0.6438129733367365 1.226606983787939
Ni 6.428925427696642 8.08821621127212 9.56947544394137 -0.03128209794273322 -1.1068961634881518 0.44309260596210137
Ni 1.547298730948116 8.093312284469242 11.696071464396292 -0.7026979205984027 -0.660417671772953 -0.5509773801612382
Ni 9.155446145865435 2.919199037985062 10.911260296031587 0.25632330145091986 1.2957449762361812 -0.3450433297961477
Ni 8.49340545870483 2.059673826194756 0.6313903782930074 -1.3609859476228625 0.3165449652461387 2.236747136000264
Ni 2.82474869786742 2.2257777606418196 3.5416119119174168 -1.6361286957731307 -1.7556543966453055 -3.086021076720414
Ni 4.232377620842343 5.952381804911224 3.5882386440228147 0.1270124961675232 -0.06679983123336881 -0.5168709253958323
Ni 8.809156283879815 9.062323589956952 12.630301369019177 0.17210733162363262 0.44674974309871446 0.0020165162093965273
Ni 0.38376423364085 7.163208796547072 9.198132538071262 0.7072806548730787 1.49703227185788 -0.1782998335875897
Ni 2.7540395134332445 8.597140937693554 7.148244107474279 0.2695608831871164 -0.5875196980616463 -1.0811619919468414
Ni 2.54405324593281 6.351025637228364 13.106735589866236 0.03858634491363032 2.1254070562626755 0.3810858252420018
Ni 7.929097169812671 6.205259242604672 5.443861024108352 -0.0461610719370947 0.730740942778548 -0.41960789257659986
Ni 7.015235661970131 1.1741446152096011 6.165129302531127 -2.170112626700166 -0.2554756087386439 0.03856217654391423
Ni 8.804808258124474 2.2725026739739507 6.759533410124665 -0.19010299687010485 2.7363250786436035 1.1122736257499812
Ni 7.777093929643144 6.138879382739792 10.07239147928671 0.08955229443853609 -1.0601154556891872 -0.24450085489469503
Ni 7.334446206563346 4.262692243420444 7.004216923152724 -0.34058400847321346 0.5241833998968457 -0.8552103608092433
Ni 5.620800425749587 5.909976865555368 8.393929174837734 0.7041220546394389 -0.2470218215443359 -0.8559030160008937
Ni 2.0392053780690733 1.1892364723474957 1.2239458736460493 -0.973004680812608 -1.1556489074118226 2.266261086298981
Ni 4.214676948251244 1.0272561494232397 6.950967166009674 1.1992370764154185 -0.071772858967928 -0.2840426217430592
P 3.206963538244485 3.9361508338977935 2.155349093998311 0.4899260213758723 0.958650211863149 -0.12325637155920063
Ni 3.078673401979358 6.775673468740352 8.678711770982364 -0.3516793470554266 -0.17003373692405557 -1.0098141363314739
P 8.137035657441235 8.69899694748481 5.95765647443507 -1.7737943007791257 -3.2108959577196448 0.5300984798296999
Ni 3.0411307709950663 2.7072491459499575 7.897103180727775 -0.5623946208592444 0.7883328822604035 1.5192890263735512
P 4.169242416756182 6.644774517022021 6.806434114605614 -0.3109512732084451 -0.7596496553930981 -1.175234285742918
P 2.870697511978705 1.633903923520099 11.757862053205857 -0.6646203970003909 0.6037724124750826 -0.026908137244753657
P 0.7185556713870224 5.437360491839291 11.485341824750591 0.08533182859928531 0.08475050217451856 -0.05864943421209254
Ni 2.8246925943092864 6.179573163572579 10.774268497899966 -1.13622473724894 -0.5838396781068976 1.2401793231557352
Ni 4.073258579382893 8.078454192156904 11.69089871633639 0.9927106438819677 -0.03507293244373314 -0.5909112402416985
Ni 5.889508417429686 4.773206570655659 5.1209233331364725 0.3216131237976655 0.5812207524268119 0.7770377689625586
Ni 2.159463354928097 3.2505092499490544 10.162264704119966 -1.4809117121469333 -1.6628668830989233 0.13229379917112055
Ni 1.0127907820178352 3.525641099035432 2.1503540072058307 -0.12497978200821057 0.31467834435104514 -0.3624268153799177
Ni 4.199669246450549 8.757335297350563 9.445580086396694 -1.148299666135603 1.203041023542541 -0.06982627676451846
Ni 6.331688610858373 2.959378536201626 1.191691938075136 0.48910943901184795 0.8952380661550904 -0.24355880269639987
Ni 9.336286614915549 0.7143086320363211 5.239850720608431 1.6798863004750553 2.270264036810787 -0.8588690406077532
Ni 4.082328654614465 4.431189929681201 6.951856407406089 0.8883693640597151 0.4105321555275769 -0.39884186367384217
Ni 8.442042651233667 3.857830266743515 8.969474071364717 -0.3935165948061868 0.4132672950705528 -0.28102928883803213
Ni 6.2679082158536765 4.778508356899268 12.572260368011532 1.4115330644427948 -1.420340892542412 0.2602414055584034
Ni 8.765984595896134 9.03902191214553 1.2589722600480566 1.4782819878335702 -0.6650361443815708 0.7160488879840119
Ni 3.1182825140215646 8.005108140490456 2.730990301633424 -1.3207432980527318 0.7484995523135496 -2.0047215307544444
Ni 6.353999125809437 3.5566570160902007 10.578715805788658 0.10143619036031562 -0.047141690682809136 -0.3544450827260218
Ni 0.6014245328346361 7.436582734145268 6.416450801545672 -0.44726164973812654 0.8731317211743542 -0.08221796556065196
Ni 5.705498097345033 3.002297758173705 8.242553359459999 -0.0505093216034614 -0.9722055819500804 -0.0989699882080102
Ni 8.591502530101145 0.06676229911948835 8.095201104259734 0.0010343548017853154 -0.3851239998671174 -1.509509578389284
Ni 1.2279385768665454 5.447561988826555 4.104402599562066 -0.7504240230297722 -0.4654989986817596 0.13024848660631763
Ni 9.212101388987184 6.680082356273997 13.231697850074747 1.0717065029608963 -0.3175194133442661 -0.16335221113882192
Ni 5.994739991301969 5.4181076208064995 1.4415799911793732 0.05958608709374899 -0.18051869561577943 1.5066584820937343
Ni 5.125424708617379 6.476398388470552 13.109924142086818 -0.08434555342661602 -0.33977025432266644 -2.2301975078072043
Ni 4.822128873348016 0.973873613859274 4.39543887231997 1.1090096102867288 0.0983935468792499 0.16127167446070934
Ni 5.2142740435147 8.580309870253524 2.9044821396273592 1.6549969934325435 -1.16544892422138 -0.699693329444124
Ni 5.305423624295491 2.511457078657283 12.674641881130638 1.2424313524147053 -0.8315410422167614 -0.867016609415552
Ni 5.161387089380912 3.5001046294916955 3.44904291111585 0.2961201217328836 -1.1627060713689201 -2.371786873347638
P 9.160729230923002 5.471742622382066 7.264146578103544 1.039636876119861 -0.4018757654041595 0.7236385274058118
Ni 3.931316577305296 4.540806931680916 9.428090737207897 0.48779920484085665 -0.5250390630289216 -0.18198756685182205
P 5.241035440744349 2.569916986232325 5.745668244968574 0.22122311531367705 2.2828655276248813 0.5938086163941516
Ni 3.369804115726787 3.8152196143411694 4.694742004368837 1.0905784001647347 3.7258023031899383 2.1811580858810498
P 1.6486311075301263 9.194484871733286 8.799184811480899 -1.185369831515023 -0.16630949399493294 1.1654137001080702
P 6.747546884929455 6.781695250646675 3.246482884593678 -1.350651398466074 1.0146915190284331 -0.11084822770283488
P 1.762203410378248 7.995336770782216 0.9074638320967241 -0.7157300711920125 0.05354887976073359 0.13477131417733562
Ni 5.199556210097694 6.157141090912226 10.64855257989386 0.597648558965532 -0.09474309461085619 0.8814150442290691
