# total energy = -340887.66350202047 ev
CRYSTAL
PRIMVEC
9.10762817648136 0.00000000000000 0.00000000000000
0.00000000000000 9.10762817648136 0.00000000000000
0.00000000000000 0.00000000000000 13.32993444944388
PRIMCOORD
 96 1
Ni 6.533739599846043 1.775140486912584 11.29933246046378 -0.6516872338784906 -0.745736901966748 0.21612513196547942
Ni 4.415860849025572 0.1312691558123606 6.167027326263286 0.6536302165374743 0.10358923214757643 -1.1236744113877553
Ni 2.881507836103121 1.803875053840448 4.662837867131134 -0.6154045973973724 -0.5094833746825096 -0.733428259802724
Ni 3.28229812207066 4.6809839055295726 5.2902377822911495 -0.8583429929009541 -1.2921050654907489 -0.4731950817744367
Ni 5.40853767556618 4.6479141075850166 2.853245955078127 0.40091057327741275 -0.26041649768368696 -0.8625336339435339
Ni 7.454329549291865 6.420003539055181 2.3737284203051523 -0.5759103959574919 -0.25022078809760784 0.21451407872461767
Ni 5.336232215394923 4.586938536877552 11.89730016437686 0.1604170397698979 -0.8486303935988805 -0.6952160103990608
Ni 5.6523579897423595 7.7855830940567925 12.303342819519456 -0.518515660088107 1.2515448846801995 0.4402078282151386
Ni 1.8889767316134949 6.299427649496388 0.6448492200022014 0.13756610331365343 1.1286147861121658 -0.718562398434485
Ni 2.9191496633972136 1.720758839012021 0.2273983497934128 0.09940424753195139 -0.06780050458374129 1.8699191062288572
Ni 1.1385628148292057 8.985048618567971 4.490028819160932 0.3219478814292649 0.6622251572953369 0.2996772429565226
Ni 8.772895527595653 2.159782948105764 1.232694705948996 -0.5914020638351879 -0.2751455763637455 1.7138927393274868
Ni 6.74492728223061 1.0714760256087152 4.790444845649772 -1.0857233860652784 -0.793618299029059 0.23491501097847287
Ni 0.7711428785363711 7.261429984305443 2.879705436485047 -0.38797561038329953 0.5235745626682531 -1.080001910200469
Ni 7.607547178270457 3.765885855880105 3.563837678380517 0.22769972417695625 0.22892562616425735 0.958990111701071
Ni 7.767823219093453 3.5014640867464517 12.411275499629987 0.9023003723185105 1.3066441396471884 0.2869911628484219
Ni 7.6343236051382615 8.907560917958696 7.207735051570129 0.10731630329017647 -0.9897127375959083 -1.274128169297354
Ni 7.206684031277427 0.6265255828541286 0.11236171969754417 -1.3019004543146158 -0.5118608737757507 -0.8371956693993775
Ni 1.872701400044527 6.465423280820398 9.304387564139544 -0.5688349771679494 -0.2778331504982376 0.7966210904111248
Ni 9.132856316403885 4.930068428797451 1.5405808090762616 0.11725001746412064 -0.9141955810941997 0.7069523249993825
Ni 6.300274658917716 2.0728233141827066 7.083607187018669 0.6652922262564348 0.427339971113535 -0.7261013871240076
Ni 3.457437812093743 4.35956659920588 0.48998675337315883 0.33929717134098986 -0.7464763512359338 0.4141044462598675
Ni 6.298061505268438 6.167858852716697 4.942739871893089 0.6881377633960407 -2.4622938183899596 -1.348016789056704
Ni 5.237678570790671 2.980881167244143 9.330407147105063 -0.07613139304693986 -0.7551515104124285 -0.5028324450248952
P 0.043599126890769606 5.3138547729411165 12.714850962336666 -0.0928636181999562 0.6292669572017614 -0.33727499870463845
P 3.9569001418319574 6.203833984052692 12.755573900246192 -0.6437363544625301 -0.16097779736937437 -0.04281992337900368
P 2.302126069029881 8.373061542587678 1.576971248257553 0.6002003788531082 0.1045305130149232 -0.04672337219846792
P 6.2749736678160986 7.981615683139311 5.819342709487405 -0.46881752153203127 1.743072960435869 0.9555504898919026
P 4.6748635793883615 0.9461641693930316 12.542508224929602 0.9185435736502503 0.5454160840233767 0.07522430785163818
P 4.022821154644597 6.3093549642194855 8.632838421346305 -0.35109133576244056 -0.9040230114365722 -2.1557501873309066
P 4.76228770234892 1.238582787571457 3.6847806053552192 0.6700893905347621 -0.8731404629251026 0.09948395172995125
P 8.605142124031682 5.804391627056729 4.150341610695466 0.7852683844024669 -0.6205912838046345 -0.0809277859943187
Ni 1.6574152849761115 1.224912237663779 2.5513891018102104 -0.017041528863319038 0.2742564888905728 -0.5498617784995563
Ni 1.4317191508907234 6.396660688013623 5.120147361334567 -0.0033504045294716492 0.113765658459946 -0.08092290089831224
Ni 6.016298812068017 5.476362182669762 9.19894764186361 -0.1308660655856585 1.05345475583956 1.1735756670935724
Ni 9.056598145599763 2.28977612520922 10.15481052451226 -0.9441692446381545 -0.4406929953816732 0.7435018419886421
Ni 2.318610876047134 5.423310248484404 7.275597810712095 0.0386724768695334 -0.7246934510328874 -0.01159284704392197
Ni 0.2822572374109394 -0.09876494157817546 8.999412258980628 1.7650769755107858 1.6002029284107988 0.7977058388348713
Ni 1.9539323358383844 1.4304258676882649 11.47519438540204 -1.507965630940932 -1.7121870694902899 -0.42850622350749423
Ni 4.280603462830418 6.741484598776179 1.7667359676222407 -1.1110610934991187 0.9557345808782508 0.8039927002848476
Ni 5.388209449454296 8.000996715919817 8.142110307038779 0.43060630056963256 -0.1303320474590594 0.5078026445459771
Ni 5.036718754859349 3.103114645132848 4.868865167385327 1.2679158698390551 0.06684431131805907 -0.7684664823537798
Ni 0.6654060475815617 7.717849663235072 7.118611445190001 0.12150827851984236 -0.9621029462984397 -0.45068533070769473
Ni 4.917281318823847 4.540216404281691 7.174624269298735 0.6425091669236482 0.2969714139895853 -0.15227538449937
Ni 8.151709747147168 7.168431992894851 9.157211935699761 -0.13724008743280236 -1.0714046554497612 0.730524970113
Ni 4.352927138258047 0.20006180379215005 10.490871986196751 0.5229222737962349 1.2154581662599713 -1.0540044576954428
Ni 8.227567182311093 7.877916228609783 4.7486025802361445 -0.8940504736048926 -0.0756606240581084 -0.10398518203441447
Ni 7.208915400183078 6.2382426033406375 7.224744457970916 0.3365034106459366 -0.0026292100927309556 -1.1567249140848206
Ni 2.376416992145756 5.551928173731723 2.9035000258846466 0.8341800225015052 -0.9826010662517916 0.41493619813254345
Ni 2.0398628077763865 5.019195678228854 11.743685442809344 0.5834110752099114 0.34196649064303686 -0.26207511633303254
Ni 1.0017844547269352 3.8213604191630277 4.188784909269955 0.3486688423638769 0.1308218426112844 -2.0031919814837953
Ni 3.867244649965747 2.8131915170774766 2.4743959454114512 0.8958631013335989 -0.39837392289848805 -0.29340323702235277
Ni 0.8574576923838366 3.370004581504997 8.2635332060189 1.0349649245654886 -0.06126167502395902 -1.029325209781208
Ni 3.826342291780949 2.4334216369639816 6.6996915145547575 -0.7633913818237175 0.6789614962134114 1.6564003015379734
Ni 4.042029142489563 6.748388180941414 6.2230128274874605 0.8268472362855179 0.5686686267934141 -0.1960558720194301
Ni 0.4888200662024902 7.022245452876104 11.398519995989801 1.2614503167193696 -0.12988981771531824 -0.6202002190138027
P 0.258582868703399 5.614342749692628 8.012823881882582 -0.8880232935742061 0.32202012942809705 0.6636762879195667
P 8.604996401980701 1.5809567463518899 7.8347223911733055 -0.045575888857586025 1.3049986336239654 0.5590660707066437
P 2.156358479907705 3.254647362896969 10.319928180479108 -1.6987258017790616 1.5924500239382575 -0.3213400726419369
P 4.332726418940772 5.976234355676361 4.061871021256296 -0.9106698273291284 1.7924612810610099 -1.1700414286880687
P 7.0253784769722 3.6977061512772558 10.380646916071719 -0.13689838782266744 0.9273511446395512 -0.431852771382224
P 6.350976825031003 7.739197943703825 10.195866801613409 -0.1980353643433041 0.42966604814355036 0.09986910298351187
P 2.4599521578707546 8.311985787970164 6.013572898951849 -0.3358678339444668 -0.6128265522575511 -0.5401671769196116
P 7.04536972084119 3.763873070050927 1.429555178433652 0.6629298966718454 1.4667215366894806 0.6173660919991174
Ni 5.862343465206332 2.651558439654718 0.1801434209486512 -2.5620600772470197 -0.11285960170590885 -0.280187252552711
Ni 1.6345824611129878 1.0704741865082192 6.9510010313885555 -0.867130509285597 0.5499494531173561 -0.8101381510609532
Ni 6.858636020136912 0.8305564910098803 9.145774576223372 -0.42685763216047784 -0.23303064947156643 0.6501479144158286
Ni 2.5970948231004782 1.6578797740136142 9.065555497921016 0.6796130137544811 -0.12644351103793064 -0.11200985211110387
Ni 6.575151985209274 1.7371707850037836 2.4000276074559923 -0.3919317668175702 0.24390667295412186 0.2610685294453891
Ni 3.8191381578855634 7.018820984678045 10.68948749863291 0.47609168659594137 -0.1909722868489356 0.44556575009294236
Ni 8.147957404334402 7.368827135878621 -0.18183197521439642 -0.8101319804133661 -0.4653740430681211 2.114663701703242
Ni 7.527764355358226 3.9754888109602518 8.242898052837138 0.6028594137425101 -0.8278952179340581 -0.34643763904051306
Ni 3.159481755978031 8.466615099317638 12.549787041376117 -0.5978496192327445 -0.7329942575890989 0.892431707054547
Ni 0.0772472592251575 4.878273347301805 10.197226570501627 -0.8219251163935521 -0.5298285139977649 0.06355689881603893
Ni 8.757157546089678 2.0414930732217393 5.516846500720807 0.4909413500142642 0.5909526350025951 0.8814716084986175
Ni 3.8115606112345386 2.8521266275740276 11.552227615364819 1.3252396432611886 -0.48206153102613103 0.7596460558486724
Ni 1.0326593142785863 3.2964604839004 13.165709523495721 1.3208708247695315 0.5545005628231483 -0.5393585649753873
Ni 2.8780013992513847 8.58979577053772 8.221250131401055 0.7710895217989236 -1.2954174176934334 0.3949677254304166
Ni 5.852306858945 8.21140114228036 3.4310184042508434 0.3265756100092634 -0.14035575024364857 0.5852126471950244
Ni 3.5210545949752423 8.487726581453543 3.7998973825791276 -1.2462448126235246 -0.4978509326499039 -0.2018827631138523
Ni 3.8197210460894886 4.755702887170206 10.13103050731776 -0.7994816997883715 -0.3804057684558416 -0.9827255076447978
Ni 7.058038431648372 6.076108606367631 11.525447545445742 1.4812904356425909 -1.1404732281126486 -1.2096122490021555
Ni 0.8278870451884677 8.987616969716516 -0.09490603951562838 0.34267045868859697 -0.41375400489898423 0.7786125696488462
Ni 4.672878116443742 0.21274690833006735 1.5443395272287592 -1.5379040703715772 1.0342247039653543 -0.57463872833392
Ni 5.884183557597146 5.729490492852369 0.45948439581432854 1.5116973300692222 -0.260716545422609 0.7463943330450887
Ni 8.227986133207663 8.83121167087271 11.103475648605258 -0.9197661332034417 1.018006442334279 0.39218990557496325
Ni 9.098757356474273 4.495078998990251 6.194633458058863 -1.0209112746858997 0.6510220894906659 -0.29228480714719335
Ni 7.991479244465104 -0.2574935963723142 2.1023438694230507 1.5782086835278948 -0.8406062377428233 0.2850193838340317
P 8.616626843174641 1.14157743975888 3.542656978270393 0.10601172554614 0.818799683390693 0.06587757652941557
P 1.9509541414214553 3.5039960073822507 2.0327880022012472 -1.5156964239262865 -0.15501592335898465 -0.8132219321925994
P 4.6346260780611646 1.0530968319287057 8.158372887928286 0.19118491708037394 0.16386308933696941 1.5646252884165053
P 8.855064549092702 1.5207644316684497 12.40856962329583 0.5641239448455253 0.5852869520763856 -1.359929224223574
P 6.2330512552744315 7.970349547072824 1.1841993181452566 0.9857727791115538 -1.8461389730901239 -0.07422312028063346
P 1.7913520650842476 3.1059562251269823 6.046218281422923 -0.12176641727723544 0.3746434120507677 1.1809387923268628
P 6.834382406276721 3.9587125598410364 5.811970995233391 0.184758701839056 0.006076802321699212 1.016670754241991
P 2.0352725631704773 8.313169779634386 10.34246956024027 -0.15737413917851606 1.8575109623724915 1.1290634436138103
