# total energy = -340892.54390766314 ev
CRYSTAL
PRIMVEC
9.04167967722814 0.00000000000000 0.00000000000000

0.00000000000000 9.04167967722814 0.00000000000000

0.00000000000000 0.00000000000000 13.23341215461403

PRIMCOORD
 96 1
Ni 6.329356467305222 1.8663382691906052 11.292837953632848 -0.00811491579765054 -0.05646116831152212 0.9729249766146083
Ni 4.5945655928216595 0.3114071953621316 6.186713123544329 0.5038642287235193 0.2614014873047756 -1.3441099978031303
Ni 2.7535621095248706 1.8229562910612225 4.584332219989888 0.10338997165257677 -1.6551929114934334 1.09501175334574
Ni 3.3887039260477163 4.215104388541974 4.7962782286040735 -0.17860939440820853 1.2565024857957907 0.04767725147130499
Ni 5.153838676855208 4.749259686989148 2.5648604505094803 -1.1434225405489598 -0.9704652022202062 -0.16679080450672565
Ni 7.277891936171239 5.87588007482897 2.5445338508778286 0.0023512738409959505 2.4334748372757384 -0.374074169810859
Ni 4.9795783883000615 4.106730818333808 11.48616443170059 0.5991768226846004 0.8886547565106179 0.07262286567304913
Ni 5.5926856319381 7.725319445077554 12.278952450740078 0.21057771978468898 0.16601253157980442 -0.34460701358967744
Ni 1.799212840755312 6.615435205949171 0.5416580840769699 0.07634839415375237 -1.5535381773644084 -0.5641139175431963
Ni 2.9163575485035147 1.4006646511002352 0.5502892713054628 -0.3195156178386884 -0.18570203958893178 0.3374274651221027
Ni 0.5505903592320381 0.06529358417330638 4.610401190257216 -0.5849611933058506 -0.08437203578917726 0.9106677704465994
Ni 8.648221752627023 2.400086692061326 1.3344705156510457 -0.5556899551455591 -0.4571796801827868 -0.11478561508402811
Ni 6.986984940686713 0.794671400874493 5.010685382371826 -1.0092212399424814 0.30956750548704104 -1.3826935145032833
Ni 0.7938585538895343 7.468834123360965 2.702249674326442 -0.3769196096794541 1.4609859197572839 -1.009674782540132
Ni 7.734424416310628 4.141713076229302 3.874041388664093 0.603792981300373 -1.6713389251256767 1.0870187078379343
Ni 7.45407810245493 3.8169269077454433 12.467183942422679 0.9475980678140454 -0.8148337567644096 1.2327604049838448
Ni 7.9350412005404625 8.935602493115622 6.9180575055317055 0.7233382225565735 -0.2771682632207291 0.5812703747178248
Ni 6.86358409918821 0.40642801331905287 0.3159090475735988 0.30678300076336845 0.15880495808777167 -0.07930027769322472
Ni 1.8087698959622227 6.566555886697932 9.226890143306118 -0.2149722493079588 0.01799232281236256 -1.4184971544654539
Ni 0.02650930005784432 4.865029351009284 1.3325780921365649 0.7702693398904734 -0.9045847974773131 -0.1950657401920189
Ni 6.321987498531682 2.1233208832784154 7.0728347831503795 0.701029017536412 0.3335008763741869 -0.5910436520545046
Ni 3.5922682977869664 3.9453730063919648 0.3756646030674039 -0.22955580354908853 0.8072682857123259 -0.09411651677045081
Ni 5.828519757729823 5.549195153654996 4.667623267161639 0.8311013835761815 1.1838569944149224 1.5936242467520167
Ni 5.359337968002479 2.9423433353196558 9.274981028106986 -0.5630636219018109 0.4118128220122133 0.0680748412910505
P 0.3649475003836279 5.526762746873213 12.487272745884093 -1.334305867228515 0.02116043612769904 0.0019740930072353097
P 4.053574784690073 6.008720429701185 12.3788512547747 0.47649534979226327 0.17373149749061692 1.3940670464475475
P 2.126295595826262 8.519432070160384 1.2556975957138203 1.0504265105361974 0.6466946657599056 1.777879012371461
P 6.421898056749622 7.750699439368754 5.841757680651713 -0.3459283035042623 -0.05183883904816234 -0.6227985758685983
P 4.740841883396306 0.8355370796054998 12.575896575611223 0.663193177635561 -0.9996973596124461 -0.5007238833223248
P 3.8986094401382823 6.424972227771713 8.029518613560832 -0.2848394066127417 -1.5258242563889077 0.5536233024245175
P 4.851674790422144 1.1227324656648259 4.12448415598638 -0.21557337322706746 0.25445719477645856 -1.0934048138699364
P 0.43794640380700933 5.58323707688491 3.413809957450771 -0.36311329992398106 -1.2878583743992529 0.6796999170413326
Ni 1.2737104295673751 1.0568728723562757 2.637259890583554 0.5648212280228659 0.5465237152652588 -1.1234872350776135
Ni 1.9482920519677467 6.648753794820946 4.690622587246614 0.25008503385069186 -1.7624871032964227 0.0993188869069967
Ni 5.745372473261752 5.596817679458969 9.178469237204352 1.1981196749815237 0.06800696416759254 0.18346852227272276
Ni 8.322269207490665 2.3445798217536393 10.019016311407912 1.2564338373413846 0.8232039831059758 0.532555940231257
Ni 2.2598864100950466 5.154724761443928 7.156814806298258 0.7092411210335592 0.1668064882360095 -0.3444614891507487
Ni 0.5944461213660018 9.27260397057255 9.01302549030697 0.44990011580223804 -0.19956877026869502 0.5877778368190393
Ni 1.317671075183269 0.8354213461081975 11.676686180794649 1.7075971361267621 0.47015578072748065 -1.932386628635459
Ni 4.139570198193315 6.929579317688911 1.467691525229232 -0.21356174211367737 0.30140193895711315 0.42219905034254385
Ni 5.6618816049735665 7.865619185518077 8.156466505918058 -0.7468910701758491 0.032979283139498036 -1.0248481478464608
Ni 5.473561504832094 3.203168663185079 4.738461209190081 0.2530014361665385 -1.1350425440153806 0.303485046738387
Ni 0.8533103089529211 7.283850402946409 6.81592178999454 -0.6565041956511597 0.9838079420756992 -0.0032547594918718135
Ni 4.840562566345234 4.451770348845557 7.150595034986211 0.6742535492147808 0.6083073242309588 -0.37117987898219945
Ni 8.213543011782907 7.411003541427756 8.791775593511224 0.6509750383028143 -0.16691138924498997 0.7803588629159915
Ni 4.691890230709253 0.22562245299069683 10.311660213519918 -1.02825717352801 -0.4713284608793431 0.22132827343297365
Ni 8.27822718675948 6.971722585729981 4.704530498617731 -0.746956890416778 0.6637451934842892 0.24129854590731348
Ni 7.238651047242202 6.085005079446413 7.034087569920772 -0.43494863669872835 -0.056136695092567836 -0.8607973679787175
Ni 2.528207290246685 5.11712041650018 2.413191702294908 -0.2964345676495088 0.15918882378975166 0.40014155632187215
Ni 2.2992357991778047 5.158865850644273 11.530919840942488 0.10112225866432262 -1.0808233776604999 -0.22082690831652294
Ni 1.2561605297030292 3.4236861839432104 3.692823527751598 -1.3033014484272005 0.5490413394807899 -0.408333090993729
Ni 3.744928014072189 2.7296016589115184 2.649805220857526 0.2573088052926407 -0.12187363227906108 -0.505695111284671
Ni 1.0667373446653954 3.297292546537908 8.275950491867238 -0.2440336854502894 0.1982575076564392 -0.0222518694196649
Ni 3.517954734167667 2.5157568976072184 6.851810928341551 0.1571856773167938 0.08308802687043111 0.585275896332792
Ni 4.176921376111714 6.969281332271262 5.954479394520242 0.3342601231377147 -0.13143839314936073 -0.22125911075793508
Ni 1.2212596469228256 7.2765176008907755 11.362921819592932 -0.6825764672581793 0.7141077050972411 0.9160966547716545
P 0.16066160262213436 5.619901087163077 7.973302875582169 0.5971001426612297 -0.8571494868134851 0.8528950824125053
P 8.506158884688537 1.7439320124345437 7.925887404238214 -0.763102389828389 -0.1834124722238067 -0.28946250720704986
P 1.715387430326486 3.240049673770688 10.451550365880145 0.14596306912809703 0.6560815062914443 -0.02419716607149381
P 3.954043977010155 6.262348580703127 3.7912268380007665 -0.40997268347968097 -0.31619066723051353 -1.1001156502312086
P 6.972717170472422 4.154127302150862 10.385515363989747 -1.1052041204977094 -0.3354641707481449 0.26265284321337345
P 6.603337438809298 7.638410821947161 10.124420594075916 -1.1099483200509142 0.40592216755939126 1.3782177381201166
P 2.3987666068577225 8.426800063921217 5.749295657986709 -0.017928302343646542 1.4708669263164216 0.5553662532575533
P 7.016487940819305 3.8784193698667293 1.711927179590739 -0.7361767690821386 0.730786965525135 -1.7074256435459045
Ni 5.491482113554986 2.378558453227216 0.5254508736149194 -0.3117560284979276 1.7783094150406598 -0.469186731945992
Ni 1.3621290131703834 1.0721894773898677 6.7575884906824255 -0.07274987816921663 0.6423682704704099 0.26965292868029045
Ni 6.74178363495709 0.7130575852456768 9.180997290786047 1.1397126957975405 -0.16644010603552625 -0.3362095335546016
Ni 2.749104561542839 1.7152698884932884 9.402974138611723 0.5461133672007176 -0.740490565966144 -1.210112842787658
Ni 6.302529804297745 2.0833566599912396 2.643559228674996 1.2606064806618351 -0.3664498204963818 1.4048222280815226
Ni 3.985038854256408 6.752724067123941 10.231849308778763 0.22972961012279144 2.031105162954295 1.446837910391676
Ni 8.285397238584531 7.067790430170309 0.4937706370643294 -0.6755293306034108 -0.010981181601852054 -0.258665062210219
Ni 7.55947696011525 4.050970781000773 8.30337028904839 0.8610213110640657 -0.6117050370585981 -0.27089914238256574
Ni 3.2524458163332945 8.251924941161652 12.679355088855834 0.12380324520160613 -0.16355584250919575 -1.3375421147776256
Ni 0.0062215796479425205 5.049660445924247 10.345034860804448 0.5548798005394379 -0.8035782384552483 -0.7328752155127314
Ni 8.537298428806418 2.6497636291319333 5.817249304262071 0.5023642471392251 -0.7059125708809585 0.24291319869260097
Ni 3.460069902157599 2.307942936513902 11.621648573651804 -0.013432471355822028 0.6646576779962295 -0.30262501273093684
Ni 1.0381385124804774 3.214986138261174 12.666003240772538 -0.016385383336558878 0.1938429235285113 -0.6612471096527837
Ni 3.1164227902852675 8.634632108373488 7.915128709828845 -0.42213785808730525 -0.5757810694684793 0.7125681285242631
Ni 5.628219432281675 7.833828640477871 3.5090378298677094 -0.9362075665889167 -0.6178114070666522 2.3363892105746347
Ni 3.0636103404616484 8.502614546333655 3.6700484413176464 0.7848323253063128 0.26986170225698686 -0.6755555558556559
Ni 3.526679954862718 4.634864358249475 9.456556035358812 -0.9866389837665913 -1.8426718404771294 -0.7366822479636475
Ni 7.175865624955742 6.027834540115007 11.587320933350426 0.3522527030603933 0.5557609175928105 -0.5355525609657358
Ni 0.29566111055339467 9.175044249018564 0.35465806913910153 -0.36269035345394957 -0.05878338868679554 1.1043222321133883
Ni 4.753292276035772 0.3503243921659017 1.9304238849858195 -0.19684417224868037 0.20069851299776403 -0.5793726434744796
Ni 5.822091123621863 5.564819175790797 0.4025165827774166 0.8750939871070478 -0.38590638655909665 -0.3941218324903535
Ni 8.307341394674573 8.637923279703019 11.330804869923615 -1.594892314831163 -0.36046814899165014 -0.4596070586773568
Ni 0.3336009018057295 4.9637283241773416 5.691438855183018 -0.6439322725234201 0.44768433909784194 0.027797996048874708
Ni 7.55130328186828 8.9052947835096 2.79502905994108 2.189366846944088 0.857463161399162 -0.2844498844838069
P 8.527244081228286 1.9502902631321055 3.636634010643418 -0.7247914100633325 -1.4841831838093535 0.18724521570633557
P 1.8129019434830913 2.991032779301883 1.5158475101223317 0.39902621177050634 1.0840876502340684 0.3032076247072843
P 4.756474947211584 1.1583838078415987 8.185434238625627 -0.41719954024542344 -0.31670720185561585 0.9286310397932394
P 8.423816309693894 1.6246993851748168 12.169418833055047 -1.096031452859506 0.17283958180396686 1.273004340105556
P 6.37776561922367 7.658591850539238 1.5323494793353236 -0.6045188037228041 -0.8891250112788172 -1.7998382902513714
P 1.7073855439895742 3.3185404933082396 5.9179953136636625 0.5004773145291573 -0.8733026995345798 0.5724558617499883
P 6.95443489457046 4.113683869851418 6.159835827131781 -1.300382989228825 0.36761170201496685 -1.1690122160926062
P 2.406488201130855 8.570806892947203 10.078937329636139 0.4033420655370409 0.603287245308548 0.7307296299246383
