# total energy = -340892.5623856894 ev
CRYSTAL
PRIMVEC
9.10591900930635 0.00000000000000 0.00000000000000

0.00000000000000 9.10591900930635 0.00000000000000

0.00000000000000 0.00000000000000 13.32743291052278

PRIMCOORD
 96 1
Ni 6.491882792706547 1.9420739686887656 11.461139382223045 -0.7210262865939453 -0.09727665966598731 0.9743128581010705
Ni 4.739403162349657 0.41632261411715504 6.086931650166591 -0.8016445117676452 0.07779952477798215 -0.19275791799444866
Ni 2.7849360379781816 1.6852233130369154 4.695134737403668 -0.011239577469561288 1.0399775472887316 1.3293464663407106
Ni 3.4890147966429357 4.593808624354923 5.175308965747659 -0.26314752346160486 -0.06949820400113836 -0.8301253928161575
Ni 4.9856909520265305 4.2956079907786195 2.9086190032181003 0.09213393912278325 0.7343530856098386 -0.030342359737283227
Ni 7.183249688525554 5.845990856093601 2.587494218700416 0.5501970503517879 1.0959980285184092 -0.42379673384696687
Ni 5.388136145673114 4.64370906016774 11.650348540183591 -1.1309748017039103 -0.0018861612791193324 0.25549309224014066
Ni 5.792120239621223 8.081320944372107 12.432735469990588 -0.4496136949100708 -0.6139526954421943 -0.4922873225191973
Ni 1.8677514582682884 6.518690618077521 0.6547183038453124 0.6379665418582884 -0.20660742228303128 -1.9357398613784083
Ni 2.5282675007052102 1.3322232592559522 0.2507087133241595 0.4133346579733784 -0.29188191528181995 1.0377877387262642
Ni 0.4221932000603163 0.11972735405066907 4.8127222005025105 -0.34641527044300985 -0.11088679425025419 0.05496170094786018
Ni 8.502324000826452 2.214905512087239 1.3642096207303471 0.5067304945277209 1.3587403461217955 0.4137187807856746
Ni 6.826671008599622 0.9453400810845707 4.958911355004283 0.12954991787739625 -0.3325403122331306 -0.9542723945104276
Ni 0.8267974070885088 7.501483343778536 2.483060255516102 -0.27557572192262864 0.11054638019169993 1.3176371483235823
Ni 7.592451474028545 3.891296083748528 3.8207616356087315 -0.06717238408143916 -0.9253474839459612 0.21549983967665465
Ni 7.645138321038209 3.8634957132126644 12.700137153922785 0.9701661829225486 -0.29173613373257495 -0.24924248334473847
Ni 7.9294979578197164 9.08891819327643 7.03555168325477 0.4233185086589677 -0.517923792140379 -0.08227555827146475
Ni 6.847177538061384 0.7183577501607536 0.38367152055985226 -0.19912834029716672 -0.028522275809408942 0.12567757940618354
Ni 1.7228580760322392 6.440361503321708 9.313462869698952 0.391545587122745 0.5801090074198718 -0.25112324530721913
Ni 0.286408468543895 4.824434233448212 1.3136207774453674 -0.8488306825351445 -0.7179679593835957 0.1694516391683404
Ni 6.546764166181703 2.153039898782078 7.1735974144449735 -0.4835617697207414 0.3822644189311352 -0.32872556647273066
Ni 3.3510510187232283 4.381185417013813 0.45240663911632506 0.7008780937808445 0.041308114720167564 0.0919364783999965
Ni 6.107567483677359 5.782722931271073 4.7553476264205035 -0.27567368095307365 -0.18785636692777324 0.521631065788637
Ni 5.455410674830978 3.0946010235049117 9.535031731810594 -0.5212423149906507 -0.6214688013135813 -0.5390950269013555
P 0.30070749306157146 5.5431188860990535 12.469226529566551 0.7946053455326767 -0.4364776717487451 0.5407467035721655
P 4.240280427275211 6.174313869536474 12.805023681278614 -0.4219563382041185 0.12946584280402218 0.27289843220078164
P 2.5139438902063853 8.442106558850144 1.5098378506251726 -0.8148288716684031 1.5923880603520706 -0.6352668835389381
P 6.48551775536473 7.902580861421416 5.778814670860331 -0.28118792590308345 -0.0582856231147706 0.6097502273250724
P 4.668395206424775 0.9376273677390494 12.672096387126803 0.7723367639424634 -0.16011596358971134 0.047987840733188326
P 3.8193411122534764 6.367969447717347 8.42730852997434 0.3670632857106646 -0.00582200599841578 -1.057903535639533
P 4.810438436031369 0.9303790562596693 3.8030633715492805 -0.027861759407274596 0.8995683180993282 0.657216391226836
P 0.2895527423552391 5.595632720648783 3.4232309064161957 0.19693441796964148 -0.1919189670329211 0.33223897894262777
Ni 1.53045911466563 1.1182614818300818 2.720288566435646 -1.0525561552846905 -0.1043505357936332 -1.5503075862422528
Ni 2.098786833714055 6.514356200660203 4.8662586297496455 -0.7743270548996147 0.769366625570546 -0.8103636368081979
Ni 5.8005705324012045 5.753329024920019 9.321712832262165 0.35317804308814016 0.8979174127594665 -0.08691691369821805
Ni 8.489357172250273 2.366582803936527 10.194059867092076 1.274466269363063 0.4259636595912987 0.6597939221460251
Ni 2.3491904987535928 5.174320062950346 7.145783385030693 -0.5804023702905746 0.7575714327078308 -0.00034221383076715257
Ni 0.4163353624036766 8.946164701992206 9.042143819437069 0.35288416599680517 0.25143074924530895 0.26604798493785153
Ni 1.324328427531552 0.8886275073097882 11.42343541424375 -0.08681458379239887 0.976569515345731 0.2998374226834707
Ni 4.095969823851575 6.979750611966277 1.6197362757677476 1.069358828664326 -1.131200030340839 0.17175483338022032
Ni 5.56247806977388 8.335758531503812 8.083127558690586 0.3171890265880408 -0.6830912021110688 0.1522386177241636
Ni 4.945042129860761 2.917918878235551 5.036289811822349 1.8008536188897633 -1.002913038336266 0.04315956610660954
Ni 0.6916264145089093 7.232767675742727 6.824951811103005 -0.4590869245078287 0.3095227682920347 0.13908022596533468
Ni 4.994341575023277 4.514887624867754 7.3088175789868695 1.0577528689942814 0.5536585265378271 -0.5592583892231078
Ni 8.196692937391889 6.88622371849302 8.918971696249905 -0.0038309437103159825 0.8700451118292306 0.7916316076163333
Ni 4.570506577777369 0.16234123352454183 10.424704598615147 0.3652488582097452 0.4416497028679877 -0.45991764793924017
Ni 8.270951706379758 7.158026293050828 4.536005161490656 0.0743637596235558 0.07909124700621217 0.32950795316471
Ni 6.983538674246958 6.134967193779689 7.0532235401492835 0.10434899313173643 0.05804548207950649 -1.06755082892131
Ni 2.519607771789519 5.0626632848596955 2.59469153703371 -0.4052189708447795 0.21936292217648673 1.0592176264652662
Ni 2.528977762382838 5.1997437886418405 11.494897755523933 -0.5445691626420492 -0.5061913341947992 0.7079691962996711
Ni 0.9443293240817928 3.245249346513534 3.723830949634228 0.25125025780338667 1.1093201995486122 -0.06034122009221865
Ni 3.8110547260144862 2.263667708032063 2.2550944853463393 -1.3805854670213449 1.3495612507256887 0.5253846192937984
Ni 1.190307512514573 3.361832426752859 8.257544151326693 -0.773091896940933 0.4523606615275887 0.7556657310446856
Ni 3.450423912158498 2.8644489221967078 7.143037950469094 -0.004600731996804979 -1.0637260558585808 0.10016040897168556
Ni 4.16664086077553 6.86120065323506 6.147344869400192 0.6569713650955654 0.45384933025797325 0.40457310973066446
Ni 1.14791945983051 7.329208463278046 11.56514627780889 -0.8766559322775289 0.45867786199486815 -0.12102696800804963
P 0.20900269396899804 5.39390019236463 7.976481767794788 0.737041431075279 -0.22025072409807875 -0.5140663660675018
P 8.718780800042962 1.7940481503359993 8.109050288740209 -0.9221901692639022 -0.7684806234211669 -0.3241281769100353
P 2.0522009523968334 3.1256066775090434 10.528205205107705 -0.5038107497777646 0.5784223637460684 0.4353654125211728
P 4.200478455571229 6.30318083443118 3.844924191526489 -0.9733060141031108 -0.541693383756151 -0.5755532697283894
P 7.0366352876091005 4.24080857057396 10.461155592147758 1.372835647872597 -0.32259297121243147 0.9966236057831286
P 6.591419592682808 7.9391411259813545 10.042061136304065 -0.4440084329081514 0.5253146852878113 1.0479880762980338
P 2.182115097970094 8.663107211619684 5.887379989469513 0.9404388310614449 -0.9330749344972059 -0.9477415353704453
P 6.785129806377345 3.976837086307945 1.5182080113184466 0.8233297100505627 0.1348661878839871 0.5720249448601568
Ni 5.359935114703716 2.881176495296734 0.3926344765763771 -0.22678981076817717 -0.33192504724663485 -0.2167339691940719
Ni 1.4753136695411004 1.2543767582041683 7.0131347319985675 -0.48124571999305515 -0.15018044964355426 -0.26455031734640244
Ni 6.92151826031975 0.999046791015957 9.267483442583396 -0.6968404333763613 -1.692977843551691 -0.056832178497695666
Ni 2.5459420893754072 1.510863177098261 9.228541069627724 1.025496322953421 -0.5392726901298003 -0.11585982198481337
Ni 6.26257754186013 2.04688309573357 2.5836961399088967 1.034143714215774 -0.19773840192817557 0.19031485577059482
Ni 4.093584073088261 6.744881644645109 10.695877954173929 -0.15355399410147746 1.0922763566924478 -0.4201233987604377
Ni 8.267555198613666 6.976763870552664 0.38814161616943477 2.2694793361259626 1.3380339668123795 -0.025151559564963136
Ni 7.502931184890624 4.169882567919574 8.409050251899837 0.9861764423078757 -0.6442325773726583 -0.9344749001685261
Ni 3.1143062320996084 8.392087746091056 12.4523405134769 0.8732265948810057 -0.7076038425404523 0.29927717930462655
Ni 9.343492369192292 4.593681141489708 10.476134828810547 0.12418711090358614 0.43988849720250695 -0.2960373322110902
Ni 8.586599280652658 2.4545459809350336 5.766233933247378 0.392465270723537 0.27761434961921216 0.3797992452200943
Ni 3.8503376603386643 2.7445694992996743 11.891002497809847 -0.7224637903714203 0.27048005256727614 -1.427523012113148
Ni 1.4300754642275828 3.309883159177654 12.708427182529356 -1.703261999086518 0.2154486747237451 -0.5014399355527428
Ni 3.0887277057860674 8.467339060243814 7.803398281692075 -0.29669013530374067 -0.13119850922441276 1.3945038768746498
Ni 6.060790378062314 8.05226395702198 3.5517746111883914 -1.8617751369654838 -0.45703107042006447 0.3036783936961157
Ni 3.0124109991168657 8.727331257931326 3.7844709062495343 1.043795892593557 -2.33122592120614 -0.38351346084688787
Ni 3.507108257584554 4.399706856145796 9.326711071170497 -0.4613253269200442 -0.2575576880786532 0.2873344051204535
Ni 7.650720249350848 6.390952787131863 11.300516435603226 -0.47533758203873616 -0.7824854223406912 0.10900063297113485
Ni 0.2732249190968517 9.160554457608443 0.49006052454143106 1.2442997730820118 -0.24094090545757862 -0.30360306037349005
Ni 4.680442337187614 0.2243743957382712 1.6423799644056551 0.36591863058326013 -0.7105176737531377 -0.6753010166426887
Ni 6.405494939685344 5.809803934210364 0.2924875800308725 -2.5961945570368834 -0.9201425427062541 -0.5475567845154635
Ni 8.17333625530067 8.851699898867723 11.589802374533408 -0.7490482257281681 -0.4392904586071918 -0.9231124239678554
Ni 0.13816866109594603 4.910466955630603 5.506428406898217 0.057724094184345744 0.2996952406786516 1.111193248201609
Ni 8.005414004055385 8.817507173233212 2.5492047401330225 0.4205807980128305 1.2969857906218178 0.07020551448080813
P 8.53175433085328 1.6824460077590122 3.585772470157504 -1.002086428669913 -0.580539152978755 -0.018780623041612817
P 1.6883557491536323 3.099682126275633 1.581699941746996 1.2614621437939115 -0.5282004914760386 0.0990581770464423
P 4.716055586177382 1.3709507325245494 8.30834789429875 -0.005058902580146126 -0.7342862369276452 -0.2588656082567994
P 8.538283274736088 1.665818599767369 12.470492252299762 0.11855845186289905 0.3207533469005315 0.20214193031250996
P 6.484579845713504 7.772129466630463 1.3394733919191213 -0.7228525411694067 0.19346599980506682 0.07904753825247032
P 1.6503112198058312 3.2169663622736415 5.928814652440145 0.47870187052527874 0.5202485836188138 -0.5180508046365465
P 6.810007176932203 4.014517378897988 5.9633461182593726 -0.0753852589095347 0.17972113941514853 0.08805128441297738
P 2.40897085662059 8.570099355526231 10.151132744006532 -0.2384420502951248 -0.6368123736491872 -0.07194460865910189
