# total energy = -381171.8662415579 ev
CRYSTAL
PRIMVEC
9.21426510875202 0.00000000000000 0.00000000000000
0.00000000000000 9.21426510875202 0.00000000000000
0.00000000000000 0.00000000000000 13.48600837885066
PRIMCOORD
 96 1
Ni 2.0694962318003567 3.6735799484369487 0.2668073301886844 0.11143058256886618 0.27891378515692605 -0.32267601784454103
Ni 6.840246333040611 6.677439488248915 9.776250183995538 0.3793513590493983 -0.28715391367853127 -0.003622684354251826
Ni 4.546907966398177 3.035261754258177 0.5729540425242738 1.1834571878733424 0.753602934978386 1.5391055468788462
Ni 6.424203848687526 3.066221683993877 11.542012919412025 -1.1375437131706794 0.40044186117111036 -0.1856652728137254
Ni 0.30957810454796303 8.804506446533992 4.640886095969712 0.9391429950681568 0.9788194877221724 -0.09804130574615373
Ni 8.130713332866396 8.814172210311595 8.650032982829488 -2.1324040564057984 -1.5223612375409716 1.4524215751270406
Ni 2.8268903700191474 0.06826480221425987 3.45584318545287 -1.6373512553263219 -1.3276063437211523 0.09928340568337095
Ni 8.269701303144167 1.4667819568176403 11.752745919719883 -0.23114165997896965 1.0436951053496348 0.6450373326621407
Ni 1.3325393329130495 1.8089813230451575 11.98100998024058 -0.7030231651483053 0.009088592564829507 2.0517714330543955
Ni 5.299989828689494 3.533182195644427 8.500176787217415 0.8938247307473315 -0.2527481825051518 0.7658709537124616
Ni 7.2775921976165945 4.459916092399738 9.670047489310802 0.1322709163529851 -1.3817036397861882 0.374867869356748
Ni 3.4505025975734616 1.9239569192481558 8.024903165862236 -0.23229531396743866 -0.0595626900549813 -0.09467521748739824
Ni 3.485083733376463 0.02060954608328632 12.594124395905643 1.969200197919383 -0.2863671561111778 1.1349528125150516
Ni 2.803006995651607 1.4829345630160582 0.8383644901689308 -0.20806600910642878 -1.1796064466686846 0.2840189675939754
Ni 8.36186237969669 6.558391187003303 4.312097170735451 0.6782153620760062 0.10094768075967131 0.5586251265144832
Ni 2.6200946250613097 8.066711049549676 5.97418007717007 0.05218208132019401 0.8832379563704208 -0.8898670316511643
Ni 2.2016103605356183 1.4882143367477714 9.976449436781415 0.29766226940902285 -0.5410997160362101 -0.4316370558269921
Ni 1.559634103230336 2.4139438786396332 2.732184313528231 -2.080662147946817 -0.21937423503039638 -0.29247815410492206
Ni 0.23961234905120005 4.8338125295471395 8.743707041662548 1.2668036106114826 -0.10504473364718038 -0.36592865788558915
Ni 3.785726765345644 6.961948342549282 3.950200470640074 -0.41944822707028406 -0.8038566889276156 -0.9212460601830779
Ni 7.389536300699638 2.5413218752665165 0.46169640216900015 0.035900570551351076 0.2839904283488851 0.8465408580597035
Ni 5.577458984680911 0.7105994944203511 7.310522137167025 -0.5894719366920106 0.2454287660256031 -0.3227415809751539
Ni 7.625366194049498 5.288683925777082 2.4741563348431703 -0.5821980287384168 0.10848049880160672 0.11451256392829955
Ni 7.066530248055296 7.471580114499246 11.94285831682669 1.2296591403507018 -0.24702567819907775 0.8450964123036929
P 6.781551466250011 2.221900171630265 6.567941772470879 0.6960050819592594 1.8210020688131798 -0.7283539306036101
Ni 3.112735292715847 8.748999715364985 8.246990904685958 1.1401916923164879 -0.6866377818117465 0.1976764383419886
P 7.046655078876752 0.1227091286515621 10.803128396328079 -1.6242771957511832 -0.5160152622637565 -1.404319320303175
Ni 4.582594813977453 3.240021146694708 6.407512207998175 -0.10654085857673262 1.1531919612308978 -1.5205933470072717
P 3.832102160095579 3.065208114865625 10.22878668552458 -0.07434087680542037 -2.3758345610544502 -0.6991438846985573
P 6.662438665150783 5.1826185236379 11.81689839555288 0.3618010088704608 0.5741013677732113 -0.18446122520329522
P 3.9405816996129617 6.641835569052859 9.1433785417414 -0.5325790801597087 0.9887310904089296 -1.344017438089324
Ni 8.10725381467976 8.763714896254246 2.7549352547515698 -0.7957379164752232 -0.4951913835398698 -0.44526878767781375
Ni 5.123748585816057 0.06012123498199427 3.82623635912244 -0.1583359888711531 -1.0397191514210222 -0.053738627174036484
Ni 5.053112031841688 7.842813629118785 10.809453067688372 -1.3334131802109166 -0.6435694898673626 0.7266870844241485
Ni 1.926417127950368 4.236488599473764 11.082409998206106 -0.8551260286255532 -0.7501394019098178 -0.5604295267130736
Ni 0.12345548410054774 8.847334349335044 10.789453505934997 -0.15254046523529857 0.009185780264326116 -0.8978230532734474
Ni 2.3310431382134125 2.838905771321336 4.984441801976127 1.942849732950312 0.5177641266340631 -0.420087917536812
Ni 9.04407733139358 5.937405024917642 10.87344429388733 0.216328249115221 0.39727426207640615 0.7456723672773997
Ni 6.008032364627209 1.1458951850778245 12.795281932230958 -1.254681373426652 -1.590231419020384 -0.8953563369005095
Ni 2.7806163321820376 7.550288364440423 0.9321445130472172 -0.11400374261268108 1.3896935999702003 -0.6515661349195939
Ni 5.72540322034651 1.0850349660586864 1.7640101822510916 0.953811395713609 -0.313018440150119 -0.672170698543823
Ni 3.8714378565365632 1.0717848532729908 5.567913927772216 -0.2000768202533651 -0.7785650042403623 0.5894832495459202
Ni 3.8498580483695957 5.6728358396494345 1.5101498155361075 -0.4163950420662571 -0.6509570405806854 -0.7962889038826867
Ni 5.236798400675376 4.99390116622216 3.120554517827072 0.8898557187972546 -0.8800143072268005 0.4941765691221102
Ni 7.9513115971657715 8.883970266188957 0.0855885414690489 1.208195056939655 3.046553871863727 -0.45187600858168625
Ni 7.210991491625628 7.67631186414137 6.249752937465174 0.1401883714278489 -0.4107869518508602 0.5464239564626009
Ni 7.2548974634085495 0.44269750957315446 4.612888552367949 -0.3556696991617423 0.17031681538211313 0.8245574118100767
Ni 7.498043483011428 3.8353732241003926 4.613873557275314 -0.7496483212060122 0.6315218146742092 -0.2769031824848005
Ni 9.123578008107756 3.9521548162046405 1.3022603373462383 -1.1209382434035147 -1.6013617246055907 0.1814931437139068
Ni 6.862084140622043 1.9418694500238114 9.216607989831136 0.19941861784407588 -1.1112230729982797 0.5292189054382239
Ni 5.62642358784029 8.119204716128333 8.605893890147069 -0.7593938306285503 0.4016399952442696 -1.2652591489424982
Ni 2.7456574115221417 4.376296639318939 3.264004956548593 1.7065553251258097 1.0192549700293994 -0.04910344239487027
Ni 2.823149378509417 6.486326421984579 11.01628843398486 -0.3556653282863681 1.1033647532961255 -0.008902958916584667
Ni 8.787386342531333 2.5294170451419555 7.9704735822486175 0.6858078297112834 0.37696563242604114 0.9156086593916424
Ni 0.8599581197331019 0.15436473537983597 1.5686659255895428 0.29917073563374924 -0.37935495859382407 0.26226717773918057
Ni 1.2427647509443194 7.4039105537912135 9.206601298255848 -0.4486541592102789 -0.20268443307954126 0.7066476492747701
P 0.3079591582222003 2.996230128555668 10.071296471523807 -0.34943348844404337 -0.3519382571437681 0.5079790222228413
Ni 3.605081103896711 2.3121907524279233 12.217378908081374 0.5816033325772112 0.22092435312633568 -1.787604981409973
P 4.552436525279552 8.501559848364238 1.8584388893714594 -0.5504922129947036 -1.0636574074041745 -0.1630951008226933
Ni 4.808906371786544 0.8186496491979471 10.306573508985528 0.13646104317493274 1.707190901827279 -0.3858966163670838
P 9.085578380063104 7.312698546513326 1.5182814042241302 -0.7418049139021935 -0.404624017573258 -1.0152746452254127
P 1.7403903358568964 0.9497234874370297 5.881423759111318 -1.2310665622211894 -0.5495121084696213 0.5647068139321888
P 8.225712402978026 6.511020651654721 8.15706613020095 0.3184303551943097 0.5720997639621501 -0.9238583009949444
Ni 5.858595418063639 5.5788319101364525 5.476060607664089 -0.03277899420323387 -0.522010817725559 -1.9376350215185918
Ni 6.245447111523063 7.234819580404355 3.727370983499769 -0.09715093272140043 -0.038777892099146116 -0.44037392147935767
Ni 0.16363520719742186 2.720189183608607 5.33181497789013 -1.6171950920934215 -1.7019175692434818 -0.015146625833451334
Ni 5.984867702914248 5.075585623694478 0.5203829761212776 -0.4997815740137135 -1.1959995433147275 0.1093436181328504
Ni 1.4951066068198857 3.5556373589676125 7.044767076018762 1.2424231248845894 0.04688920835237086 0.9145133694449348
Ni 4.840115086671908 7.882223039678187 5.762692428574905 1.336649427760027 0.2930299128433341 1.3362874164349179
Ni 3.6867932041634353 1.97780508275275 2.9482708016862187 2.407307691962067 1.9345257864656493 0.2417132648472289
Ni 3.0706076740397688 4.378729205226745 8.688239010405711 -1.0602000449831934 0.04712137896783498 -0.6441204772748261
Ni 1.44277879700767 7.358198586107044 2.9482837016569423 -0.0841105545976745 1.0989380849833397 0.5547643580074961
Ni 0.9419558622086976 0.3871290428299726 8.285331460528294 1.290967866562512 1.2283653612399426 -1.1963031905980752
Ni 0.49641943764995705 7.659302331316339 6.569843596726073 -2.1737751631534175 -0.44301058777125635 1.6321105757526728
Ni 1.534064518403976 6.193229872888475 4.83103903584165 1.9808061575894274 0.2691579913217429 0.6011144060269453
Ni 8.290958612043054 1.9565846309130717 3.015538620448871 -0.28458049652440026 0.6910953033624678 -0.5541138689076909
Ni 4.893898750322885 6.931771625321777 12.939393033738803 -0.47986940847081866 0.3025414518781951 0.854134354136245
Ni 3.7809169191188476 4.863169177207242 12.438442020659078 0.6057914997876406 -0.4114847492488333 2.422197721700022
Ni 5.6095983403113046 2.199140937568604 4.42024131101403 0.9904827829927134 1.5588217943608507 -0.16453337593111664
Ni 8.766672675255782 3.714454427099916 12.237081770508114 0.5529671568977573 0.5400882440525603 -0.5142530281570111
Ni 8.136453819838223 5.697493212260368 13.494234595941212 1.7169595511782685 0.26036327584824837 -0.9214728314819033
Ni 0.09046380897594154 5.062188082671946 6.007989979009119 -0.49722178370633724 0.13486773054588386 0.5540076823471297
Ni 0.5179531744929132 4.490682522574591 3.5907842506294747 -1.497860167075814 -0.47406282909137065 0.5925405483150052
Ni 0.609190060285767 7.711279999066067 12.722538075896304 0.979386673079552 -1.3302273262837672 0.9216466380556063
Ni 2.117732908040355 6.184255178971043 7.503169378520942 0.8994497902435928 -0.5827652140957963 -1.12396031805929
Ni 4.622658437337819 4.9417207846467806 10.346195769061863 3.1174651541623084 1.774109003806067 0.490253322808304
Ni 5.27464138621839 5.92585955112037 7.507458618786409 -0.6555693425417162 -0.15511259683784898 1.925454163181684
Ni 1.3194274340993881 5.548848692469795 1.5955162932234213 1.042035972479657 1.3323767685266021 -0.8495588189504207
P 1.672002062494286 5.721671443101582 12.845517182506574 -0.17742283029927508 -0.5543149291749034 -0.13412493884258836
Ni 8.32145782853864 0.6703036715869681 6.695924224868793 0.11369341046111388 -0.020848047093602808 -1.4009984834600582
P 0.5704191982771634 2.043465933733882 0.6954070146143323 -0.6011172342404228 -0.1803716285149539 -0.8326399317078952
Ni 7.497785483596964 4.355435543806551 7.132426062788887 -1.7620374173535138 -0.16385331914495654 0.23190964849324575
P 3.3696842809925593 5.218093443126723 5.83596241942977 0.7139822352629703 -0.1957753646645338 -0.33596167920985365
P 2.2165006124561217 8.559443859852236 11.264808212820435 -1.8830065355404346 0.1540101078022896 -1.9290948452580647
P 6.077084065055585 3.1468096439547226 2.326107056558825 0.7144997983293373 0.5989567362539944 0.22131104704179305
Ni 6.884926303066924 7.290796239078278 0.9683805308087104 -2.7125454597255025 -0.47360311584613274 2.416258473397452
