# total energy = -340856.3475519242 ev
CRYSTAL
PRIMVEC
9.37843194266820 0.00000000000000 0.00000000000000
0.00000000000000 9.37843194266820 0.00000000000000
0.00000000000000 0.00000000000000 13.72628313451867
PRIMCOORD
 96 1
Ni 1.7662494726258544 5.7179549488092904 5.032879249766789 0.18366572588519336 0.08568355551174921 1.0527461598083094
Ni 6.241102641340076 3.184934256190884 12.583721181770006 0.7758987702621089 3.4355527813052182 0.6484723264856187
Ni 2.8012063334274546 0.8672245427394323 2.8209573111706305 0.35081777038607964 -0.8235266565527172 0.005283874106758642
Ni 3.802316433224724 5.824034392899063 3.8974137334696444 2.1436564893911663 -0.18841661030661744 1.0634409205179942
Ni 1.9426483996777986 0.6894751214828265 4.897180841807834 -1.961175270732377 -0.11062299906590625 0.9818603314310252
Ni 4.909290273176299 5.0025587791857395 8.654874695686864 0.25809504863936195 0.5331480652893011 -0.23492529539111798
Ni 8.208200613181436 6.693949607772644 4.035692148065422 0.02354513430979171 -0.1891923121303774 1.0480315279414596
Ni 4.559390354553247 0.4317070429136258 9.615700678770914 -0.5376588086754611 1.436154719646217 -0.5439076177986504
Ni 4.281235440552842 8.954358039688945 4.576809854106986 -0.7669341048696534 0.2165755892393367 -0.42330796713600644
Ni 7.630667393617091 2.2614494378657266 6.9011360513180815 -0.03157288971027465 -1.558707894490806 -3.0411463276949107
Ni 4.090074861569389 7.927541657843221 8.250854659655195 1.4964432321236292 -1.2203620313194916 -1.3773836722545956
Ni 4.548398832276417 8.410906041928351 1.9950879020761687 -0.28591464195479144 -0.24315848193418768 1.1898420083537635
Ni 1.5582358513800614 5.741504191503077 11.391950373413648 0.4993056628185594 3.004874232736754 -1.2444686945597085
Ni 4.0836412572332925 4.023788104357249 5.546131758718835 0.5532255527654666 0.6346863284451199 -0.7373597336466462
Ni 1.9211624120189117 7.970898148872044 6.4414015644417395 1.1128464675343157 1.2011219521429572 0.42430195561815953
Ni 3.721436835856657 2.06196081128686 1.1637311724320718 -0.046274200476191275 0.6061080025867949 0.7050851898836565
Ni 7.441260581413302 9.213821738759552 2.281184472274542 0.29804073579436413 0.30089851695813336 0.6725442798331579
Ni 9.33161484438837 3.0094262801767377 0.7798766408369552 -1.372679581910707 0.21412661347821185 -2.0773068583213385
Ni 9.207641352086831 8.704357178482942 6.164569947193264 0.4637298225964787 2.1657250391554315 -1.4042478436352912
Ni 0.7577529198036448 3.6439991230240816 11.235264910376971 0.3616971363027448 -1.8630599172151785 -0.6471181264505693
Ni 8.774817337924766 1.724187205209832 4.116100948148253 -0.5578486533597747 -1.0279913214611327 2.2663788428237677
Ni 4.356140976751677 8.777677759677696 11.68198682288548 0.782311358656672 -0.26271840634398624 0.7420715373000187
Ni 8.258750361536478 4.604331800586152 5.864869961412518 0.5255340003874691 0.5319203635297872 -1.4148132778559634
Ni 8.915521952872947 1.4246963584621692 10.22951248675118 0.011150617300180795 -0.07750719034854393 1.5016648855338848
P 6.859113173316362 3.1353973784893387 8.517845488230398 -1.3106193222448526 1.1833147487582074 1.2009903116610994
P 6.076558052306828 5.396799924195181 4.4307210813609155 0.5453466642380221 -2.191114168652497 0.8521240085744357
P 7.715973610878215 2.493021680237283 2.4648563733245075 1.0841794386169263 -0.772414154147618 -0.12660986141246583
P 2.5229107429473974 9.07501156707069 8.468347999943155 -2.64259859822272 1.749616932201974 0.9846054982763299
P 8.260785481275446 3.0244411497716213 12.391264503487358 1.8205112452196903 -1.0365317548319761 -0.3481998731472584
P 0.40144565645403163 4.148080463346 4.294885748295099 -1.2051958651020147 -1.1144138120214355 0.5647240403233694
P 9.070631839337517 8.917256962788658 3.9534170400192052 0.03415016351914763 0.28147743211904425 -0.0599396137784258
P 6.621979520782554 8.315255414196798 12.191424185709359 -1.4919594853206628 -0.5192263130018864 1.2421557301558157
Ni 6.239123792192968 9.661379269557198 7.737670613256579 0.058369955298460764 -0.9077264284300883 -0.014932710050432346
Ni 2.381802855424215 3.976398887578394 3.3831989973967764 2.7706598473697315 -1.4809942445584108 1.512952285522246
Ni 7.994653717069321 3.805880237375914 10.184572916404669 -1.3629656970570527 1.2583295117022006 2.304241422197496
Ni 8.638558099733597 5.115521992346497 12.524821815426005 -0.7678761570679485 0.39928589318979624 -0.7512102663764932
Ni 1.0033515450397281 5.56891290783372 2.8140660393540657 -0.32481234746125354 1.910284140309465 -0.4846017809494815
Ni 1.5172239683454423 6.0397570852298 8.035009109865562 0.40279107812957726 0.22108890372865797 1.087500018349727
Ni 8.126326902023827 4.639135161652119 2.5941305553793432 -0.7424980833144761 0.48710295010478044 -0.0809000180801768
Ni 0.21098939771203698 7.726430562532365 12.656237093501147 1.4227189058562852 -1.2696153690286651 -0.6411433969243733
Ni 6.177385574489584 4.823683946091916 6.692290563155946 -0.7549129120390612 0.09583812744724785 -0.28163812606662464
Ni 0.09552120537027284 0.17355820000616642 8.25866501780549 1.5954042214705748 1.0269371691650055 0.36723992049784493
Ni 8.232894024576394 5.382075785991579 8.21990208275891 -0.28081665860659377 0.33409480120444396 -0.43062069874733583
Ni 2.1195818973524214 1.3106171118961718 10.14983145298975 -1.0894208895215238 -2.590016967471262 0.778848339808736
Ni 3.228825317842386 9.2300651829434 0.23226812202423625 -1.4071758159153636 -0.2939172005442938 -1.852041454617488
Ni 1.7758154732422073 4.702514604951446 13.205906053819172 1.389889775141406 -3.7839143768413224 0.3524576199823478
Ni 5.3472630464936355 1.5842610001157276 5.629355026237908 -0.6149777942725989 0.940199204246813 0.6792178351985915
Ni 3.534121413983698 4.61694579159497 10.528662896418084 -1.0947793256199596 -1.3494609777023985 -0.9070947083833603
Ni 6.585431771368898 1.9849169925973111 0.7272505076422463 1.538583612937105 -1.00815140391707 -0.07849860772753578
Ni 5.226703303431658 6.727721341321161 0.11032693593207327 1.1954853226824702 0.9729146922019634 0.5399848857054764
Ni 7.630357905361855 7.204736526957986 6.537059694918874 -2.2602997265092233 -0.8715371229937249 1.0120954761664829
Ni 9.340261758670994 7.6813765753157375 2.211208239922722 0.20171769829089775 -0.2828488585452742 -0.5783341749076362
Ni 3.3878460104412893 6.123272021983352 1.7361690899034128 -1.143650854509682 0.8958137361529025 0.2903256265382936
Ni 9.133983147340913 2.9956587420347707 8.485917554408523 -0.7019600139911136 -0.05488791028713128 -0.8224663336090028
Ni 3.70118880121871 6.701255406282585 6.33249733664055 2.2504081784271244 -1.6892178622886262 -0.6456505407661073
Ni 3.4776820103472157 0.6420296341121111 6.65938821025168 0.25514187954830897 -0.3661860253120339 1.204708383942635
P 8.984143939647314 0.3529357170539475 12.146402085161453 0.1713336866824017 0.36646653266693013 0.045700330250592267
P 2.1337339512054374 8.042802586838297 1.6730831915249602 0.18736528622396764 -0.47880445754141415 0.26135803566134985
P 1.9098801583508012 3.780399037694903 1.3630031572322743 0.7769004720537459 -0.2214933382559282 -1.23454655034999
P 4.037968293506196 2.6405631720965625 3.9492436377895213 1.0629256714444726 -2.4589007335480106 -1.0319551912048872
P 5.24661371451844 0.45527879384415676 0.6576362827647317 0.35573551940267123 -1.3095415157996415 0.8618111539552125
P 7.809129575703934 6.466128738191815 0.7258306130409563 -0.08607924828827111 1.0049580937907532 -0.035881801498273684
P 0.5685111680026479 1.7432816927146304 6.74412140531902 0.2195272156684929 0.5143712989024303 -0.5464905480344782
P 0.28015439569786205 6.621294895248246 6.254847671245298 -0.4659875082824039 -1.5934746085480298 0.7336583735356591
Ni 1.8382476949118758 2.714643406281437 8.558817981850714 2.9459180659175197 1.04021408877957 -1.650033993000313
Ni 3.027207787204782 6.996732284144169 10.050892747007126 0.6677926240807853 0.06775653871968332 0.39820808674458513
Ni 5.986534483761365 1.0045144706048534 3.52909645013052 -1.2514669802544125 1.177393755288082 -1.3964964818246466
Ni 5.613150971468364 3.1410994651312434 10.46969506752065 -0.8773742985007922 -0.052730240514180154 -1.9501339253165508
Ni 2.4216893266216153 7.665058103676077 3.7960863408625243 -0.9546385196005948 0.9319835012052401 -0.3551413374620981
Ni 4.814230486659285 2.5540002449505446 7.917443900133782 0.44020525711197733 -0.5866280394853122 -0.07324738663092546
Ni 4.676939620950667 1.7660994177142255 12.808969547459593 -1.1074584637495248 -1.4027476049406808 -0.6968257780883419
Ni 7.64545718084453 6.952212867550221 11.061023022679697 1.1249802746833724 -1.3179927318907882 -1.6794538409233268
Ni 0.7395596996118181 0.1495147139472016 0.8153055433157754 0.6292170778004325 1.1674620979966668 -0.2962448202362059
Ni 4.268349475016696 5.124122014469237 12.490835315785219 1.814654015107965 -1.2824896538881718 -0.8325743685772822
Ni 2.9056257950573308 6.578566759161869 13.278806481261364 -1.1766373367380316 3.83090205844477 -0.5241846854484262
Ni 6.580114200438044 0.5909153041520652 11.006612173879798 0.07749176372957622 1.3327377514104466 -0.7045570852943286
Ni 2.063855254546177 2.089130128723698 13.056289114963425 -0.05613823775446461 0.08692976921402448 -0.2556753834542758
Ni 6.839549764212722 3.126384705359618 4.556055384142291 -0.11613235891990968 0.9438583982659552 0.13341377170817667
Ni 0.8866575916385941 2.2923044790694536 2.6465372332657946 1.3690183310090358 -0.8003098521166216 0.37132977429650244
Ni 4.413630764769563 4.2282941920437125 0.9477890247930779 -2.2636349615300433 0.9806118037359046 -1.763767512670743
Ni 6.058176325632267 7.096762639608896 8.87374010057303 2.1613662479661033 0.8853861130616753 -0.10668946833945497
Ni 8.001818839099608 8.698139278082314 0.15731850719511073 -2.0949114587769793 -0.03940112750544182 -0.08645565779108336
Ni 5.84221917250211 7.183269296163052 3.4513773843386404 0.4670429461301118 1.356796077911231 0.3931219304709294
Ni 5.771759013060287 3.366378779646356 2.3792866221248348 -0.2555967076975404 0.6393269125409248 2.4035811350400986
Ni 7.236604438815209 0.12110744348942398 5.3486932573701 -0.6029856549077293 -0.21717362783465177 -0.12821371556447597
Ni 0.9276488421228642 4.1826212283166155 6.752645462142748 1.104358998888595 -1.0648629976765014 -0.2760099812465698
Ni 0.35125603988689963 5.747844011519405 0.6594988393553275 0.25049101103985894 0.974693895589573 1.5172804805839548
Ni 0.880002656307845 8.082726571763606 10.243389752547275 -0.8491165892066795 0.4858248547233052 -0.9534303582251062
P 5.665679568970515 8.003225603896132 5.762705074829869 -0.013771342752479508 -0.3584786293654471 1.0379813427943092
P 0.06986369116809787 5.547248729967274 9.983811636606548 -0.15049952354586985 -0.016287681416430014 -0.41754792472377766
P 6.386768446803992 4.817212828027913 14.31967081636516 -0.3612942444373713 -0.6975816824177599 -0.44118330475453044
P 8.022695228680004 8.27264919772612 8.964484870537511 -1.726155872965556 -0.776638733751927 0.5105624666793013
P 3.458127979675553 4.174602668976437 7.497817215449494 -3.4616227389193934 -0.02911568641903373 0.3493977501101015
P 3.646006107467121 2.2917323947188675 11.083314617645392 0.04061983040389133 1.2980764525828354 -0.3644939823215916
P 5.930151350716744 5.581179896859396 10.372389146545189 0.14255404344654804 -0.573061099434155 2.3521459591882583
P 2.278752644862953 8.334903229188228 11.86482029211672 0.21325938038191014 -0.7834711832927281 0.4056573439337788
