# total energy = -340868.1100292052 ev
CRYSTAL
PRIMVEC
9.28446102650467 0.00000000000000 0.00000000000000

0.00000000000000 9.28446102650467 0.00000000000000

0.00000000000000 0.00000000000000 13.58874719999139

PRIMCOORD
 96 1
Ni 3.6112468972495293 7.156741240157896 5.455909648400942 0.38048778664668664 0.10991388881402363 0.07319699300896426
Ni 1.489533966480614 2.4545980032552235 1.2495789232108492 -0.24610188083322776 -0.5743937022026494 -0.6185482852326767
Ni 2.8467829295366474 5.001539257778055 9.107681361971892 0.0032197924888783254 -0.8266304922890216 -0.8945045304231756
Ni 7.286101638299017 4.746300134452315 10.15772421537652 1.54060090047745 1.2034115195080823 -0.6431460291766988
Ni 7.189515388255087 4.547668371168662 12.843051292789843 -1.1142238074978166 0.49791495311861994 -0.615347776017508
Ni 3.976321196776336 2.8435519370330145 1.3008152224387093 0.13061898257185892 -0.17334120403073375 -0.284576125649026
Ni 8.314745665489932 3.120238165770798 0.5519073694954711 2.0769330199216878 -0.7105955781789246 -0.11140050066187912
Ni 2.98641194178414 3.4772164151160894 5.081199935022784 0.34435118882512955 -0.4409968997753373 0.0975517677042449
Ni 6.412628811433411 3.0702227731930174 8.79383593410397 -0.914885922293005 -0.3431630820542993 -1.165019292883129
Ni 5.289533960278551 2.6697746764281662 4.2167924560897845 0.4466463847516308 -0.12003426507747715 0.30779138742322476
Ni 7.8442834466851625 8.887374095530252 10.135507428129559 -1.2076880353962491 -0.6263996629562953 1.038025051548051
Ni 2.924289611778955 1.4259539760643078 12.586767667577151 -0.4337119360781498 0.5142396584205724 1.9326915614703877
Ni 1.3942382565458935 8.530405130646177 5.7874614722564415 -0.06779767637026389 -1.122742643602105 -0.8777391380393786
Ni 3.0123063041192855 0.3928664057347759 1.7789166959331022 -0.6800907247218482 -0.09276385939729831 -0.2991907902384073
Ni 3.737682690107189 2.774791217257436 8.248288420542375 0.40759929815149804 -0.04601837571164333 0.6068289399132194
Ni 2.013938904958097 3.984203704349853 10.961363038749822 0.5626609871467535 -1.0560145461469361 1.6074845496738766
Ni 9.41397945131624 8.47497689717869 12.165421177058203 -0.17085186194997673 -0.3107741242006325 1.2912092931493568
Ni 2.752545648180703 4.707463233180205 2.4906272834552117 0.3345737977233915 -1.7821778968571307 0.35788316187329333
Ni 6.116473067522877 6.912234953999394 10.029175279145793 -1.004539775306412 -0.14227199342975497 0.4467430582304951
Ni 0.026560986650550327 3.964130699197976 5.573955073656497 0.8687567320351103 0.9275159523521899 2.1201067270956844
Ni 6.6464951050368475 0.3114704626885267 4.39239968400057 -2.3977272473624835 -0.1983420969504455 -1.5976549651779648
Ni 8.28984474050504 2.3101132177910655 10.292660860924771 -0.8617628172157803 -0.8536571573895104 -0.694044872909095
Ni 7.824702517977804 1.1857649643718662 12.429749787915714 1.208040019419029 0.9333981221645796 -3.5674403461768556
Ni 5.074840079088911 0.7867299626042934 9.020998846708492 0.09990458420713762 -0.734298064002187 -0.19577305067168863
P 9.232347536521528 3.923743292902571 11.320350445502545 -0.8976533604648024 0.8727673958564002 0.48298095751660697
P 4.168258863522291 1.6887692197433934 5.964590423360747 -0.2932425430747724 0.5228461691426609 1.7923160137323968
P 0.30908806994015864 7.1358604868801105 0.5583210753044058 0.6430938357825248 -1.1092947456273154 -1.1499161186931035
P 4.1009836575414855 9.158573207688589 13.654924504816801 -0.12427195730790855 -0.9730671586194273 0.007760617782025344
P 5.791637622911998 6.379241888895876 12.38080303682405 1.4469716077560628 0.15540827370139687 -1.0031837754991497
P 2.0989102940191415 7.430177907469612 10.769353881652494 -0.17311571828348896 0.206192960453432 3.0172330114124226
P 2.549930851034813 2.4323617186397075 3.096413309840996 1.081940779094395 -0.25141043753033476 0.1391524739641668
P 2.037094351234129 7.44798550408446 3.805963403237832 -0.12184817835776433 1.315163232861793 -0.36768420712411515
Ni 6.990855771587782 8.308961446151532 12.873001107784722 -0.8819205231105779 -1.1060091328975081 -0.1039990659914854
Ni 0.6643570499753387 0.3534297282680261 7.661458478624021 -0.6550942026775105 1.7887069562249 0.8236811798527104
Ni 4.578613480406037 6.069735089754816 0.47896492838760496 -0.39261413759657543 0.20386688342341663 0.7271604245161413
Ni 0.7555954503580842 8.865732016432643 9.941581958236974 1.939448420578247 -0.670163181195491 -2.057267937392592
Ni 6.379288311201963 3.026734356851023 11.22552824308991 -1.5668089263313856 -1.868647695715601 0.858648954177147
Ni 5.711447731377881 5.600665540132646 5.524871840984937 0.45538787838968675 1.098725197641585 -1.1763388316610064
Ni 3.078866606586356 0.19581949998092213 7.472479769668031 1.0510042374165385 -0.04137804872615455 0.068315753657263
Ni 1.847254972723292 0.43001167817308744 3.742286854424865 -2.90451379193912 -0.28082462902639377 0.6223748580676185
Ni 7.686354761378303 0.8264052507243287 0.8992186378212738 0.4403111865622223 -2.1593535884114488 2.763716069062047
Ni 7.895589379372152 6.01510531995202 1.1023301536422905 -0.550543120837297 0.04922736956724426 -1.06026535100349
Ni 0.5372685594940999 3.399607603800391 3.5213881678036794 0.9208459965311818 -1.3146839792325296 -1.8455095670362411
Ni 8.145387808424536 9.051049862330638 6.159833358300073 0.8623521140603471 0.06303059399892372 0.35216528555290966
Ni 8.643954091334177 6.284763211548281 5.572609755226105 0.8402784220897593 -0.48668308895854256 0.20535786614664633
Ni 2.3723098234859887 7.989213886287752 13.057006130866586 0.09764304186647055 -0.03609134640591849 -0.34757766618222724
Ni 8.405649825268853 2.5143620801112054 7.346593616914437 -0.45669348457498765 -1.0533778798550375 0.6240077656853511
Ni 4.945990326314743 7.33049993184031 2.9215804059957367 -1.2049184430709121 0.5619423638131742 0.06533507376238426
Ni 5.355583617378669 0.7724383914524505 1.8123036184706367 0.5654892006241681 -0.43593156943728795 0.589368835455243
Ni 5.897638316630305 0.3393721255388601 6.577456779870871 -1.4695371517614046 0.021934081068929967 1.1862424639279636
Ni 2.234732677167527 6.8381820913299345 7.657014935485405 -0.2964949885737991 -0.5934473763999908 -1.7979215328446325
Ni 5.509909931733201 1.260300619024627 12.97344876524894 -0.2541928853714784 0.6201408265307772 -0.8322496382480118
Ni 7.202541487343006 2.3852337935005186 2.493141515552866 -1.1242716786521219 1.6659648052979568 1.0688428082598562
Ni 8.241045612346731 6.328279481273928 11.774065353163486 -1.6821496425879352 1.014383243759395 -0.9059256277759237
Ni 3.9801556792590955 2.355105716850268 10.767451495549063 0.6530031244764366 -0.04419649201155614 -1.1517991946484292
Ni 4.095524394345693 8.995686620091673 11.361742430501666 0.4579188723416565 -0.5065039803392116 -0.08294610197592812
P 7.14237817865468 4.290015287926414 6.681954319318091 1.089373581223356 -0.31121815371658657 0.6238077338594031
P 7.4143200477104045 0.40015377934426166 8.238572231878434 0.508588630782382 1.793762002150304 -1.3136807347789956
P 6.899181001527822 8.394146377820576 2.160678886051946 -0.03250645726813757 -0.028038137084138808 0.05063222033457086
P 4.970324899165377 7.806839214595652 7.588459402302729 -0.8883701353906636 -0.21767087918604444 -0.11022962028222952
P 0.5527550408046137 0.9054401552830097 13.66076814470699 -0.07121210136845155 0.4311765712508058 -0.6778384383525616
P 5.004417440755429 4.52075271809961 9.96041641626246 0.030326161787367124 -0.5561185580425455 -0.449811926963806
P 8.184865337520641 6.759867660961718 9.307992684289761 -0.564431448783615 -0.2286132371301611 0.33763623869879916
P 6.101664351881229 0.6555182428964363 10.92100441428419 0.010262558268272649 0.7469517482104555 0.6106277448340193
Ni 8.580996159819431 7.7799514149102516 3.729581069248943 1.0887493173757958 1.706205140875242 -0.4884406950795976
Ni 0.5146599679837689 8.76835658718524 1.8851532149663295 0.8233831889963175 0.21599631969709895 -0.9617149668314018
Ni 0.8435137274095107 2.7369848911804504 9.238703678670914 1.1668871993298033 0.46207943147724934 0.3313321508576423
Ni 7.02572820792009 6.687699543919378 7.246756876998318 -1.0232365803849668 0.007287791910664868 0.9582046396852981
Ni 7.733510539901145 2.44203612722817 4.839156816425242 -0.8117281212558924 0.6039199937965406 0.9192323721871588
Ni 0.8537164218412395 5.923411980969625 9.915980984876297 -0.8597612134047192 0.23869581817714375 0.26157015167215597
Ni 5.529834385505602 4.267212651176641 2.5939559092351696 0.7309687425186379 0.929929961110321 -1.0616172370456942
Ni 3.7048249818590424 5.74401762132829 11.233831336756571 0.4455505805842907 1.5327096706548313 0.6491904355985658
Ni 0.9507938198835666 1.310139606839278 11.348492575898408 0.09829353096627587 1.3521758055304003 0.5359904198341028
Ni -0.08069868000882736 5.727203462063697 3.0817243637490517 3.374747219982072 0.634660617413507 -0.6461660469499452
Ni 8.582444535769335 0.8021774491776945 3.4346378759733933 2.103657323290409 0.2873596019314341 -0.7258321926230209
Ni 1.0629222580053146 5.93913985827179 12.364808695484948 1.8093701410012064 -0.25104971175680635 0.649108674518037
Ni 3.5267490157105685 7.545388786715515 9.345674598586433 2.256483952307559 0.575574609884628 -0.4194286866862583
Ni 1.7245515332750003 2.387332081735636 7.234675936062322 -0.09913145348653896 -0.13637028323333933 -2.7647972179413673
Ni 5.0782196229720205 3.6416442232750823 6.536092648255403 0.33945092331003474 -1.0168144789087068 -0.20881111480256942
Ni 4.515729824581031 3.863097192230943 12.40583301581986 -0.4033664910170731 0.5216035549848114 2.059553133882343
Ni 6.921807233514466 6.218574287529904 3.234556808293715 -1.3098479912964667 -0.20574224606925856 0.3915029068102677
Ni 1.872740818764875 5.499650602088048 4.586147820683904 -0.7966537434212732 0.13703671317274463 1.2939012381592232
Ni 9.323270265222884 7.510757746374858 7.636046908272177 -0.31541599384801805 -1.4082597930081617 0.6358839482976467
Ni 3.9403346250979476 0.7891532069820176 4.102932465951004 1.7267657386354132 -0.9385668108497126 -0.5958572713930641
Ni 0.8094072591276328 4.6535576513523615 0.9078476160766645 -0.0831240223146891 1.5670374974024237 -0.011780023354063583
Ni 2.2977091776047067 6.731884294852672 1.6381642638783123 -0.5095221983402451 1.4251362570485262 -0.03839376928685001
Ni 9.05623059168991 4.965431988103842 8.03686081280899 -0.5680101672738088 -0.4946645645021222 -1.2725487406253762
Ni 4.56585663069342 5.626949849838919 7.810513075899351 1.2906372226959708 0.7260134553958916 -0.14714757635450143
P 2.6274746711219907 1.2614147543707073 9.56477952730043 -1.0153723471455416 -0.43645041805523543 -0.7620420668846747
P 7.849835554493128 4.329037878422871 3.461352984680152 -1.9532007371673326 -2.793465789520653 0.3424794257237134
P 6.935074728594037 7.526792010897195 5.023379095899592 -1.4973372046928084 -0.09795851622436033 1.229819834298282
P 4.208646269817695 5.235117733083754 4.001084711735211 -0.35436717830023484 0.600149985231147 1.017784041910828
P 6.189458217152343 2.9626437210677636 0.5279729569233047 -0.9875985194663832 0.4084706450128578 0.3616508564458417
P 1.8309143209807834 4.569013347507314 7.078473232095766 -0.10572196221986307 0.7790751111075614 -0.3851080590275174
P 0.39327770736670375 1.277458303354261 5.37031341509997 0.13079638868998766 0.5095756772859998 0.589750644274694
P 2.935672361231407 4.667094395807235 0.2669050488453214 -0.485192620455945 -0.332597390723311 -0.6356157822379247
