# total energy = -340864.09643797786 ev
CRYSTAL
PRIMVEC
9.31820888270850 0.00000000000000 0.00000000000000
0.00000000000000 9.31820888270850 0.00000000000000
0.00000000000000 0.00000000000000 13.63814059883271
PRIMCOORD
 96 1
Ni 0.1027798448797582 0.33257246887266534 4.34796203041415 -0.764072209940826 -0.33991577876159523 1.2040159858613007
Ni 2.097789747786963 3.7960985590517042 9.782338703117823 0.04011152330890512 0.5989387385318653 0.5237470836903754
Ni 6.705262034223987 6.057143327898809 2.588614291326666 -0.41773432970297086 -1.0623317466142157 -1.9158863169875908
Ni 5.072180685711585 4.136073413125864 9.735314361577869 -2.234183489038146 -0.7534306710665798 -0.22590740816322383
Ni 0.5531894524981111 0.32430721752104735 1.9998013259568128 1.3568930085004116 -0.6285089959898144 -1.0613159037551916
Ni 3.4847678793347865 6.252136168692447 0.22200446494027773 -1.8182553593059783 4.364428847229729 -4.67846390156982
Ni 1.9108105667028992 2.6031814474010564 1.3106843638291008 2.1748917932563643 0.34100746916387725 0.34124863864040583
Ni 8.110503855342465 7.041789150981236 4.021137964651759 0.8621538820066119 0.9097504008386524 3.1517438728395204
Ni 4.520309759781968 1.559625907244302 6.189601668330882 0.49553796824601104 -0.8859892938633127 1.0140639127467632
Ni 4.225640037693791 1.619085398647542 3.298439109236453 -0.23601081514581287 0.6406965391949417 0.18085088214421757
Ni 5.921544751045659 1.2849716980121284 12.444257480727362 0.7377204594201746 -1.1379239793282336 0.3781563103000326
Ni 4.051473393936079 6.65321051894762 7.06096975231401 1.216929351488859 -0.36770323328750865 0.2615655236864657
Ni 3.5241932214640936 1.1685034041633438 13.33177308902528 0.39950109452439586 0.34857011200248356 1.1992936406849668
Ni 3.1620503482631035 6.6385622944552365 4.998801653756996 0.5160538288111758 0.7390101247658757 -0.8691447115021482
Ni 2.8678744912500513 4.129737031029922 5.823499488140825 -1.1721610461342329 -0.20199743431484565 0.6117379471790626
Ni 0.8298098038218195 8.792587433343682 8.857440304095643 -0.6670745149678382 -0.07764654413988563 0.3324721779993564
Ni 2.1627283460614 5.004111169225037 3.395529255722414 0.7540431078395982 -0.18715856952980026 -1.7708323899373244
Ni 1.590664861305451 6.511657606566078 9.95241931224455 -1.8423689645247305 -2.1770180955707477 1.7297070806519241
Ni 4.155213014339193 5.068024764513365 1.5695730953140337 1.9678269717209402 -6.0911699032747935 3.269025771982841
Ni 7.628575405901285 3.9806270511780735 11.529015541655218 0.2681658026118027 -0.35559205184627146 0.10421323888482054
Ni 6.4835072972839605 4.214495459772105 0.632513501772128 -2.2639010707072367 -1.0415487484305934 -1.977894640369587
Ni 9.11396314232446 4.280002468793383 3.8704364347087528 -0.1303222772670465 0.25962639768222384 0.6309327749399586
Ni 6.881068682759472 5.039464454036805 4.503573324660614 -0.9517786815542962 -1.8199417458694658 1.5506585418237682
Ni 3.0337852018651095 0.6130067631255924 8.42058403141633 -0.7270742925602381 1.3089172519520813 0.3877120723092678
P 1.0280593586485913 1.6502920804700543 8.670966169937461 0.13028319649899497 0.3410951437816771 -0.4862020355570658
P 4.513349057685397 2.976571398822343 1.064099395461052 0.8381688319459243 -0.8284140665520056 -0.3647742325661718
P 5.294839288921179 2.8725708685682196 4.734807475580348 2.029875918532885 0.929140118219174 0.17119921798706644
P 6.233257477330127 6.032095982201911 7.773180963539636 -1.260069634321759 -2.644844456834103 -0.22194482397105003
P 8.041092516765012 4.353970411554537 1.875994010727493 2.1135074766116118 0.4675761929257624 1.1095881084980181
P 8.082949911434083 2.007514939337725 12.324882837502512 0.12713102402325846 -0.7938550976302133 0.23977593861519997
P 3.0925551458049676 5.2580696363467885 8.450314708938848 -0.12992427049767946 -0.3538485867926035 0.2729089737237429
P 9.299553910272795 8.45853896017102 13.239347637947008 1.0036612293562006 -0.09960993578485425 1.162169996359792
Ni 2.299035106795861 8.723809732975822 4.073467162555271 0.33725160166587076 -0.11657793109776052 -1.23329468022076
Ni 7.006240183781211 3.5539648991060546 6.5628229601699095 1.6557724381459873 0.16771922985826596 -1.1301037119528665
Ni 9.239880100063369 4.138654557009064 8.40757301623903 2.5819922973945726 -0.27326147196715517 -0.867074716346997
Ni 9.314723954467198 1.8540999469442219 6.701332545503607 -0.4742764877640736 0.023090306160560233 0.3073170188899675
Ni 7.112355947470304 6.083429995388003 13.175425656270612 0.7762384129897149 0.6429071736930154 -0.2756240586620608
Ni 7.837088967902586 7.156347211992275 8.121731365323935 2.3229410554895282 2.239979784004949 2.8928800643549337
Ni 6.747445566206822 1.6459497950925412 1.037033725702417 0.1359182832975853 -0.5390222646818911 0.074530109998091
Ni 7.046783710986272 0.3717825603748897 6.400093486095372 1.2551264313838708 1.5221344662421463 1.2103717528759994
Ni 4.917209552420991 8.630003323328992 13.393567723595053 -0.9953781634118019 -1.0815895664025632 -0.17836771071104762
Ni 0.30421809081422324 6.343081888187137 12.607342910384348 0.09724117844236156 2.0267926516218706 0.398427658954559
Ni 8.083741959196077 7.1548562985579345 10.707372216169992 0.2989876730886657 -0.16091917621729707 0.28134990540224447
Ni 5.741805818327105 7.070955145040497 11.539722163755567 -0.33394387744887644 1.4655195459615793 1.2292562484853282
Ni 7.2115669183166125 3.9346975991914617 8.992362378977962 -1.465296631317496 0.049523817761740516 0.21497610596270075
Ni 2.1773579341358533 8.380750551734373 13.201283686147432 -0.003738898217141948 -0.11121563834458265 0.3132220715204928
Ni 7.967963212810673 0.6940723856550969 8.79954627179846 0.34519579621361196 0.26138786045802076 -0.6462478080304741
Ni 2.049279151917152 7.5995305485585645 1.7322625010900232 2.054614044709513 0.8189745184056605 -0.3030993812641941
Ni 1.6663007634712714 8.55870038833172 6.399874508184704 -1.1472100326158499 -0.2872554722534021 0.2173302080171741
Ni 3.284724569282325 2.9032464124797484 8.023632056807106 -0.09068872203582447 0.0379206863051734 -0.5027823085132502
Ni 3.342320418892641 4.940150982891885 11.640479957290003 0.06998105717482786 1.6079211229906631 -0.07279744357770045
Ni 5.318796404169217 9.022654012680148 2.098595772862403 0.5615687825238393 1.1992846418239023 -0.1498626612928193
Ni 5.111876255900866 6.718726846177862 9.446117223614614 -0.40787749151354913 -0.326198943396135 -1.2031772920100892
Ni 2.055158941773827 0.41391484220841884 11.333553994950659 0.8984737994835688 0.35502538070952405 -1.2258215117721665
Ni 4.799343527227513 3.2262621262382996 12.314150124417063 -0.2635085063454494 -0.04553218010384417 0.19004180461486625
Ni 6.387445881067693 1.8538297188842483 10.277948146960858 -0.7037836974634138 0.2127544157210336 -1.0406738020248076
P 7.691035360591132 0.5867173001737102 2.8840443792663564 -0.2676958049539196 0.9969923019764572 0.1281422388965922
P 3.7803041948566736 1.8470460627580048 10.4627999809383 0.0011024890355593917 0.610103239789117 0.12154890194979066
P 3.6953128108903748 8.776727841685899 6.689262669431734 0.8759306240757302 0.4845673281671203 -0.4362293031833649
P 3.1009042610372672 0.407241140947958 1.8972292771369654 -0.940757133632812 -1.0931289345007302 -0.8430107334192579
P 2.804417488200989 7.625565624405713 11.270887176021798 0.5638706911841386 -0.2987364763098081 0.4839952577137342
P 0.7604413290056026 7.06979036891992 3.169162937165798 -0.5339739036247062 -0.049987901882352616 1.5450656211170228
P 0.4954799207384268 3.924177341270406 6.248600840211271 -0.19415711233482047 0.8737423581751598 -0.7526493128158651
P 5.9214608871649785 7.187022755903803 1.0764544087272416 -0.11391632510519735 0.9770228008330658 -2.1211230841753403
Ni 4.351221539909974 8.937485582743523 10.544628764782008 1.1210901956003465 0.8735250999580311 0.41873834548745303
Ni 0.5214926328840599 5.671369476763543 1.4013188551443734 -0.8192956491905052 0.41422400255686725 0.8943739183825823
Ni 2.059491908942375 1.5098573531642667 5.503426464773301 0.5425374769240012 0.19534830442944423 -0.07210684526857905
Ni 6.490924591619798 3.224901667729465 2.7887815335583572 -1.3870322510879531 -0.6101353785786331 1.3327467502715113
Ni 9.238584869017286 3.716865828225541 0.09041271794191459 -2.2628795714212577 -1.5443148589939273 2.3294904265722725
Ni 5.017138025357575 4.360670203800098 7.241989006944303 -0.8891571500683332 -0.09129293127872666 -0.0536344974960044
Ni 5.326865973132578 9.057587978088508 8.161390594498254 0.8881217668252833 0.22399553585249166 -0.03613968314535067
Ni 6.177823452199603 9.017407861033067 4.391930931234606 -0.08930444009378813 -0.3124491979102103 -1.0013438940769335
Ni 2.9417865247574166 7.735762763621309 8.82762762633424 1.0981780668888637 -0.09818837284697927 -0.5015705475933361
Ni 2.3267474602566405 2.8299400625550835 12.219842395127936 2.681391145609885 -0.7648432837788957 0.14121706980267937
Ni 8.22134395097662 7.958225684442645 2.0407026723861157 -0.5923443731437992 0.2460766840222472 -2.4011879522175743
Ni 4.467783015848405 4.7831671164649325 4.2485805363437885 0.027422614987326965 -0.4607131472573421 -1.0055548468344877
Ni 9.215876393770507 2.506905712378603 2.31691581797807 -1.715264422864033 -0.15510025554267484 0.9442034403101996
Ni 7.239866318942163 8.632789467809413 13.127051106251683 -0.5133004344357547 -0.2991445103815042 0.1644431302101555
Ni 0.8053933008718257 1.4269905208419014 13.262478228059884 -1.5743193757758178 -1.5951692226416334 -0.2632801923847272
Ni 0.849865384976371 6.447250146202625 7.729130062480292 0.6570970920401522 -0.30182437120651245 -0.6909474649306939
Ni 0.8289786195821752 4.308683915986484 11.964372514512124 -0.29494435625722754 1.0768373964295583 -4.49089755507864
Ni 8.278147752824943 5.833823131852728 6.141077095147624 0.5528442581666478 -2.4366730324980614 1.1697899747988951
Ni 0.6659882356566287 2.174497243983715 10.719429046749314 -2.289466577881167 -0.024960269489763463 -0.27906907978786777
Ni 6.575049382152388 7.445724191388547 6.259361507923613 -1.3713166401249093 0.4319458453166625 -2.079894930763489
Ni 1.0164395520697103 5.973708084829602 5.06748337657252 -0.7233814170896832 0.5203781672181425 1.353606624439656
Ni 7.7249815958492425 2.1449585215658695 4.707354168328784 -0.419258222546665 -0.28056417627615554 -0.7020718569786296
Ni 8.874382671635116 9.272847923380194 11.269277921333607 -0.27317559712156825 1.4177091113465197 -0.1729552814462247
Ni 4.402136233692658 6.903935567558649 2.637561911196918 -1.0386899388255595 1.719694947831561 1.550680396200639
P 5.356190376744237 6.703109527953159 4.601317609415891 0.6229932083779077 1.1254428161420875 0.0636646280384968
P 6.296928799185375 2.0666203388003095 7.825960230936141 -0.32586058622010977 -1.2405734732703602 1.024292532453307
P 5.7456635568384575 4.98856839667205 11.495125215650894 -0.43691244529331846 0.8345680019685433 1.051133306795235
P 2.246415180772652 2.936521736692406 3.9179648913536935 -0.1918955699941534 -0.3203036609576226 -0.6930794236720322
P 8.976556832932173 5.310922517594113 10.273406451911503 0.49705389066990524 -0.9912978226948412 -0.22368211837713092
P 6.783385898183361 8.658535679178659 9.98721070905575 -1.1446175892983257 0.43893281815745694 0.30717072312009036
P 1.9677634598946565 4.713056912215132 0.19017253129623946 0.876710182554232 -0.5734385373782318 -0.6216081551049231
P 8.939488997670916 7.850078551199266 6.223628972006985 -0.5265521572393383 0.9920616974440591 -0.3374632034560446
