# total energy = -381161.4432953968 ev
CRYSTAL
PRIMVEC
9.31307334686734 0.00000000000000 0.00000000000000

0.00000000000000 9.31307334686734 0.00000000000000

0.00000000000000 0.00000000000000 13.63062422302293

PRIMCOORD
 96 1
Ni 6.590424259832494 6.776080376064264 3.244878693960078 -1.0313517532929335 0.45056988817575305 1.357285873063456
Ni 8.515902164568809 1.711146835814422 13.12593677687463 0.46568463233000446 -1.5714538813025647 2.4684220427748844
Ni 4.5711916461869615 5.314840549177021 2.221968906309159 1.0480412981334724 -0.7885413987267839 -1.739276212397598
Ni 6.168467534764571 2.825139411644841 6.038461688035833 -1.6696121722425565 -0.44995462318925733 1.7048658532385281
Ni 4.187260199402175 1.9233731501705582 11.24000311267665 -0.23987184076311593 -1.2592623079291152 -0.9095262006429884
Ni 7.586550579980481 4.380655479546089 2.239742906701852 0.5882802303767545 0.562400020175883 0.013341968524544763
Ni 1.033415865640438 5.293355289074352 7.865033823020807 0.49682300560602183 -0.2297015850983334 0.9017910367822599
Ni 4.307212583503765 7.38251977012818 2.834256910405358 -0.7230787982475998 2.361099825947437 -0.7568373827552837
Ni 4.545273363193583 1.9811235177026978 13.426015174282563 -2.2922721656507616 1.2076805791970813 0.6626625019430716
Ni 2.3911129435803606 8.039761979042575 12.102508251040913 2.2728647076584276 0.9082416775036101 -0.26578778929792934
Ni 3.5334731406820103 0.3328073309054637 6.666874347243328 0.2322364357050452 -0.020672697858003106 1.6429508609012866
Ni 4.91571016676694 8.999334486488797 9.76672427593474 -0.32607013112775457 1.7268205031327486 -0.8921087764974894
Ni 2.8562823287594155 7.632715484327654 9.303609354725623 1.358988971797492 -0.35034160208060955 -0.3760842582623523
Ni 4.781285266757441 7.505526842272109 7.486197558638347 -0.43213250740617193 -0.004258518166037827 0.4423179325796059
Ni 0.45864185210321556 5.157840759488775 1.3517422988720227 0.6729993650927054 -0.20905768359573676 0.4106751088633443
Ni 2.4981015296486113 7.424512417637036 6.631530302763208 1.2789603005786747 1.5102467136656248 1.543567953525574
Ni 9.327042909762614 2.745689583324137 1.5992130078239708 -0.817287874731857 -0.12635300820665335 2.009490155787681
Ni 7.050871916848544 4.488687129823919 8.220452364590885 0.28458023941408406 0.39058836541579833 0.31812362258716825
Ni 6.057856163182694 4.5195320285928995 3.984381416717061 -0.42803802562182414 0.12055517057795367 -0.12277917481246596
Ni 2.4154852564059714 9.03842145512811 4.676244975623511 0.014924996740948491 -0.41399183194140315 -0.12849962223601094
Ni 4.207348498509871 3.1455370723783043 3.1804881051651717 2.445227349825976 -0.42006734871152174 0.957358746745235
Ni 2.39264028760153 5.458485391753335 10.223826677021496 -0.8059423678120508 -0.11402328299670686 0.40141373816607645
Ni 1.8298419550205371 8.115058176671562 2.470018888420355 -0.5110178090491652 1.3609507235095528 2.5781855220539724
Ni 7.532162231909573 9.146639366871938 1.7269865108827438 0.5782444434073074 -0.7139979189922542 0.11811853611200303
P 8.271154598249726 2.250038509234795 4.078255332964515 -0.5249328764683605 -0.1901536476023822 -0.74393764397448
Ni 5.352074216229672 3.4212971727857635 10.001484502447102 1.1198257270656264 -0.4304515201593232 -0.8080740694430727
P 2.0299519610136167 2.6524936588129098 9.697261787420755 0.8607713998367884 0.4772036887131975 0.2753975444735515
Ni 8.556581668742393 6.019961267925754 4.045787165519377 -0.4801661137756311 -1.2107761874032696 -0.12184329326175788
P 0.994440653880721 7.281463611751911 8.681303277680817 -2.2639131548920948 0.02041121666650033 -0.30328218669896156
P 4.859962109994259 9.157666045658916 12.426399245569137 -1.683307153231146 0.3804687604832931 0.15976809333198935
P 1.3346285953762862 6.06499929040365 3.203333073969613 -1.110141924118959 -0.6711610263323861 0.001342630070823494
Ni 6.472949153228654 8.388611078706967 11.389599940398874 1.0593497811677561 -1.4413370351781047 0.17782006573769377
Ni 3.2698852270774057 5.282812890098964 6.76181181646162 1.677058344107957 0.18999501053733087 0.051389410215569566
Ni 0.7206661007007813 7.73242124707545 0.41695653601325305 0.4689710163907601 -0.2894882182386627 -0.31651591178041616
Ni 1.967871014397064 3.7269149861924236 5.818640562403699 -1.094999926271198 -1.1779727677200036 0.13413933702029157
Ni 4.736275183499444 0.4093337855173562 1.6677749221498634 0.3199115677255264 -0.031398054695307216 0.7639616525048908
Ni 3.287449683320853 2.620465999734853 7.666585269304413 0.28090896121008396 0.2525234680888554 0.8016416835541678
Ni 2.4020930570008403 4.074748960867135 2.363945777457477 -2.1626384298103076 1.6470209172056023 0.5562162599626742
Ni 9.17387079320059 5.281266919931195 10.544786847382268 0.7203241183205982 -1.7919457748771719 1.0363764602010344
Ni 6.008180230201491 7.45423043453674 1.191450337772293 -0.028730020944840846 0.4482836632447376 -1.066377634548815
Ni 8.235858050443436 8.492274897607183 12.996881794929802 -1.0170232524854033 0.47367484962433254 -0.3350916179000745
Ni 7.858296745795721 9.057019662507837 4.1621791616984485 0.31081243363773564 0.3055149326842222 0.12046698173952156
Ni 2.6902022926038516 1.9076340562938743 2.2341550627219644 0.03214136061923497 -2.429620239416338 -2.0372734965485364
Ni 8.977942357119126 1.6763252547464214 6.025539798832343 0.41640969735427635 0.6423194195103454 0.19121525609767714
Ni 6.647764852139441 2.923131568905472 12.241009483233741 -0.8570808383590788 1.5372805778549654 0.7855162387472149
Ni 3.1565544380919826 1.8802722469390238 4.994083403814185 1.193539768920325 0.9790534581098493 -0.44253030570072827
Ni 1.07562271383519 1.5618303315985216 3.673221393389682 -1.2285473953437618 -0.3215555310868527 1.663312198166458
Ni 8.192552259599307 8.940149905668486 9.67505755805934 -0.07306843785089998 0.07731898559713782 1.1871027550457298
Ni 4.320772418228293 6.5536376202982325 13.476052454507798 -0.3127993821607774 0.6329153525876261 -0.784992505033261
Ni 8.344262223653258 6.143555063687572 6.449016417462794 -0.2522902690321268 0.183361050160581 1.5249235989515093
Ni 2.4912471076999494 6.484394920314124 1.2673947253029472 1.1848754083771078 -2.122175436699255 -0.16884305905006408
Ni 6.628226024356434 1.3649892143336764 10.652496265323924 -0.2058222073775746 -1.3782629895357552 -1.2819895743233019
Ni 8.100632226130152 -0.04205131987064516 7.443274535106839 -1.7828798080201615 0.11751047021435893 0.026648712935779913
Ni 4.7952083113406605 4.806337433933938 11.739933543947256 -1.560314062635661 -0.9540096277673439 1.2766789607436657
Ni 3.239235902847722 5.70959378713619 4.068823052326464 -0.0156544187078053 0.13257173542285555 1.2409033458059533
Ni 6.3661188894065 0.9414120145115863 0.037852055119759524 2.106512019130385 -1.2288502712961609 -0.39964584763237626
P 4.328492955993838 4.171306904839596 5.173667396254477 -0.3070591372428905 -1.466508649347726 1.273174032914201
Ni 0.4977167137472405 7.812765130432935 4.268484168186493 0.0662958950137568 1.2257171249838184 -0.2878519681868204
P 1.3870518849809332 0.6447505836973566 7.033156588817639 1.9983909605507262 -0.1871554842060067 -3.048563960315221
Ni 0.35831676998098116 3.8865131233313175 4.012692228241162 0.6006179260065011 0.459123434172719 -0.7780788086325632
P 9.078160338898414 3.7901507538981534 7.108724728186981 -0.328930226284369 -0.7157868925718769 0.06197052816552553
P 5.69120046736906 1.3969703080452338 7.951097795999036 -1.117081588661586 0.32738936415981035 0.9167427729960856
P 6.000645953901943 7.242860922924185 9.147674980622877 1.1300371203809894 -1.1648979368139163 1.632334775948337
Ni 2.7232637028181874 8.870404299726188 0.6823083457008419 1.9113249228691536 1.123601906278607 -1.1366723663093197
Ni 4.103088642918466 4.925973173543334 8.908921308279554 0.5904813517931314 0.7474407720317321 -0.6797757645845905
Ni 0.9888062445343342 3.5619152665396387 13.51368658371234 1.5956322783209809 0.11104851663909908 -1.903266057120419
Ni 6.051411516459223 1.2449623256456877 4.423396898148251 -0.43577473214444945 0.9092968582410017 -1.54428014910125
Ni 2.1858528080524846 1.6054713930814448 13.1721854988815 -0.8277178118159293 -0.5885476251055283 -0.31523755928862485
Ni 2.0022828202398726 5.837946563354212 12.615401549037529 -0.8712887544283446 -0.8629974609538298 -0.291708108708117
Ni 0.34615762148074547 7.492767931851365 11.166262198288733 -0.5157645797055311 -0.16747728905078899 -0.5576882165225104
Ni 2.5981053107420022 0.47514741191247395 9.89357019689285 -0.3475355000903821 0.9409419959501086 0.9713607174512819
Ni 8.174075122172477 6.613390298589832 9.045732217668466 -0.32234408842641904 0.7030154518388215 -0.9836966133088155
Ni 7.753533984246126 4.2285450533402456 5.489052760937981 1.2151743164709652 -1.0700268012656282 -0.4989439086037665
Ni 5.796885223175337 5.642325458691642 6.377373738489324 0.033703048679400015 -0.12030551646099281 -0.3898540583529351
Ni 4.535354940129281 7.668673260338231 5.165420669847493 0.4280665648669144 -0.45718122284468354 0.17077498596545426
Ni 3.263896920945626 4.3373776279218585 0.33106019835441874 1.374299119792001 -0.6729793104880474 -0.9401056160917421
Ni 8.127975409338402 4.343552195519635 13.399094804602122 1.1510684871299919 -2.1602581025035894 0.3733159514885958
Ni 9.219719053055568 2.713885438005276 11.416888176474655 1.8063112995702248 0.7570381859121801 -2.2712572539619913
Ni 7.004967778553765 1.9638384536582452 2.389325764814127 -0.09054474025879244 0.47616753413919927 -0.4687380744443475
Ni 5.69815733312402 3.4901021583247815 1.1853502747609155 -0.021908884257949367 0.22745932603137603 -1.0217859639813693
Ni 6.462024918247973 5.629594487490797 13.233687172338804 -1.2060936943259357 1.3952332988415068 0.4422937642098899
Ni 1.2588201787158095 5.99733049980721 5.619934036556901 -0.8532894896374464 -1.4440796309202486 -2.0957434677599713
Ni 2.6197023277242684 3.568071207990815 11.760870264032567 -0.6089148759079706 -0.10267391942215866 -1.0722731740976434
Ni 8.327321743320898 6.75335647721272 1.7280770717661516 -1.148203763987687 1.38456656315628 -0.21759426031183815
Ni 4.449711918064202 6.8729083991624185 10.851598596785964 0.53849236032035 0.040018449374466566 0.21615392832088576
Ni 0.5220657438896013 0.5452944113139947 1.6997113131095816 -0.2748324159987009 -0.7395354011417264 -1.3385877824333205
Ni 0.6054382386841863 1.0320934092318645 8.776131783941501 -1.2273402624095378 1.306429452533221 2.4867174986499627
Ni 5.9330796071118 0.10745051450392125 6.3181211722339246 0.1449081455010214 -1.04390927824297 0.23696597997023064
P 4.406648267125867 0.05014065533886264 3.8083010024521586 -0.5426277226449622 0.5709391679951458 -0.09592991583010575
Ni 7.721217619895775 2.186839993822265 8.1739577774489 0.11617092546732896 0.07262389411431362 0.3042010989688051
P 0.9480801749942525 0.23605194977904753 11.649740154267889 -0.5664199399685537 1.1988231288064517 0.20710981584074653
Ni 6.814105654347399 5.56579062231378 10.890828055446766 -0.0272871178507272 0.13791628756422056 -1.1977080413654018
P 7.600399119977303 3.213662203566435 10.149540016538207 -0.17763468919976505 1.7685613345149604 -0.5038734846948999
P 8.927893901205932 6.2071912935451925 12.900485898432759 0.0006733719179407758 0.6318084926766925 -0.7530758588303224
P 7.111099561878434 7.627472224059859 5.649771260794842 -0.7675884506242007 0.01070144557790415 -0.51433478923754
Ni 0.3350610946440184 8.135770451690346 6.5217356877097235 0.3262519081212575 -0.31728621428753745 0.10941380924915349
