# total energy = -340859.6226826571 ev
CRYSTAL
PRIMVEC
9.39977541156722 0.00000000000000 0.00000000000000
0.00000000000000 9.39977541156722 0.00000000000000
0.00000000000000 0.00000000000000 13.75752145868760
PRIMCOORD
 96 1
Ni 3.630418808191189 5.984930919268123 7.280012217978418 -0.08884344129696958 0.7844834266073264 1.065967286484274
Ni 0.9531184139591795 8.675306400916227 8.97295780501442 3.183196177811531 -0.50107021091815 1.15801535076147
Ni 8.8376311202466 4.113050270002408 12.163533868451763 0.4009432262875611 0.6345624012727459 -0.2917284204230911
Ni 2.3621823277063627 0.8369682107424554 5.603535037235009 0.7227620383381295 -0.5188725292068934 0.36195501794982177
Ni 6.922755898844854 0.1696668838024871 0.08488373069899775 -1.3920253334271704 0.01579428671977925 1.0966773139736208
Ni 5.855580611624064 3.9823933935942684 7.8276854248476315 0.6801737713539576 1.9418670573220684 -0.02100488438644125
Ni 1.1681758726168656 2.8004656497410636 2.697010783019076 0.5282711968129741 1.6803097611657192 -0.4517104295380994
Ni 2.8453401769333273 2.6513100155795986 10.142003156844794 0.5258330196851266 2.8700286136780573 0.10152309364716708
Ni 5.941663753648938 2.2487458396133095 12.465442430774795 -0.2818903512867468 0.4332486232884861 -1.2201653419276535
Ni 7.433079098634375 2.100163591743995 10.5197848252823 -0.12084236280106929 1.3559581553909679 0.11334065510738545
Ni 0.9471589564309234 6.4659456197309835 4.959269739576582 0.13193872982454696 -2.520832952276433 1.1914456053954576
Ni 6.716383832546961 0.14210486272306633 2.5841298216451394 0.08933400778014293 -0.5467183477745681 -0.08265582442901893
Ni 8.475974766303924 2.1563836477006197 4.39420694843722 1.5674830695802746 -0.5231534159704345 0.009848867769621747
Ni 5.432900916556091 6.737129136592483 12.547629365945628 0.10277162134228754 0.43552019293148214 -0.37261738275967443
Ni 9.192416238458748 3.8344127313429484 0.8160236314609721 0.9003944135450492 0.6242358225357572 -0.5266040935231963
Ni 3.2956928104290393 2.1884838802857853 12.681242471679694 -0.8735875777648502 -0.9261627807584049 -0.23886473965484023
Ni 0.8606650442262627 1.6598123191474379 0.2640180681646704 0.8649872376903491 0.7499784508519213 -2.110452234725056
Ni 8.831878457774529 8.258482765848417 7.608734579268489 -0.8047092667358979 -1.8188775662710095 -0.44580254869409675
Ni 4.776730803504074 1.86512221083856 2.90219001783379 -1.2588835844334576 -0.883024297697718 -0.32904515459567846
Ni 6.61073975816199 4.500095416979501 11.480541496634952 0.970411209053819 0.14796055917410003 -0.8642197633967051
Ni 4.803228770021667 3.3451168288573854 1.06065842301836 -0.4058550617668817 0.7299780964705944 -0.9055808428419952
Ni 3.09898371312018 8.732334837547032 13.063825545330817 -1.0052511995511397 -0.12661371806720775 -0.05672213528239264
Ni 7.670630219539879 6.808520429852901 5.9357653946600095 0.7193589261938514 2.304823005732579 2.162110839441612
Ni 3.448053767961381 5.494403646220728 4.987211511577362 -0.7126267496763405 -1.1648102621961167 -0.5641920790792994
P 6.679047925130188 2.4607107722034938 2.8737124586419838 2.9315846800139833 1.3232763488872308 -0.15201801707292528
P 0.2186613325004834 2.399847227257975 6.73085384661478 0.32419502559222874 0.17961443863395518 -1.0042924351822962
P 3.3673284978467692 6.319656917030272 11.869452499005355 -0.976685214987989 -0.4005935562576262 0.3752345086675473
P 2.392947792201603 3.4275810573990118 0.6568271573441704 -0.3555933373978521 1.2336091261373852 -0.5490192279936029
P 7.152016417952374 8.322692630794029 11.950883692243583 -0.2598287435010171 -1.1277226133151999 -0.4438731928818678
P 5.494732638355568 3.5645639825713733 9.930343716951247 -0.7587829365174287 -1.1618311249631346 0.26700109287974017
P 6.907960652552306 0.7906996968759957 9.02073780274609 0.01282132013438437 -1.5657054088545614 -1.7232690383360643
P 2.4102809778200642 1.8314334162308785 8.20241310629629 -0.096852170534059 -0.17099687216827325 0.17239272407453538
Ni 3.1414236985146227 7.804172826959335 4.9728486549477475 -0.058840981397608336 0.76437611433449 1.020130173545501
Ni 4.564596674958828 8.726140385636748 8.509632541653177 0.23974045739157418 0.542487340412356 -0.555407905128766
Ni 7.096031356377779 2.7242334722108468 0.7238052561100843 -0.09471018449039173 1.0697108126871062 -0.037938684027302404
Ni 8.479302286753455 4.1786231023637885 3.0896365765805935 -0.4231786406469938 -0.9967426478594963 -0.7870182772140382
Ni 1.2969715935193358 7.357119514587311 11.304857816674994 0.6895372148467286 0.9283083663464979 -0.46843905514669004
Ni 8.732767227209965 8.004059048313229 0.9686289831506235 -1.7468565958480171 1.0195709586079216 0.9734068013470333
Ni 5.143632232053637 0.05171568364189248 4.4514938788882565 -0.3732969253252022 -1.3625748893765373 0.34692074932451866
Ni 4.093451738541187 8.080958609888407 1.5645192773020824 -1.1340778661092663 1.7755488215763873 -0.48518182182266767
Ni 5.230420357224598 4.37850932371768 3.6762850116756143 1.0421892102280697 -0.11751998329605566 -1.6882228453652084
Ni 7.544165642907137 2.4597801944506585 7.182485789526258 -0.7273494005984957 -0.7343397158733999 -0.23493429425218249
Ni 8.603623714622094 6.720341137940329 2.927861744104169 -0.708659023277844 -0.13033924654791101 1.2866854371370744
Ni 1.9935607402803461 4.556165076531626 11.89356950244423 -0.26626241494150277 -1.0703849559359953 -0.4667374990745511
Ni 3.264814548630425 9.334296446552592 3.1948407414824054 -2.1982572074551814 1.3285190853434088 0.2917803567069491
Ni 3.1026966243562386 4.375153603942306 2.630190600477886 0.01924342161064428 0.26486579170429225 -1.0776753189498214
Ni 6.300236981299394 7.3576647015536185 3.956195279908144 1.5634500371614817 0.8883199988790186 -3.508525574118519
Ni 3.9188885117947434 6.021608842415214 0.8179881844947348 1.1823169036213121 -1.6317742754591769 0.012087784402469505
Ni 0.17349823220708838 0.29431824378349336 6.016810257134181 -2.0223227887759756 0.7775275641147835 -1.023079228871496
Ni 8.62271465821813 9.1582104562106 10.445260586920671 -0.9487625204357919 -0.06312469637462678 0.05238211314614204
Ni 5.3732029437454365 6.55966137928416 5.591744899099849 -1.2137447831132901 -1.21647169512615 3.3146350851815236
Ni 4.973900489801711 1.3588691137457822 10.115712925360915 0.7333467558325112 0.6165186563971575 -0.4051276966825539
Ni 0.6563938277037088 8.29395751775952 3.880157677726247 -0.5050903878211366 2.712717723637309 -0.20516580474049825
Ni 3.4835473194230455 2.5616737584984457 4.657897904422106 0.03500094155521714 1.4865221163551754 0.2771924315904452
Ni 8.879055929910677 9.285398815539994 12.889105342337178 2.9092824169723572 0.639597392593492 -1.954196011201067
Ni 6.915931661990731 9.260508210595477 6.875610385944662 -1.022407142505136 1.0601038857249614 -0.752735187661452
P 0.10288712029500573 5.581219970717532 9.525817807883781 0.41533574756380726 0.13119002458398052 0.7543120452302687
P 1.506727578918447 0.5436143839028091 11.873662658353787 -1.3215100010154273 -0.8773784122658503 2.854988688625799
P 8.15683359595794 2.037354293315276 12.607227701138301 0.651416239605291 -0.05486322769678294 0.8105382147128493
P 5.4697950345346475 6.448151845123745 8.415090541852788 -2.4635698568889057 -2.092221313539326 -1.4895961272948088
P 7.901554498872166 5.466965702175019 4.558100490262018 -0.8375401972229898 -0.5415967102772865 -1.6385247068091329
P 7.869021876624066 9.035524589240886 4.449897797045516 -0.1087805465405288 -0.33096422599526226 0.8709622243268613
P 5.079666761265335 3.9918401677518354 5.61668720280841 -0.5214091795858181 -1.1706806049339644 3.245074403373566
P 4.06756475741687 6.608925601532726 3.234737147685766 -0.1308354694580392 -0.28409918601260753 -0.558333049195361
Ni 3.5928103072912627 3.6142041958311855 7.670821974955615 -0.3494224327004498 0.10783258080496266 2.303437181128646
Ni 0.809142055977634 5.899956950726426 7.4896770255573015 0.39409406457621166 1.7819616670812666 0.4795325939566903
Ni 1.2842442977886437 8.997878489239834 1.3440466081049192 1.2444203578202762 -0.2958956644269033 0.645485733053469
Ni 9.237911150819567 1.4194694649834283 8.736837329906708 -0.20703448251812084 -0.45490116856125534 -0.4043275693787618
Ni 6.754556319963756 7.804116428307649 8.913016378023984 0.9707925036526377 4.952905766998322 0.9999999784545295
Ni 9.117988817782512 6.69323218602946 12.751062122513101 -1.3911259615413527 -0.5467643705211551 0.03704445434780717
Ni 6.3810374496162545 5.400763084869801 1.9373613638293397 0.6810106654329562 0.4431921076544432 -1.2032600815318826
Ni 3.772628008419876 7.859358907635033 10.41141669602085 0.2744680906807466 -0.9059086584950592 0.8929600687541911
Ni 2.6910334659177857 0.4904840340811019 10.301494783905424 0.8369730118656102 -1.503622523480888 -1.7480686138782475
Ni 7.671523198191589 6.566636012542782 10.540820582384013 1.2671525093104692 -0.3645531176943012 2.1173337923362374
Ni 4.456687254731098 4.180474858094177 12.373954417963253 -0.7419028729326383 1.580628091602665 -0.40026445505298164
Ni 0.7752492862463511 3.6353254908879546 8.478911256101759 0.6727489396447962 0.46051645786550366 0.5834493846470145
Ni 2.3248652198401523 5.891280958141915 9.702973492652768 -0.2643484857482415 -0.5033458943262041 -0.38273647347154727
Ni 8.952308378676767 4.487565516529712 6.044669311112487 0.30773430893304426 -1.1564837446082923 0.6965804948467551
Ni 0.42833177994453614 2.232709822983648 11.000500612891221 0.7623860804876548 0.009279368419396921 -0.0252294639907501
Ni 5.110733018569572 9.342587048350577 12.046374129369841 0.7333128172707822 -0.41532572026147824 -0.16350981976260873
Ni 7.750594107856718 6.005977016122643 8.257347272994453 0.8131121460876125 -2.1695022468096767 -1.6501350373545514
Ni 6.313086474108741 1.865470002523963 4.948223123666162 -0.474455436544099 1.331180948446288 0.9466678426902924
Ni 1.8655734000520559 5.987675653650222 13.687674531078562 -0.975845235585197 0.31146986471607646 0.6299747819020634
Ni 4.876368421484382 1.9901204225274411 6.942664622890353 0.6492040624453207 -1.8464873575684781 -0.7510264325004614
Ni 3.016923674915643 1.453289856445046 1.295506168553003 0.6207476068768406 -0.9747946828334955 0.25560904899271464
Ni 2.059274569270944 4.234749160567603 6.3514760963345305 -2.269628974329949 -0.4267717573148908 -0.9899842460897401
Ni 1.8190821115114326 6.735390178165468 2.6160890576010876 0.7325438003152416 -0.567310570103623 -0.9187798580307724
Ni 8.671255097770047 1.3981883737468792 1.829778115803866 -0.3467196890573061 -0.546880327273729 1.0628279695243439
P 1.749580173082527 8.416135796864053 6.847131886775328 -0.48168872106774463 -1.2232938602543062 0.05382373068867504
P 6.293469143096957 4.93998610058728 13.47785838711765 -0.5273954790762401 -0.8124685989663428 1.7548943785508293
P 6.053107489382385 7.543517058412737 1.6014989332356986 2.325521157511879 0.3521794266202967 -0.11263128774518667
P -0.16092791272359155 6.007762973426064 1.1003799934014908 1.648659995470922 -1.7328826501664287 -0.7326792974518413
P 1.0183998532868437 0.8693823958220115 3.213894085977319 0.8351835240653551 -1.4330444561520093 0.356130955068877
P 5.007241492723988 1.131573147672024 0.23962847124264147 -1.816605225297065 -0.16719061104830563 0.884036026791684
P 4.638883099005845 9.19284862812168 6.441519363685359 -0.6953880172005508 0.04243168680164951 -0.0633956906478263
P 1.7100447182499632 4.34045903337954 4.222623450454904 -1.1461034298152324 -0.1452218200866983 0.3503076635188806
