# total energy = -340875.9785945987 ev
CRYSTAL
PRIMVEC
9.23667891317949 0.00000000000000 0.00000000000000
0.00000000000000 9.23667891317949 0.00000000000000
0.00000000000000 0.00000000000000 13.51881324725369
PRIMCOORD
 96 1
Ni 7.785485578877893 2.2887565982552287 1.5521083856463658 -1.2919747105604718 0.7705753011666665 0.7634967970533303
Ni 4.2519849314783364 8.899641465521182 10.234957614328573 0.18963351343285406 -0.6547237067119691 -0.34626408957712623
Ni 7.244465601358204 6.603874228184167 -0.08138899376700409 1.1024522687841851 -0.36600579098042774 0.773461878685842
Ni 6.754607586781878 7.012246263867851 6.337403438990152 0.7117147793850324 -0.13120467987199982 -0.9107217636129864
Ni 5.587599425005549 5.51389072952116 12.123644103654676 1.7361456371884163 1.2377563155365394 1.1157253317440075
Ni 4.087211821359789 3.85431820632929 3.741480169155613 0.3833106008074625 0.04150043323663175 1.4184367335411636
Ni 4.934233725283276 0.921063119838633 7.088697329238119 -0.2827994933645775 0.962563430874626 0.3114526383248959
Ni 6.640017351671688 3.792303145993176 3.3326850935905776 -0.6092810009981378 0.01849600192165847 0.14949576487170382
Ni 5.439193709423133 7.753748351097897 0.9510305999927121 0.2753512646166484 -0.16496275015905137 0.17380374548944905
Ni 0.9457250517864173 0.4750322217038957 7.137406030336788 2.2925788982579034 2.1526764335015893 -0.5423659843431433
Ni 8.196813351723858 3.6418561244330605 5.401292845991919 0.12338929759263911 0.32636426532940566 0.6532664054401524
Ni 3.5137895751985924 1.3613386435176906 3.185789574964515 0.5236074727887176 0.43180263487057885 -0.319518703162482
Ni 1.6814726882286475 8.545313236514083 12.82617664373577 1.4091769055057923 -0.18232592402784728 0.8268521213815244
Ni 0.12459355806878718 5.999638422106188 9.960863794259463 0.3732915260085636 0.050029039532933195 -0.5529607291398542
Ni 2.399993919021957 4.223489777898219 13.362183875761803 0.5049988565485948 0.08336236357774031 -0.6433802566746919
Ni 8.051455740090045 6.05062488815554 4.196172300843697 1.0451166682875097 -2.011194540073298 -0.42991518803987894
Ni 7.087922371900883 8.777846621077929 9.904111793407939 -2.717405616031281 0.7591642311162474 -0.3532304935926304
Ni 0.6833969129589131 3.023922323943635 9.610835239155623 0.12267273114158872 0.4952615746561729 0.4578934184203598
Ni 4.204683900203205 3.003010483520495 1.543969948103597 -0.984347616629253 0.09857506676243667 0.38363327425420385
Ni 2.4702203866620334 5.3116536508706975 10.305026134764042 0.002322991706221806 0.14634667771976087 0.013642787594415213
Ni 2.814665369532754 2.9338739439590094 10.79558336591282 -0.7874944455195082 -1.3315316469174876 -0.5919702776338321
Ni 4.509263378097656 2.976316482273642 8.619094901759665 0.6008413548712168 -0.18674745013431063 0.6213960390941169
Ni 1.0219553605373775 7.092910178362233 7.6184190014549875 0.5346627021616146 -0.5273767100231627 0.7098371027463453
Ni 3.14855282872695 5.226436053810675 7.95672713504252 -1.0682787082262697 1.6193406776815145 0.03038375449817993
P 2.0666052404738955 3.9577135869373414 3.0410166450881153 0.22586344229916583 0.060743083516327644 0.4782267306610732
P 8.863248951710592 2.4267063936260738 7.223088232332006 -0.24177651398499647 -0.17760692128562316 -0.26057076387336414
P 9.115456461760873 8.394783084846278 9.474511099224033 1.9127202605547833 -0.5201822491572524 0.24832228552331426
P 9.049211002611244 7.955883826283407 0.014791617161491273 -1.5952077891890528 0.6074442048997151 1.3703344787172982
P 3.286862854564449 7.290048610407761 8.701099981991433 -0.6682065716897524 0.4322456359452685 1.341864139191747
P 4.598960764294261 3.5002393676452597 12.960702402337686 -1.8325044130258248 -0.27304189975718135 -1.5292147701276952
P 9.042126470100401 9.073688200986386 3.471996375391799 0.28176256745963085 -0.8435473226490182 -0.11879962133942766
P 6.729123590435835 9.259216127991328 6.141556294617397 -1.0244041183305068 -0.3739798103248398 -0.5368692228946302
Ni 5.313233122916791 5.227027201243132 7.5244496513910235 2.2889431012775288 0.08564910272938799 0.6783153779889801
Ni 8.48898797021536 1.0216320767852527 5.227346790323804 -0.29062593138753173 0.9565439641534237 0.08632118909574811
Ni 3.7219658382095147 6.767123286328413 11.963445920462622 -1.5600744358210294 0.8936882051694673 1.5080489346833577
Ni 4.514334314666695 -0.24460941820749127 12.75913683022378 -0.9357758783681368 0.014642689613839297 -0.1265424985096401
Ni 1.764334932237476 2.743422867243143 4.908072680393498 -0.14902499588287238 -1.0347348108325534 -0.2037558117668491
Ni 7.276498402854428 9.138400371483081 1.670303696426677 -0.21538414003439682 0.7203513720141078 0.5149580246438357
Ni 5.613055711315696 1.693397240342726 0.28212695947547256 0.5899370492538872 -0.831148177653717 0.42404690218456
Ni 7.2733856421554 6.620213912684402 8.53503466053225 1.3142967710964397 -0.4673041702112984 0.9401585808168647
Ni 1.9756054825901612 7.793863246397233 10.58581192850213 -0.7139927767859316 0.4907014660893162 -1.7933141159796082
Ni 6.423509604534585 6.195917843038928 2.4251804943160464 -0.6114931781581082 -0.6183209997132189 -0.3223852260769996
Ni 8.437779823878838 7.719665006945342 11.393384901655656 0.6922039630456144 -1.307081227184607 1.598465376894402
Ni 1.2497780389988375 6.941807352619236 3.470144421326057 -0.18659986881285281 0.47199849036317426 0.9321539653448333
Ni 5.957445274114623 1.7512003752225889 4.800003540397588 0.27715617903587103 0.7320439778606876 0.7001499573655683
Ni 0.6698402397305374 6.131926133475539 12.631613397692881 0.672596730337648 -0.6289851642952845 -0.07959981121151453
Ni 3.7210975904180947 3.5597328147148017 6.368442373865559 -0.5224682169779518 -0.9566257252339525 -0.497291203491692
Ni 1.1151719212928224 5.36893953174716 1.7273531183301583 -0.5861582989377454 -0.4533718764009224 -0.8248224925460054
Ni -0.2671663110950133 1.020357415134019 0.17121846446804762 0.9802261382617119 -1.3805826388078675 0.654427258517473
Ni 6.949196695524939 0.29494469841327786 12.524112313432848 -0.19418745135212365 -1.0318412913348423 -0.27365896451588995
Ni 1.4323132821269695 2.4369683435863694 1.6201891728401983 0.292865876461644 -0.4289759640550612 -0.35138135619903355
Ni 7.881048256005899 4.97347113611256 11.562424433634385 0.7749425769964267 -0.4724641171456831 0.05735154133627542
Ni 4.49951868214076 6.289106693758478 5.500994478814981 -0.7476014659793124 -0.0041405045309348045 -0.8789786668734346
Ni 0.919600953611167 4.395763071066056 7.2395267492936055 -0.40240772664822955 -0.3840572491654999 0.4557498897147958
Ni 4.700924459714331 4.05949254878477 10.833516557719246 0.14463560856592508 -0.14382648240106843 -1.6733284447518793
Ni 0.2487077325165669 8.06410075313743 5.566628469839163 -0.8658693831849862 -0.9399510927917489 -1.351311400647576
P 8.053247655744679 4.786511523919638 1.5963964123516974 0.3562165728041478 0.6107557857714514 1.4878135814730893
P 5.593132195506194 1.1806692094732487 9.285477852678197 0.6643159783860946 -0.12507388438391362 -0.22217750880714637
P 1.0213180297117606 4.135538123963087 11.460519852957558 -0.6622866066608917 0.4267483602761231 1.1167627718695865
P 8.77051269824402 5.84813841918201 6.123224258536211 -0.16031033898870456 0.2054799935468074 1.7703567358524865
P 5.769229473627733 1.7148817548410578 2.6875806792368815 0.5795068550594987 0.3104879604187814 -1.2188034285831202
P 4.896455709677869 7.474717526299915 3.513634398997573 -0.06229911514953786 -0.6708715201164254 -1.243818462570219
P 2.2086099377642454 7.05111420755185 5.546931252656148 0.025283457157137097 -0.7851678542688606 -0.9012220516526672
P 5.604668807117723 4.236873725236174 5.524733666567416 0.626072875744496 0.19923529818867622 -1.0772644566646479
Ni 2.2313136938420186 8.996857508124338 4.251368845013574 -1.6858651437663095 -0.3506197954426607 -0.13391719370715646
Ni 3.342245979642694 6.1262640494740435 2.7638405453594643 0.21012469140767037 -1.4195140257657424 0.5475920086287731
Ni 6.495435621042973 3.0304249457006533 7.077774033087763 -0.050462784636242125 -0.7933840715310659 0.2578042568718205
Ni 6.946074698147279 2.9613807729254895 10.556529809902555 -0.2635938669704041 -0.05146062977313717 -0.6878963368091959
Ni 8.273311524155151 1.5696904034226231 9.218978384866185 -0.7320115819608555 -0.9732905874841432 -1.3410213315754775
Ni 2.57671929129048 1.0889305172989443 8.852078112572897 0.3658052449338474 0.24954921595187987 0.5132454128281031
Ni 6.349533045369864 4.018075281798303 0.37370862811303096 2.850790591384052 0.35884758266909167 0.7902069593546649
Ni 1.1131029052792256 8.99027175625963 1.6927442071634342 -0.5429519387536004 0.39669962051985874 1.0212439754349703
Ni 8.141882823898587 4.219259379084704 8.556759328675017 -1.2382412255927577 0.13294557382250652 0.28139284282503796
Ni -0.21314836711859692 3.391320453215195 3.196807085236918 1.0955344586184295 0.9288518975547939 0.18164561013137104
Ni 4.5031948802363475 5.33323053215535 0.8101333804703542 -0.6423271328198292 1.3304839223792637 -0.15073709347797265
Ni 1.6400646579208134 1.941337404864963 12.617824883830838 0.10191441554831479 1.300021235014032 1.7367110227735831
Ni 8.594997330876305 7.222694749822277 2.1217103415253136 -0.26150304587964646 -0.3256968069487359 -1.0270230440105927
Ni 6.997513761449605 7.9920916065213525 4.126576698354196 -0.7468764148878299 2.486779205125833 -0.2899728711845651
Ni 1.2716043106065582 4.971679220457927 5.028525435431502 0.6176581693182395 1.434459077111349 -1.2053840698534208
Ni 4.9738683132937425 1.7863644107751036 11.394790724143467 -0.5167585681876842 -0.6035515547135283 -0.10129580812770943
Ni 4.735100170653209 6.37441665760482 10.005300531490773 0.7718626525195224 0.3865314217376053 -1.21511158155383
Ni 8.310646179186215 8.750145821860174 7.594787882842548 -2.25797750613395 -0.6853501733485745 -0.3327079481592463
Ni 3.3769851279781307 8.272628009936373 6.859716371276189 -1.4573858611108514 0.6505014411005056 -0.36427672410446293
Ni 0.05179375176179978 0.7896870686502736 11.388085819124404 -0.2139600059933605 -0.5829513619646735 -2.2294362041611473
Ni 3.3237726223784363 8.17907892875017 1.7216882633250736 -0.15190540275446096 0.7198294380723668 -0.06950231776619643
Ni 9.201283679610617 3.6799481871119597 13.55139354286951 -0.41683727180999824 0.39034488194642447 -0.7683782935153477
Ni 5.404916395019302 7.90821332786299 7.99852772419222 -0.3870384432810109 0.6243625779216087 0.5621789053040125
Ni 4.49187994891199 9.048222677997607 4.879006700073914 1.5846145870542385 -0.1531863263494136 0.28286839892929994
P 6.460336242240883 5.130910323397198 9.845142989684701 0.8507153011523672 -1.3419250743366697 -0.27688235654919413
P 2.637468926653992 0.6273949304123154 11.396440394947167 1.5479673681448503 -0.2757973510151315 -1.8996829677548508
P 3.0107692935714834 1.0349513673727826 1.0029444285767295 0.18756069006422535 -0.37440275679487134 -0.2078289533949582
P 2.565099549571262 6.523662910942758 0.2716562605780912 0.4400399351787067 -0.18646154346277566 1.086791936539109
P 6.268314930157555 7.576976795436214 11.750078644060444 -1.7278093494085793 0.4656470942238497 -0.3447350545271095
P 2.954370133843704 1.1549912428759304 5.7888500263781 0.20114099985182132 0.3731773690282024 0.9285307667699494
P 7.847084988675561 2.2527982083403506 12.408958640926096 -0.5358965745687158 1.2269247721386742 -0.1411273383023505
P 2.422226604489491 3.339936809984662 8.464304793906722 0.34310060424748007 -1.34198215282685 0.005538670430042074
