# total energy = -340886.9797625305 ev
CRYSTAL
PRIMVEC
9.05862546439687 0.00000000000000 0.00000000000000

0.00000000000000 9.05862546439687 0.00000000000000

0.00000000000000 0.00000000000000 13.25821402704107

PRIMCOORD
 96 1
Ni 5.286613735864813 3.035780868480862 9.516295151307888 1.3097713724222604 -0.9291138929669289 -0.3474997617564402
Ni 4.522265048742123 0.45351101794437276 6.391983431726992 0.06498051863644293 0.899897933524605 -1.0577718951576751
Ni 2.819433719999609 2.0319221279375674 5.039990849844136 0.5911984324648141 -0.12395185496432846 -0.14123301064227936
Ni 3.7931997072349133 2.8129477442715776 2.560665029151915 -0.2147753028058043 -0.9307956515447261 0.9271770809555323
Ni 5.516784346582066 3.0973976378971617 0.5830258075728059 -1.1929522718479713 -0.4894516528426151 0.2819533433141983
Ni 4.994563655597023 4.711753373154084 2.7677180280564073 1.1717380996642013 1.219276768675113 0.3537308302678166
Ni 5.233756657131482 4.532854581739427 11.710052338147694 -1.0871850582124694 0.17475968164481515 0.46348608201678887
Ni 5.4452574410673495 7.845159046692203 12.574474376751223 1.7074706378512272 1.0025980781990087 -0.08190943318129765
Ni 2.3639932148623997 5.398360937793579 11.488785450255973 0.04082063356078776 -0.41775669830047407 1.149057113126918
Ni 0.6078545937082273 7.295363900237708 10.921387583082609 -1.3155144455536247 0.7841514971892044 1.8364685398798952
Ni 8.226509055349565 0.3825276299487651 6.937506530481291 -0.9985563040294675 -0.32463262735027965 0.21403225399219267
Ni 8.68829965683503 2.5841721618533704 1.698205088792367 -0.316499456720184 0.6697348354088207 0.09884811791816524
Ni 1.5976516301696457 1.528670198369422 2.5351034002282287 0.2501871066461949 -1.5191003074015128 0.3142047471487363
Ni 2.0141219291867545 6.520253566236666 0.4711979838787046 -2.2319420013021367 -0.42625110892473045 0.5535801078914079
Ni 7.703282856954173 4.246058504156356 4.367109820149734 0.11593284131459387 -0.8716556508494602 -2.2109291464958956
Ni 7.505859176763223 3.8531768654685687 12.949456171809695 1.6823962113811026 0.3533269099611786 -0.2688453451773305
Ni 6.959053376663827 0.9038243411513223 9.502613003626857 0.09816214759473417 0.7949110496985535 -1.0536239344275724
Ni 7.03077957193555 1.105949447882562 0.5297384441368485 -2.7797877778129285 -1.054990475757796 0.4255011181325833
Ni 2.0180986657015674 6.417990745016347 9.423805680943678 1.756097140609679 0.9020178080810853 -0.18732594834559996
Ni 0.11985557745133811 5.048553062495164 1.7044491992243953 -0.3206433036852284 0.3949430428400682 0.32549137580614906
Ni 6.316271441315138 2.221564448979942 7.111387749332043 0.1838960967284446 -0.2868685212276285 0.6939538558571855
Ni 3.5354184065469343 4.5492778694418305 0.7136991953794726 0.17046928179957738 -0.5081759687249958 -0.279275539371719
Ni 5.941334939383259 5.965077596342994 4.955960323802322 0.19185391812294056 -0.3331072404801941 -0.26594771191456135
Ni 6.551143478572682 2.1590599342824315 11.554745830512484 -0.6944436510094104 -0.5036888794879196 0.3131446813153381
P 8.994689540981971 5.611274867279128 12.683138928484112 1.2249131410252843 1.2117236389182033 -0.36639428466809804
P 3.988875072739396 6.261185940753462 12.846321004971207 0.41749573132960355 -0.9704921988033994 -1.3072552908686261
P 1.9627323477550187 8.651141175778625 1.39333252438627 2.3432147181369 0.21558982828729967 -1.0049454953852628
P 6.219307915906129 8.06159678142664 6.063007677073483 1.0106374035637176 0.005823805770628679 -0.5885116296612702
P 4.7659148939332745 1.0534547141619715 12.604597023522766 1.1570056785500333 -0.11391915331867476 0.4332758769819957
P 4.078392408136613 6.526096379567085 8.399078585254202 -2.103002720425546 -1.9117226725282046 -0.9983261902965324
P 4.656042827445432 1.2294909799759897 3.9433636332768214 -0.6554592993264131 0.1139770031398037 -0.5232619165238407
P -0.06905933597796261 5.907147687431316 3.8389955875324886 0.09520563606957151 -0.5399373202969927 1.1890452234840811
Ni 0.7483484372226578 0.5120315492268159 4.883702387224404 -0.34092750785556125 0.5712500143673452 -0.6278621064344347
Ni 1.5778857097247228 6.668733493831868 5.014693732779749 1.145648087445369 0.8077112867870153 -0.41269625305843116
Ni 8.022064940536795 7.914611527008987 8.861405457358519 -1.013501869595706 -0.5302928552286932 0.36763252795057333
Ni 8.789393915389264 2.455947320470288 10.5721658008423 0.5345290047972278 0.8894643968961069 0.2000444243535329
Ni 3.4920275912714156 4.825031482761674 4.901375765220759 0.4840225114072437 -0.08216731482837461 0.4316046599271599
Ni 1.660092734489927 1.3437564797432937 7.213250179313285 -0.5758332628626535 -0.2096732056925486 -0.39052588760897905
Ni 1.686371806538837 1.1571578568079284 11.92300521972211 -1.0696599048445126 0.48913386449188023 -0.543481071784193
Ni 4.170391806871094 7.116981450466204 1.6053976606794778 0.20741423445504278 0.3745775918098388 -0.7363875995413641
Ni 5.603602211634375 7.968990454795821 8.342121572701728 0.3630577640956973 1.3712271657348964 -0.14448828435478342
Ni 6.6779551744060806 0.999447190013195 4.685148190593709 0.4828014945159492 -1.7455648736197873 2.5416745716121327
Ni 0.8779809889802311 7.82926115925827 7.201000200295105 -0.9971529959240374 0.5998674209937217 -0.11882404681945986
Ni 4.980232910343188 4.887825873469375 7.1772946836991744 -1.347998277113943 -0.3648449379031071 -1.5004045307642224
Ni 0.5009999553139713 0.38022039808014824 9.56226133376145 -0.046425381342074884 0.47173932316451667 -0.4277683169002052
Ni 4.67942313939243 0.30313240248241696 10.447737429330193 0.1561171268429634 -0.9185852255214632 0.9404465443709288
Ni 8.258757761483354 7.86794148936818 5.048236916471548 -1.2502295083028856 -1.3594371150785038 -0.07642012793195227
Ni 6.9577761104939215 6.284937656338515 7.193098361429794 0.9407615045081863 0.5722727992049047 -0.029517035622510453
Ni 2.379528757283593 5.4023376743083915 2.823906869181874 -2.674109010126175 -2.3723080359584308 -1.5364190011856185
Ni 3.5305267488749545 4.386349434463653 9.230580673587843 -0.9570376159603905 1.012099847041857 0.0013356880922880223
Ni 1.1397562375711285 3.449352407396057 3.9196979746322933 -0.856961024951763 0.589836519120281 0.7514853744147509
Ni 0.13712403489595615 0.31858913486333906 0.7424259079894358 1.5062306505276963 -0.2794246633550736 0.38487383152952426
Ni 2.090703547629183 5.798978642503348 7.245216256337136 1.6842543476357639 -1.0119442953005993 -1.0292755874901949
Ni 5.314061370579806 3.0823874957444404 4.976006155769586 -0.8727280579780323 0.9093539367311823 0.3623211430399889
Ni 4.176189327074921 7.21067481213524 5.900832919721803 -1.595200590100201 -0.4000096587296982 -0.1607415129888522
Ni 0.8993928616455218 7.432239728799938 2.732862249555961 -0.36142974157397106 0.39027520505075364 -0.08664283410122499
P 0.14498148649720552 6.24844951355568 8.478654079364388 -0.815410455203486 -1.6200089073931327 -0.9506414826260594
P 8.698698958700644 2.115442653373951 8.357673420648494 -1.1564804021741826 -2.5101271358231547 0.78725790402867
P 1.964399134813619 3.5146832131929333 10.499219408740178 0.14945719832428453 -1.1706240406644162 0.6375194270185408
P 3.630026689373137 6.661713059210046 3.540248465566747 2.64143568826287 1.1065958586389135 4.133147319238785
P 7.011167648121042 4.098665611599371 10.531953657191035 0.7773373024808484 -0.19705654536980255 -0.4120442212967291
P 6.333682119177256 7.419168132465372 10.353670852298034 0.2726348941267498 1.2304281573062423 0.2860187716328236
P 2.307295278994035 8.766964759100707 5.9047045761829215 2.918576954900406 -0.7188045963522782 0.5372003809818038
P 7.085692958616175 4.158153604065828 1.828691868917473 -1.3134796745117832 0.9136973013015426 0.6319599306528922
Ni 3.12088665334798 2.164957099364762 0.2778633671565176 -1.4948782016293545 0.5629792897181207 0.8439980370331917
Ni 1.2721752224766665 3.398143998470691 8.387835925371435 1.2349725821438151 1.3173514987623636 -0.08115404307251184
Ni 7.641955963548064 8.802909384364437 11.568494106158342 0.3239158037889131 0.24401877305195394 -0.2177135594985218
Ni 2.843602132349313 1.4396963804913132 9.280153094780694 -0.256773501614461 1.9143703945636965 1.1225683228077699
Ni 6.332087801121203 2.4197852881989173 2.933777123944652 0.657258557318681 0.3738833939562916 -1.6123902145056102
Ni 4.08258655165907 6.789022979435961 10.642686293084132 0.8797883072589235 0.9526369157895336 0.055388246962317506
Ni 7.027346352939846 6.032500944588439 11.876403121771192 0.9283078521258658 0.08743601942648167 -1.7690305608418955
Ni 7.956462375980365 4.268686950201919 8.34767632174702 -0.780973613681855 -0.15099420379410128 -0.057129912243772576
Ni 3.141766784707076 8.285362944043728 12.663583168146577 -0.7903869365759549 1.6512627232010917 -0.7498406397224764
Ni 0.23570996009950368 4.9826243874272675 10.276043868493852 -0.8111820189444353 -0.821544850235998 1.2080366769849196
Ni 8.475757130987537 2.6385510896402042 6.382451040304356 1.4486615938639762 1.4686907446007091 -2.409843313899727
Ni 3.900707472514632 2.606492614638104 11.427294595731603 -0.9269919615279197 0.4589912794702289 -1.3372526085616645
Ni 1.1586706472361143 3.8383569544475353 12.963523311066764 -0.32277397687498605 -0.9837284949880155 -0.7746042198204015
Ni 3.112570835305615 8.482215930839613 8.16367843014059 0.01883615886989659 -0.7815163735592024 -0.11854559634709261
Ni 5.3878710496747795 8.090131451179852 3.6115371292355882 0.07187904552848912 0.3872135354062944 0.5086678207597498
Ni 3.0362156824961493 8.776893012449761 3.4462471106368824 -0.8555762287890942 0.15991258932965363 1.0979448678321349
Ni 3.960440047864688 2.764103636554334 7.362405880357246 -1.4835275525032257 0.18354128449218712 -0.5187812550446679
Ni 5.806723767150649 5.456462960586309 9.202036039346783 1.1119545518476655 0.8464153882254327 1.9724192190773127
Ni 7.920581161093866 8.808571025188487 2.733538928867252 -0.234005611790326 1.110481823956881 -0.061339579449745975
Ni 4.145607407999734 0.4967967531661967 1.4136836320267667 1.1536002524129099 -0.34573007145052714 0.7502648717440886
Ni 6.055663849527792 5.838546717894468 0.7162555394443476 -0.11282514892354763 -0.5067577482212305 0.4082176484617873
Ni 8.13257111079693 7.463156817011909 0.24866288844239795 -0.48599686152479527 -0.8960119682066375 0.7434712458610229
Ni -0.07309676528240906 5.343012737097667 6.225924335838748 0.11098243928785402 -0.6642051638398432 -0.2213583553399607
Ni 7.1379431094531665 6.591255071482911 2.898656833584906 0.31352726146573745 -1.909490440763576 -0.2025455935088318
P 8.487651106030702 1.6422925357391143 3.7083095176503758 -0.09000120905049662 1.634867826782836 -0.49279768649671263
P 1.8381490737499657 3.4889657759137696 1.7491960907100899 0.07117636303450967 0.19762861582318866 -0.06767863429389634
P 4.942177625380254 1.1357704424309976 8.451010778342514 -0.18351917300500006 -0.25422502416099446 0.10662519076042282
P 8.686741573280251 1.8906800419718304 12.769887042121471 0.5282922798588966 0.8907437778291628 -2.0792668102611866
P 6.240849326913475 8.065310817807218 1.4963879753219556 0.37602795110312015 0.2354533999804461 -0.36616391382484687
P 2.1302897402709395 3.8383026026956246 6.276279422259113 -0.5239707696654072 -0.8751752339669443 -0.20421861033588054
P 6.78325263510809 4.170255927491318 6.216431802367513 0.4601783577997945 1.0536668718503661 1.1941380646259563
P 2.2987167608174346 8.671695196626255 10.417376540712775 0.971624769745946 -0.8379436033089955 0.6296395100498318
