# total energy = -340860.0523097273 ev
CRYSTAL
PRIMVEC
9.38612164438831 0.00000000000000 0.00000000000000
0.00000000000000 9.38612164438831 0.00000000000000
0.00000000000000 0.00000000000000 13.73753779027845
PRIMCOORD
 96 1
Ni 3.222996997664975 8.850887261219025 10.020681454860409 0.5517787930166109 -1.2511905866645743 0.21523733004388734
Ni 6.401907382875396 8.660808915718242 4.923437444753394 0.49741924442912394 -0.6024367243827947 0.3276050797150422
Ni 7.375961522556857 1.4120481110630492 12.917338027474303 -0.08151631150793703 1.5345292403620734 -1.6240126292358872
Ni 8.252831760736411 7.237572547885802 -0.1988553076694554 1.232393251452413 -0.7517239727881182 0.453930834228186
Ni 2.813574379979717 5.110930852406618 6.612412744489622 -0.036074377125054 3.864640845458112 -0.13506287727582547
Ni 5.861726707258608 4.706201295446776 10.4218039253467 -0.7761319693188375 0.08374777194161706 0.8975654287366864
Ni 4.112313232888331 4.024881511573839 5.260487434379873 3.7438175088204364 1.0407910443289625 -1.3283722753528995
Ni 0.248117427491998 8.770898734215042 1.7805772748113258 -0.11134984992960177 0.9517732822376574 -0.8040109551172927
Ni 6.189086465099248 4.950512650690462 2.3483221732927695 0.17577809560700053 -0.7558431371628144 -0.30242318113277594
Ni 2.4910015440790003 3.03707670396691 13.679757655131004 0.5645630892654728 -1.5027277795807603 0.8331448963687715
Ni 4.583721796634879 6.4537281594054345 8.877554170872981 -1.5160049563056408 -0.12284602349465941 1.8157439057380342
Ni 6.620848051837484 0.8348100893462348 9.925673256310807 2.1281740774848505 1.174378622610842 3.223605949087145
Ni 2.290973909840336 0.1751957113283451 7.383967884154416 0.14421137654431293 -0.6463586225767256 2.330157884952942
Ni 7.6714929425577285 4.855281062450328 4.561865274224473 -0.655672957999116 -0.12479903345597217 0.0692539492008162
Ni 9.157775888175403 2.2833711514651625 8.137265140373051 -0.09113300866209466 -0.13234213591055272 -1.020389597854475
Ni 8.361053741064495 1.823160230609457 5.375869148150651 -1.4607815170559617 1.2950080980701568 0.49272466716693203
Ni 2.2933392124459453 3.1462279103186264 4.553965914411454 -2.5614381273923046 -2.292566556962729 -1.8241964073807615
Ni 1.770382069691433 8.166723482546486 5.432729333287642 -0.4034353965817955 0.8420049178625627 -0.10556281093417949
Ni 5.535399422777559 1.1289157574987256 2.854069862367183 -0.8434190246012699 0.7321403942292358 0.9448084208840503
Ni 8.208698217674604 6.721927193741486 6.211290274003335 -0.9863332796007143 -0.22322291935252525 0.9920511559210978
Ni 0.07938312217040508 4.24452613964474 2.9462068463649778 -0.3867386526524049 0.26150947363754967 1.7803184750508887
Ni 5.78689116093113 7.004055232310572 7.137227400679254 1.315717048482734 -0.49491036196434124 -2.2389279457016666
Ni 8.13730737791958 4.846570741743957 11.821123517110275 -0.4503971100433147 -0.2368875613238114 0.681144105687027
Ni 8.643866966499491 8.941998342142243 6.376525433248058 0.353309683569998 0.7801758003709081 1.1468228244797605
P 3.9625107345330655 1.3361894774974314 13.574884642936576 0.2188193909681909 -0.7685706120318119 -3.00597363644852
P 0.7149023878118659 4.705328386151848 5.681886743036392 0.6816146175655422 0.23942626858526506 -0.8397045518641602
P 8.469923363772686 9.753963550489301 8.620346284755852 -0.12929563577474507 -1.2068922789678311 -0.5006732325900474
P 0.46135602767270717 4.578212143343241 9.356417192275778 -0.8709516828039001 -1.5488194317325004 -0.2159757508718087
P 4.799780926311563 0.5107289037283695 9.063834891634757 -0.5343942789915763 0.8508813944165862 -0.6510269745866722
P 1.8756286495196035 0.7435554007648184 3.9903152421068624 -1.7513614256969063 -0.4566952843472006 -0.6689640186810671
P 3.720057831336644 4.331056793299953 10.645725808962743 -1.415166290320008 -0.09087872655944348 -0.9468928142169047
P 7.883760079168276 6.99523227814679 11.438272070640176 -0.2713097475574231 0.5487888571503516 -1.852145841405836
Ni 6.264241139556054 7.199427350309622 1.0438972080092412 -1.6835218403451135 -0.12178441499936447 0.3394743203488024
Ni 7.372019351547507 9.024868408431633 2.677267247046456 -1.4348601692045095 0.04363547730176356 -1.0225678364527162
Ni 4.359543671903226 3.5452413193149126 7.8751530057978645 -0.009090906557674666 0.7218336129865891 0.5370939373109266
Ni 6.500180074465598 8.761381207063899 12.248182657001644 0.45205547158234405 -1.8953195485798324 -1.0651589316503656
Ni 1.7889572040426278 6.89608667726166 0.5741312155165894 0.942506512223751 -1.464397002321362 0.533563555560165
Ni 1.8336351421485846 8.353413438203518 12.629041429887733 -0.09115332037706882 1.726589618068865 -0.2744657766879015
Ni 3.2119683049602483 0.6800742455564116 1.6958299842317708 -0.40367965138211764 -0.6550530650269298 0.9895425305666312
Ni 2.242766790068867 4.332136197266799 1.9865857456384597 -1.435430954106315 0.07587762516492093 -0.10564585756628903
Ni 8.569979418438548 5.025498374961152 1.0620884499930974 -1.037555053890168 0.626110670960967 -1.2563664744385588
Ni 1.2385738144087866 1.570617246853392 6.236264865959707 -1.5011648059690146 1.2130395295161498 -1.6772851154067823
Ni 4.190133565837173 8.324447867406255 12.878185699066453 -0.2630688477048695 -0.6093247097518797 1.4826767744671563
Ni -0.016943826443040527 6.968941751963012 4.34213335522408 1.97167822714623 0.13567582826947602 0.7298544264085366
Ni 3.9304665158999272 5.106998067518719 0.7465007656760893 1.0638828931514193 1.0739022250606343 -1.4608995306910646
Ni 7.59562492287066 3.859197695723766 9.160602049344247 2.472164540536452 -1.1606710432167624 -1.5158100666860155
Ni 4.734472293256679 0.7267373483492191 11.49212306524003 -0.18122574898513305 1.1176492882395976 -0.28218577103997855
Ni 4.389466627088476 8.521387467687594 3.6365044554056345 -0.4012625573001928 -0.23247966206410284 -1.3939924844558702
Ni 8.973873610589266 0.04412415694035759 4.050334795724203 2.3348115816748694 0.17032658557412603 0.8919678800442509
Ni 3.599802843308594 0.9268025270736866 5.133937174694751 1.1620404127604633 0.16453697547554244 -0.6055243621691829
Ni 4.512180778936644 9.144776109966001 6.932593058032523 2.0932718662910275 -0.18965871024383466 0.417062757557243
Ni 4.058530756975069 5.567997422576295 3.0784450956493035 0.7071567277007047 0.7724547775775664 0.5861991794780098
Ni 4.764451565170634 3.350075695987779 12.227040418433647 -0.17210553185141975 -0.41145183912836875 0.7073282202815625
Ni 6.937770442624801 8.181581712803151 8.9888144387147 0.21335399697824547 -0.8213124225102179 -0.5182243540999333
Ni 6.089715597299299 2.813827805258889 4.315070351244898 0.620392537530267 -0.09576048013177701 -0.20818016608678985
Ni 8.409457969386432 4.470872458431535 6.801317824809052 1.0667625286920595 -0.7437790069094288 1.8975602649848933
P 5.988307941144518 1.1472656249351005 5.92244458831189 0.65890432045222 0.8071091344266422 -1.1784700190713961
P 7.597689869589842 -0.252408762219318 0.4693426784152194 6.79680299524212 -1.9791547380289336 -0.6363246353794912
P 3.106796814103684 7.576195651467439 7.408832658489812 0.13769620113361447 -2.08876626511119 -0.4464478955875795
P 0.2243658471606696 6.694200590975731 2.0629934673089516 -0.6237354858605709 -1.259929766309785 0.537640810953332
P 8.315887724643096 2.320727914839471 3.1622434493501794 -0.6572868394534551 -0.11578063200744576 0.49204846703551386
P 7.490800718507777 3.0521320427740433 11.030541770652503 -2.3061219270496607 -2.739660827885056 2.076156546766979
P 4.730623983461838 7.26543994247332 11.002366511281396 -0.7658879229933261 0.5421849786805889 -0.4792891104873164
P 0.9612045394152732 4.561542391646564 13.616028706316296 0.9150661566246112 1.902258956012143 -0.0016966709761325617
Ni 1.6892484358704478 3.753876026923989 7.727420147222507 -1.4173866950100944 -2.1381147336373307 1.57603995801135
Ni 2.0842258126428765 5.868775684468182 9.693866092063917 1.2444270426884956 -0.8393075735360577 0.12489185028009459
Ni 9.004331574697213 8.882396470929464 11.874699498351621 -0.0709886725037358 0.2692307535412073 -0.636030244067524
Ni 0.5952171373558818 6.119281879869416 12.028724812747615 -0.5253517091733338 1.0941337216161608 0.4944051401931485
Ni 1.6387792608293283 3.7514919520754777 11.66332028883032 0.9342144474182879 1.4278608550685408 -1.2483991399623662
Ni 2.3819629711846937 1.395988457260677 11.351945095820444 -0.7310062806247927 0.17518005701168538 2.055803179921608
Ni 5.910966300389668 0.33565051891815983 0.8031253591646638 -7.050064627048581 1.6459328263477462 0.3721173031948043
Ni 1.0252554321957454 2.219845881485937 2.3668400523031146 0.2775475009370188 -2.011738842612542 -0.41548692842969087
Ni 7.268922193531577 2.889310993966474 1.2117501565266011 1.7623546914836166 -0.07516183004481894 1.230937235732177
Ni 7.660267141302535 6.662193916828396 3.061795054807674 -1.8643889204392474 0.1832774893078392 -1.354032656233481
Ni 6.282778729421445 3.9182645580138473 6.402269687163398 -0.7247376740072615 -0.11753078192933307 -0.24198965843706713
Ni 2.7935350106821923 6.159144737671097 12.017350710773497 2.81664865539502 -0.08237300308127748 0.10449220357782005
Ni 2.0309126428021553 7.304392346494269 3.050475392337972 1.444038493269668 1.7550563580499903 -0.6480280398593484
Ni 6.007145886896335 6.203146875032593 12.33541539254138 -0.07399557765085965 -0.421505623819945 1.341962612442824
Ni 2.0094371969226534 5.354923079520976 4.08395025108821 -0.8648630534076589 0.4513617879494291 1.946856797227176
Ni 1.0734907103315672 7.372103826640565 8.206571322553843 -0.7382159109993545 0.8925332656294177 -0.4433443169615914
Ni 9.172221129088232 2.8779162425251648 13.44876051316532 0.4653940976727792 -1.2277858345873887 -0.39126482265753265
Ni 3.2538961094811114 2.145930175060641 9.389813012397836 -0.19262807728480374 -0.23335563691115296 -0.18576014652037687
Ni 5.1479778737730495 2.7437134780211805 0.8529515848864014 -2.251504496815097 -0.34604863113221046 1.1677240934088018
Ni 0.07941128053475756 2.6232801536855646 10.475037313155086 0.34413470193894924 -0.6817853388154516 -0.18064313700878568
Ni 8.382050494750004 6.187725477488878 9.2790333139744 -0.11527129647119502 0.2468896668418458 0.2861750947050297
Ni 1.0584916882531388 0.26234491038716795 9.671226767124512 -1.325927927577465 0.707173439871253 -0.7526896791354973
Ni 6.2664187197326475 1.8403649912288305 7.960202529488137 0.15850259635600444 0.7972502393546914 -1.2757441076342222
Ni 3.768105387043449 6.938098956875581 5.245170222784261 0.1588412106423458 -0.2317376416917557 0.8361435739857792
P 5.935454691254886 4.514546081542253 0.07072160929557803 1.3274934722923717 1.3865303717508701 0.16487353287935477
P 3.1958711066720724 2.512542692808658 6.449801006190407 -0.35775897759060327 0.1579040435400571 1.8244352628644454
P 6.109257502159928 4.908819499205869 8.30217084675485 -1.0297260447640524 2.037980292807574 -1.8799350957039624
P 3.9557621132099174 7.765053801179614 1.5062800773686693 -0.21202139420975097 -0.6579280725818798 0.27468303490503015
P 1.3621796477947832 0.7825134364586386 0.40744590050771295 -0.27331083714785187 0.5472554512249608 -0.9266134951425784
P 1.3271694147831825 7.737655712664638 10.589223235053028 -0.3885589936905953 0.11281177918710893 -0.055384133197259454
P 3.898722653153216 3.2043373882207224 2.7511341456402074 1.144468722425287 0.24284275046598178 1.0221248353780266
P 5.691058860918143 6.099261282814793 4.765414581231489 1.213556064141252 -0.5658172733875481 -0.41775335586636436
