# total energy = -340863.6847928704 ev
CRYSTAL
PRIMVEC
9.27136147165571 0.00000000000000 0.00000000000000

0.00000000000000 9.27136147165571 0.00000000000000

0.00000000000000 0.00000000000000 13.56957467734775

PRIMCOORD
 96 1
Ni 5.834041268760315 8.117883545261593 5.716034453272597 -0.44369218721931325 -0.04040540040024009 -0.0745812749510006
Ni 6.144381550092199 8.543568834213051 0.575402941957159 1.5554775604789663 -2.0943941528209287 -0.7914570297116821
Ni 4.945177305212068 0.3478726066952447 3.940726351510779 -0.409182840588534 -1.6292062576216844 0.8933722165909452
Ni 8.726557694866337 5.2992135129896605 5.860930071195673 -0.05250604031851602 0.4107530132891313 0.050077376272365366
Ni 0.3353071305416552 4.938844965351593 12.35683436298029 2.5300778679134686 3.125115471618715 0.0030243886486205976
Ni 7.326164906834951 0.8937592423862135 7.977851683547602 -2.141191315680125 1.4444514124373704 -0.5933501887004943
Ni 7.464252564055907 7.821997316407717 9.726915342493834 -1.6249937622022337 -0.2378062164833388 0.822788492835112
Ni 9.404220044912945 1.837843434644547 4.617508849357155 -0.7538392193589082 0.7775489042710221 0.044677545413032725
Ni 5.084229184022321 3.2439102958744845 1.051691321623804 0.671630766879953 0.1917734425939923 -0.2658672363856131
Ni 0.7857172861694162 0.8346246448780418 6.74717209372995 0.7813664782448995 -0.713881448019048 0.5712176184675131
Ni 5.341463107051424 0.055578103261497876 9.49957043446063 -0.30538509197457725 -0.42474572802379756 -0.14784485953184215
Ni 3.283461923758505 4.232422852131934 13.429305586989575 0.08776332085891338 0.15587158649106056 -0.10997945194463639
Ni 1.423107623548463 3.739019539255279 1.622391829060856 -0.05289761932997987 -0.16735901830536987 -0.29046035234394496
Ni 7.483703880347674 6.262174197130757 13.049304004375603 -0.3393959017023832 -0.7260815896296656 0.16657148940706798
Ni 5.491037981091017 2.2151044028181714 5.45076225987888 0.7036011491389625 1.0428630963666428 -0.37155885958817303
Ni 7.258836280090047 4.610601685087676 1.8244018148352985 0.12555288090286118 0.020821050510409302 -0.30303664634705874
Ni 1.6375263994682345 9.037760212811726 12.045466814801348 1.1190556816688213 -0.591722166178768 0.6310685291868745
Ni 4.34021170018154 2.344616050711253 12.205560975525707 -1.481218701864391 0.5034225132004104 -0.32481363301283417
Ni 7.978229027958029 6.08164224725789 8.331827627475864 -0.3638720324668765 -0.14332794549809508 0.08452321665506088
Ni 5.972954077149035 8.43033769700078 11.742893152944017 0.5825348432525451 0.8773984668705084 -0.32599248381228374
Ni 6.319369225826613 1.3941624331467022 11.328165686073223 -1.3879817594854162 -0.8643228646334726 -2.0704754372218024
Ni 2.9888551427827346 4.740493458799615 8.864867864761747 0.04611042120481736 -0.5257368604268946 3.3360878557386613
Ni 6.1840537056748826 5.699532357053477 5.789242050303778 -0.7973276295598462 -0.9260805054572437 1.8368377502938558
Ni 7.362629171360935 4.909769975889734 10.623552415469637 -0.3123221854140428 0.1680853549484331 0.6252115561854652
P 7.467061786570877 3.397620197114329 4.037165198890996 -0.30279162021578815 0.2690124668828141 -0.934710670328416
P 8.069876435748357 0.7189801722841004 5.855841020903704 -0.6523886308208894 -0.9882675205089496 1.2980674537217707
P 1.4934123573141753 2.982559888368001 13.102306523430308 1.18598766760468 0.26832161146337663 0.8852747842947915
P 5.463826535277702 5.42930925665318 12.807765569120729 -0.01778354923566615 -0.044860607958116284 0.45766021936363116
P 6.497184666798866 7.471651110481469 7.685359700115278 -0.4735509224519586 0.2534056135834926 0.43536515541085663
P 4.284175591665127 0.42382638098363246 6.082901298140837 1.1655409697145538 1.0385392721803082 -0.4212302586713713
P 2.15311608026014 6.040180718918148 10.571431602887454 0.5788481384295773 -0.5598507713914681 1.9050666006642674
P 4.682065339032832 2.796863790175538 9.644941673225349 -0.8849060881014632 0.16736981693864722 0.8060824929343406
Ni 0.34897868011450484 4.602721027867466 10.156175668414837 -0.12898890316760364 -0.8665774649956043 -1.0671358528710784
Ni 8.524747970498902 2.4988451481914877 2.0616930394165514 -0.5963524658619278 -0.31514319980260563 0.9151561452352561
Ni 3.083302501726597 4.257270100779185 5.230799209820655 -0.4729716529097209 -0.7382871305569221 -1.5726119061664077
Ni 3.019422821435715 8.085498679767246 6.1223481596406355 -1.360113315209922 -1.6174357473493177 0.10365968037419566
Ni 3.586644714062152 7.4664869621618735 3.6948591176016503 0.9654533508279115 -0.28817489874387786 0.41026013281311285
Ni 3.2151041758942562 0.41225479477593296 8.043812784480762 -0.7759957008512893 -1.0122047480508374 1.2339377131213976
Ni 0.5386113983724993 7.0931663225983534 0.1361842467182404 0.3552099859165044 1.3437819250397502 -0.49311393218555083
Ni 2.558858670763749 1.7208203106051403 10.188063588936238 1.7980981676318128 -1.1499698547491743 0.23215313196261955
Ni 3.1279255643158583 7.9559963032356 9.810314020014962 1.1595032481609062 1.0855063849584659 2.0584755845474483
Ni 8.169042917662912 7.737692826874336 5.120723116904901 0.5932823115770364 1.412147300988026 1.572973917491517
Ni 2.664839603333425 5.775511164017741 6.999783315947291 -2.281932474287651 0.7798171314799086 -1.9361211559772267
Ni 8.891235616684426 2.1102823904279377 9.485783920005979 2.2503814389542467 -0.21927216223489335 -3.3457382343442315
Ni 0.6829006692576901 1.9090660331923779 11.542049504438165 0.3604586359099534 0.0023096219697831192 0.7379978814512774
Ni 1.3983994453227446 8.004986177061001 2.8554866085324675 0.605698425853202 -0.5329999697472111 -0.9218476983228188
Ni 4.231718228662832 7.292927076088533 12.635960751767138 -0.5631500109680302 0.13714367106425415 -0.087942526749255
Ni 7.604315021262634 0.5410664548806307 3.737536121425592 -1.6277031907135968 -0.5214572592149342 -0.013850532729847116
Ni 5.259819498250044 4.477418578066121 3.15536044993977 0.23634197323298653 0.6065900844295359 1.8125323407792722
Ni 5.623859505016586 5.308141834052087 8.67589712171025 0.9840460262284344 -0.8953704779678967 -0.02718607349648866
Ni 0.4656188969266235 1.1323948143756195 0.5364326284351469 1.265054232020544 -0.47729727686826834 -0.19894399220050255
Ni 3.618732895990562 2.3357433578174396 3.8009327637856827 2.156480637739028 0.7784806720566722 1.5470728813550387
Ni 6.37271663952672 3.319388449321229 12.52855759235325 -0.5631962908249333 2.235131454773712 0.7501913381936758
Ni 7.219952190229385 6.120683950262955 3.817053807049802 -0.8757228789402982 -1.077820586278434 -0.882492593563964
Ni 7.470241863543268 1.0394123305385725 13.338213533749235 0.660001924391773 0.9516095029662838 0.17338619833605623
Ni 8.703434919446096 8.630237520912495 8.080572805436542 3.128677220828044 -2.5787668484787396 -1.1642759869592012
P 0.22492044701780936 6.438858532007874 4.0519289148409525 0.25677581560730617 -0.2877385825374077 -0.8557605768857585
P 9.119607791564688 5.251308388452217 0.9467765956192148 -0.0961047508450732 -0.36591683081104726 0.37236335776733936
P 1.7193090786911471 2.29381826140592 3.449549092514798 -1.288332485822194 0.42048566719586294 -2.1204108885996638
P 6.467219626639195 3.6483734384999886 7.132358221658675 0.026991440987179323 0.6798829795864161 -0.9708734934022182
P 4.081142047588201 6.168505632547479 5.403485733646766 0.6626779285620393 0.3700408802817498 -0.37813214193031647
P 7.920922742924946 8.288458052952688 12.593800162775155 1.6973775152812833 0.29117743301562754 -0.13495231983989017
P 6.157908466426656 8.063516281803576 2.9038070900622235 0.5385471248176854 -0.9745087761619604 0.5196474596997052
P 2.308031258486605 9.117206508952883 0.873482774926684 -0.5078468675203512 -1.1503897158954122 -0.5180058103312241
Ni 9.35517454291893 6.8574883149068855 11.014912342978292 -0.17809234556247394 0.8763157753292907 0.0015845708783004968
Ni 2.385345141497587 0.215473856851136 4.370569846066077 -0.20044243112289997 1.5564340108549648 -0.1544417960230695
Ni 2.292891125262366 3.8858315475870806 11.226407858637437 0.166725498486429 -0.08652404913517357 0.09785952875265082
Ni 5.797233963861214 2.1935392161191016 3.1260230809492855 2.626961405906095 0.938815693635725 -1.6573608656790295
Ni 2.8676691774587697 2.0068325395301643 6.459728366599278 0.527521206020827 1.4348038620452774 -2.836426609352896
Ni 8.68714513740385 0.0816055962194939 10.802453532865993 0.3523177519703739 0.0982513648744308 0.5584559479264705
Ni 3.181337877546014 1.7882601936872702 1.5532960808263385 -0.8361762269959278 -0.18033563307069586 -0.6879837543166797
Ni 4.3137790487288115 7.091840517913071 7.866418263317684 1.1435222993516176 0.9357134005613176 0.7110308659441303
Ni 4.54962394092612 4.62092998172687 11.054142254620498 -0.009866094160802363 -0.6629347817678518 -0.8491908940880407
Ni 5.645573033498624 6.628837999183557 10.533232666636879 -0.9157202452688422 -0.13695418076126736 -0.042140123703159685
Ni 2.8646930704379607 6.401290975471059 0.6593959137463049 -0.408704872510851 1.1659423189180307 1.0901181726988647
Ni 6.883142171999029 3.038957579980401 9.127343815546503 -1.5317241668131103 0.42136652713891953 0.25417514475966546
Ni 2.168636339303237 5.74067865910441 2.9414358375845127 -2.393389539219078 0.5439330717199471 2.0966520956171695
Ni 1.7504886671988737 2.7193181231286676 8.208914407516458 -0.9034915644131343 0.508094464754783 0.8867361993316665
Ni 5.381941871078999 6.464039549666804 1.509737370529877 -0.2866772311524289 -1.0195236503097538 -0.17952496424394243
Ni 1.5314156678384603 6.77138518125501 8.801347913294563 -2.3607434710492825 0.7867169439235354 -2.327758017262197
Ni 4.285594109964765 8.780683902927029 1.8251481594308598 -1.7923347827854745 0.3559309232429289 -0.5498399241226853
Ni 8.5696677166541 3.355166633100984 13.105875070446848 -1.2620954065025358 -2.9577574817546095 2.8443759461069593
Ni 4.288264262058201 4.091961726383477 7.1874505055809506 0.9085982895120803 -0.9268276680359135 -1.327863711147597
Ni 9.589739987238133 4.234508908454931 3.808531571618252 -0.054740843186305725 -0.4930774225206605 0.05845377326151868
Ni 0.43498353733516326 4.800924192636476 7.975788805628195 1.6483162389782577 -1.269055125649821 -1.559574099145843
Ni 5.063961987924227 1.8262264187658135 7.672847997858015 0.46751937154589807 0.21148814741410027 1.5696204276382517
Ni 8.27678540890534 7.184220363256808 2.0342423924781996 -1.090023298992213 -1.7084147469320512 -0.8066098261927205
Ni 8.552682582504188 2.8338750650262203 6.820841404560619 -1.179852758351536 -0.12271926810880801 0.7366166848330347
P 1.1201566172807047 0.5074930008502473 9.014363005092994 0.29667599423635355 -0.6333328997410189 0.07961626627174676
P 3.57814287562576 4.775529933664527 2.0118251676632037 1.4365828083225711 -1.1728891825495091 -1.9469755821932275
P 4.008139347644746 0.3388274664787303 11.751224398329994 -0.8307949080793563 -1.8822184924215004 -1.2299085373573464
P 7.94222833150382 2.608914751154238 11.153620254279287 -0.4546990798527782 1.8124876035842656 1.4975169248037823
P 8.976541413252844 -0.2324274683721674 2.3046564829240683 0.5781688529743656 3.6497038202634626 -0.8385568114129622
P 0.881622103130946 7.212637086056742 6.345350361977432 -0.4767383190410048 0.23416759128948705 1.1047762889316715
P 5.792690996757799 1.193548714404452 1.2057980371330899 -0.6740602022570521 1.3846131001234991 0.19683954426299002
P 1.134471599337181 3.6482436394398907 6.149338019915641 0.7884910051048227 0.27630848632359506 -0.36830024344155926
