# total energy = -340858.12652213126 ev
CRYSTAL
PRIMVEC
9.34545467454649 0.00000000000000 0.00000000000000

0.00000000000000 9.34545467454649 0.00000000000000

0.00000000000000 0.00000000000000 13.67801756923466

PRIMCOORD
 96 1
Ni 6.567966880365432 7.647768754101645 6.758267440111181 0.9469542635824595 -1.5674352470614747 -1.203958650260804
Ni 7.750138865011925 1.3591468605190486 12.931033731634738 -0.2904737220803836 -0.17823452756729302 1.0844447764631708
Ni 8.485084114437363 3.931109451683751 8.860401313834952 0.515352688979093 0.19900467023510887 0.1774444275658299
Ni 4.6092156455535624 6.739502701595868 1.7665572859415608 0.2931289003150436 1.2795015177941256 -0.30725505530378056
Ni 2.9399492158865557 2.829999941205212 2.7320334085550124 -0.0850142973588665 2.5380994526663643 -0.8662460497981145
Ni 7.698766900462554 2.127670328723072 1.5737241079689823 -0.2866939433229772 0.43006379780260123 0.013181788797596653
Ni 9.197151690728933 1.3569787150259698 9.233605505922263 0.1420709331625424 2.361435869130617 -0.0434740120232348
Ni 8.00349414224195 8.858678011986145 5.419503950863487 -0.8051952052333812 0.629102149489123 -2.581917478292579
Ni 6.389365895373068 4.479902588709894 7.811365611554622 1.2671926185197853 -0.7710923500124011 1.5860433490809653
Ni 6.636282154306836 4.897186487035155 10.628653865261189 1.1938249042609117 0.37199466157401095 0.23794762715720952
Ni 2.720359066529349 7.855592975977015 0.3494405698467896 -0.23043974881593865 -0.48880604883881623 -0.5390032385184975
Ni 8.635153426195375 0.5729754356377407 3.22842284283163 0.49921593131823055 -0.745749243261922 -0.2781856487416499
Ni 5.595114390348157 3.0348523084823102 11.41211697736709 0.06654374935850475 -2.242835251175873 0.9172703633647815
Ni 9.301596492585178 4.373747568641438 3.9828879435130746 -2.119957346002013 1.70298560549668 -2.193109858926287
Ni 1.7557305766582343 1.9578914529784073 7.788960818429161 -0.1734918706759851 1.036193654766267 -1.0751499814248064
Ni 3.927726397078171 5.69248468298776 13.406249169171405 0.24121755615773294 -0.8899873592791124 -0.3097148296981827
Ni 1.967377089510627 8.642966226334227 5.548323567698386 2.5873731020905115 1.4716860797836073 0.1981675190457942
Ni 6.457802660225723 0.5306480021582044 3.8687995669399857 -1.7428675292932823 1.4234933221284645 0.47823830062529893
Ni 2.0552524001632984 6.651496554577235 7.157487509024494 1.1275763175453226 -0.38107785482220174 1.7129105779198759
Ni 4.413699387533299 8.168880654272188 6.5468872727180685 -2.9595994200593547 7.668679246742818 -0.7726005591268114
Ni 8.76583091942693 3.4071845696450334 13.309231200174425 1.5713152988421712 0.9751813767489528 2.0583051204078546
Ni 4.841263286041261 7.946570977593921 12.676129912559007 0.8985661020870589 -0.32033965640188056 0.04600320620299174
Ni 4.775125503047647 3.018890271834989 4.227054769670707 0.2553033448268377 -1.2120686809624481 1.3801504363664554
Ni 1.4252379162391051 4.270947566814427 7.089070369626734 1.4407873333222219 -1.1634550337198026 0.3546392010146989
P 8.064351743323542 8.254475673975241 1.1028272050545214 -0.6336162353093927 1.8033313910062942 -1.2583534229616007
P 2.6834912476922983 8.34794891200013 9.219298549304357 2.757409667228045 -1.7192259786149424 2.6822920601575997
P 3.754807448550427 0.7488550242181029 5.66533894068713 0.6363575454999557 0.938615661809777 0.2687445579334081
P 3.2341254392966157 3.9364643972334674 5.535424971105509 -0.4801265187869474 0.08026341293744242 0.41023442178149994
P 3.3855872238066493 6.570247171315049 5.376869986469412 1.2754378892477132 -0.4549767589941971 1.741584805926117
P 5.099095036078117 5.313676021709935 9.19942450531478 2.5634687846690887 2.7478256230840357 -0.023698629168520478
P 0.2813570631822313 5.986389888211185 8.67685564875471 1.8409098634807004 -0.4456858206105743 0.40306258662340905
P 2.626493319406576 6.825518266760942 11.87364132375134 1.510946567946127 -1.6188344274690571 1.6082664221452236
Ni 1.0526813641633053 3.5322547900496595 1.3002144231080366 -0.8128594066468582 -1.269173139284924 1.513854485621541
Ni 6.256940802110455 1.0477936913491666 6.731020766899668 -0.6108434603892512 0.0033758584507683795 -0.9491391870489202
Ni 4.608346518265389 2.607923900894733 6.759895418321933 -1.1631742692545903 -0.22875490491434797 0.05314958743978588
Ni 4.459800515625357 5.191016928620888 3.5092733823684954 -2.0006075085860706 0.25264379571680357 0.7384953899129862
Ni 1.5503174820984431 5.703269337724884 4.941334415092501 -0.07878168618559335 -0.738171173804348 0.2648529361884858
Ni 6.6507489182003106 4.11300003673458 13.473900915828288 -0.9169790573766078 0.3292274458098136 0.15903147227628095
Ni 9.014578887484161 8.509279496685556 9.638064636746869 0.5376287267684742 -1.6106236095234907 1.402647589027707
Ni 3.9943781800809206 0.5330254858368219 8.34017162458918 -0.28398862857667223 0.6345333478070233 -1.1862342363978473
Ni 4.773153612103511 2.5394590996779436 13.757076604497387 1.0148321583713555 0.7698566778330871 0.19534804731912808
Ni 2.4339956432581418 0.6114497381397063 1.4069068068224067 0.7535258018835473 -0.04090059486910375 -0.18964354073518305
Ni 3.996779961941788 4.486266843368457 10.642605694600055 -1.6794204165822302 -1.7959155581581974 1.5183400321967204
Ni 2.103390837382474 8.762662810279716 11.456228458151061 -0.9902678387684302 0.11825814701366086 1.275601925629403
Ni 0.39564356339520423 0.8619696044102477 0.42193793477161134 -1.330914582158779 -0.6720231172223652 0.8678920700419699
Ni 6.91204783193515 6.213334910426378 1.0721853281463027 0.04780040731273058 -0.5153940837399899 -0.26496709316884687
Ni 1.349717296715098 3.40922187877215 10.095279793963627 -0.2748637834572686 0.428317761645772 -0.4946157135420578
Ni 1.299279877636882 9.106042852746066 8.109258522303463 -1.4786200878992792 0.05840672207366715 -1.9597963881069795
Ni 7.759643192453568 6.837760812433067 8.61385513490776 -0.8322635222050828 -0.9302171533334367 -0.42477426726888773
Ni 7.977242759957216 8.646050226389038 11.901639371521664 1.0424026117904563 -0.9123541570100867 1.2509036515517746
Ni 6.648917209076847 4.871056595661671 3.3642179070632268 1.5939716027891064 -0.47157194434871685 -0.66084756022152
Ni 4.398279387259247 6.9577938327481705 10.367868951535485 -1.313075497094829 0.17796918972104833 0.13799393487969136
Ni 9.561241260836074 7.713355155267278 6.4780869696771335 -2.0201175535945404 -1.3168707024712032 1.1284744038795598
Ni 2.056308436545703 5.40840155066617 2.457105083668854 0.0964078839077888 0.23740898104492017 -0.5482769505109396
Ni 9.047643106253613 6.703279719133914 1.995362988189824 0.7905280901395095 -2.5040408204197586 0.771966010866606
Ni 4.286591858001556 0.01821802941468868 10.645778476474627 1.539567317006613 0.2458709957693443 -0.02924449868741415
P 6.924720268524006 2.1845467660975437 8.54997801740887 1.139032124790748 0.9911826372732155 -0.556647433962822
P 5.911831850522466 8.9195075767036 8.488591463590605 -0.08609647467945172 -0.971274842605695 0.9154145411029653
P 1.4096777341443802 7.928833304551405 2.117548266724996 1.4154773938025236 0.28497284686681246 -0.930163931497998
P 0.1525075408922556 0.8552193824720978 11.479754705841907 -0.5113083437063903 -0.8428258711019613 -0.8780160458498493
P 6.688523246144381 6.148496145637669 12.610872471399222 -0.32166223186804604 0.8759136547948657 -1.094521958193515
P 0.2158211274720406 4.500350443618758 11.578237107592184 -0.1669890365604608 0.804919325864175 0.02937793894148489
P 5.857731013197324 0.8321258293343953 12.253890119600216 -1.8937074668977063 -0.6540349081750607 -0.6387918659730611
P 4.235378766182281 4.290937494442425 1.5549715185447932 -0.19170607969116663 -0.1196005199741682 -0.07915321059239916
Ni 5.287060166691451 2.0210199995549036 2.2553955928112486 -0.21110119638832678 -0.4741679872106672 0.010463361425169076
Ni 3.673109483462088 0.7517437042694418 12.927778709758707 -0.6298783655335152 -0.5755213880491895 -0.2878239431623623
Ni 5.977315451686273 4.492107752563174 5.714101654281038 -0.31030515498401395 0.3220818359039679 -1.6205118151714801
Ni 0.6443018150872056 6.857956340064719 11.049321752737502 -2.1015955556653743 -0.5161764704319691 -0.30354546766267726
Ni 0.593965326919874 7.65661889971348 4.025399482450428 -1.3857610976850134 0.29464662251115065 0.04356580040609271
Ni 7.230344673955711 0.6647337827230596 10.176704871774389 -2.4588408268443525 0.5451024094376999 0.048523401521684176
Ni 2.115913746695947 1.1947696575976576 10.187140941050771 0.2848046967200643 0.6747171191147606 -0.9992890684304337
Ni 3.7996936675299846 4.45691277011949 7.9678010470621405 -2.7854141228607707 -1.2310462505062154 -1.2377005225979394
Ni 2.769076921940641 0.8707113427474283 3.6373135882804517 1.0147447408638717 -2.0586879576685706 2.3182385078075365
Ni 1.5501399184589235 4.9803143066943605 13.317601923959558 0.158131843280147 0.62294590007974 -1.117569584041598
Ni 8.119246944299164 2.8337941958181 11.310667393745899 -0.029579513429329705 0.6756231758687977 -3.2358202317651497
Ni 3.091569873126686 7.358620385326398 3.5294754518184455 -0.7145748745416468 1.467266610559673 -1.9801060461986093
Ni 4.739827720602135 6.426205677845984 7.251196252508113 0.700051227004175 -6.295004133688061 2.3879498562607453
Ni 8.748261464569222 2.3875393878870446 6.915632748362499 -1.2046831871316546 0.5021986680956384 0.31245356878558445
Ni 6.877507031321274 7.782324611038492 2.9570093434624845 0.610678909786929 -0.42047795388637904 -0.20060286796016422
Ni 9.236131582330794 6.903515431783508 13.12794246240702 -1.2904258780161129 -0.013730462212215062 1.759762505276408
Ni 8.987234086998177 5.465418169861315 6.678497442329834 -2.5296451512514238 -0.007240740722813336 -1.2806556860032265
Ni 5.1906431104324255 7.554220752439066 4.604910194567953 1.6401272754095624 -0.6304260105068691 -1.4931604476072993
Ni 6.674514409531774 7.331565293936471 10.63323594170626 -0.33801984729046297 0.32995146846003176 0.10448680426118133
Ni 1.4327142800083423 2.1501648382137644 12.511132171444771 1.5423232824851953 1.5400493988493542 -0.15415614646185063
Ni 2.2006396391108267 5.718764101636628 9.964162129815158 0.20332566620796594 -0.05660540719887026 -2.1934001364731963
Ni 6.083377017207614 9.613388898126502 0.7769371810808288 0.2753584637055 -0.7950799711762501 0.0656034969324225
Ni 7.894498103941183 9.178928054041418 7.681847889252771 2.370533203446195 1.2349622977311698 1.5146368723135204
Ni 0.8483626223502361 2.725134593886949 5.034262813107706 1.952492655356715 -2.0548729547978546 0.515716242966099
P 7.966215123397591 2.706976375382414 4.749418026227126 -0.7410893758924075 -0.3938366971497669 -0.07611853753113342
P 3.303235076888502 3.513919007905605 12.603499842177284 -0.527725351611833 0.12090098395314662 -0.6646774754905714
P 7.29481896601067 6.081741562633092 5.006838576256672 0.35757848614868093 1.1733239560940825 0.660353908414553
P 3.4063434787209936 2.5815136458799026 8.986553737895177 0.28437146583738765 0.4923878526528036 0.9920737816289172
P 0.9487599077709087 1.8080464321334715 2.772383343817586 0.27904388297688715 0.7540680475402626 -0.5488965863728096
P 8.234261455434167 4.257237784752588 1.8883463171969632 0.3608946950061075 0.5305509939860863 -0.9450007394005144
P 4.725146011250296 8.980748341428365 2.471139153009183 0.17999213368834807 -0.17830549001454454 0.7684078612017023
P 0.35365163173981246 0.6011015161376109 6.222171037856146 0.20778138798647444 0.34363847902882105 -0.4079757076543103
