# total energy = -340856.74726511195 ev
CRYSTAL
PRIMVEC
9.40118420193191 0.00000000000000 0.00000000000000

0.00000000000000 9.40118420193191 0.00000000000000

0.00000000000000 0.00000000000000 13.75958336578260

PRIMCOORD
 96 1
Ni 3.095076582679842 6.845998560141658 13.527692628373616 0.10140713689459309 0.0020517403227061437 -1.0333613275237945
Ni 7.147691954309662 5.1030096544627375 4.932315177821617 0.9245602121579753 0.8847849891425664 -1.2792017271655194
Ni 2.839044738961309 9.176514456831436 12.980735506584427 0.2551663050283412 0.4500201863198702 -0.15986965190686014
Ni 7.067847699014756 9.099368341330434 2.0699780655035838 -0.7141848381920797 -0.7492418297962128 0.5308929507065373
Ni 5.905504117694642 3.3861842437191445 0.980045223328409 -0.335790443739312 -0.42986762263139516 0.5706753728107977
Ni 7.355147880553948 2.001991523525934 8.166106229696839 1.6302102734061665 1.0603669095783608 -0.0003352718522316807
Ni 1.0177251686035753 2.9779378306517548 1.0896855910372663 -0.4453662324876265 -0.4475372719970164 0.6220205600519932
Ni 4.059647457225086 5.07249341135815 1.0681841432231862 1.4284414101623593 -0.28801626167882655 1.2468839888694205
Ni 8.38350578820598 7.833141677352988 3.897044579610496 -2.497457510775286 0.6196273772294684 2.0921781190062165
Ni 2.7748252513927807 7.394172195134091 7.477618044000584 0.965700433841711 1.3545579326093318 -0.5475123044307731
Ni 2.1556068692834733 5.853289942031401 9.206647131630827 1.3359860831444155 1.9624132569045365 1.997787522638772
Ni 8.337853638940459 4.467348601623324 0.6435138617935922 -0.06181780463774516 1.389280937912814 1.1451127837671893
Ni 7.714902986802648 4.284758806929142 7.068696625925521 0.13726631268504746 -0.21220137143104098 0.7297883490572915
Ni 8.232137325412703 0.7875352993292485 4.141138799948189 0.1607343139000006 -1.0935199992915619 -0.9493248206971651
Ni 4.628701121772446 8.790454837888147 5.028054014822294 -0.20813054379577703 0.5941793694700089 2.4134384874501533
Ni 7.6809271080041315 6.547896418242893 9.794676145864665 -1.6576606563076355 -0.29383235413997144 -0.17997824973127713
Ni 6.919214980751188 6.748931335848721 7.596679338146628 1.1603206018558792 -1.0430860110107263 -1.1295378121470674
Ni 0.5310399772419367 7.875898261961635 8.055368743820912 -1.496654833913803 -0.9931904117318636 1.1392774080323347
Ni 5.424849785837499 3.6594578588036093 3.6405238743265174 -0.6519913953824708 2.100655303239292 -0.6905103773932754
Ni 3.97368303117815 2.1157458493317005 2.729144898575407 -0.6783606294046188 1.3599739614185806 -1.3284200978716993
Ni 7.8165203841278155 8.902620363606212 8.839114425899558 0.05573046079308467 -0.7632142328159048 -1.673797413968498
Ni 8.544491662181017 2.9117064897177363 2.9865859797681784 -0.24615124601392446 0.5905715975140926 -0.7256123633027309
Ni 5.595368460338738 0.7644694945057402 8.980742322001316 -1.5074946048417843 2.546894682360491 -0.443187736779069
Ni 1.1871157010307076 7.3103324366600555 4.001189955300059 0.5777916721406049 0.20343262409947546 0.7661252358151127
P 1.8632676531466041 2.705989782504366 3.8207473910202596 -0.4701496100798935 0.17542174070884628 -0.16728908429938286
P 3.8220231316823954 5.6530729274293 7.74577835513416 1.4384044349123422 -1.602708211331156 -0.9532228701999905
P 6.519786878229732 4.107001220785718 12.816528786987815 0.6454710777654498 0.7760504653486248 -0.9585368262137361
P 6.639285327429493 7.595677171937464 5.2191753839519075 0.021947707915684782 -0.3072766525703354 2.585923771238495
P 3.635842084718974 9.75701876343098 6.860762179418135 0.3922822081784534 -2.1558779711580223 -0.9490414851287914
P 0.7982206850078298 6.506098754397237 6.487753284035471 1.2847655944065424 -0.8885074322994763 -1.2483286917357468
P 4.35118757272613 9.14296163131071 2.796400968560073 -0.1617360156916376 0.2062299843389545 -0.3925843127999046
P 2.2049724862095954 8.802149910723053 9.227740568061439 -0.2712873789599199 -0.5135632011788381 0.059500726468794306
Ni 1.8543741331290622 5.166815489937427 0.8211840169262731 -1.9237798608030545 0.19180249605971483 -0.893887722774783
Ni 3.451240436659302 4.398973790748503 10.394168023689819 1.0117604614245672 -0.4079289135767749 0.7174961619534997
Ni 3.028882846481627 0.8634423387855228 4.248491859601795 -1.6422083263083072 -0.8765006376465873 0.5326911802575406
Ni 5.655658253015795 5.091220569788322 10.86126396805299 1.0775796739122216 0.8971113719184033 0.4306140138791165
Ni 3.4231026930942887 2.7546691130020733 0.30748264324496255 -0.3216293217475816 -0.026194399007180697 1.2480723527505668
Ni 2.2921778685380496 1.2923995600967226 8.216796473441642 -0.10699440117438347 1.094587778434444 0.22756371281972423
Ni 5.438725933349013 6.301923841351812 13.093729276608567 -0.07904625270088968 -1.5156732839978346 -1.5417789799459511
Ni 5.469505409604226 7.419828026136069 3.551678925517028 0.10619221698806229 -2.3281735075330614 -3.2495825756565644
Ni 2.354667538259614 1.1241653732955497 10.74221677568287 -0.07419278126333029 0.317435338270892 -1.3092898048001516
Ni 1.3757880617411151 5.040745613155996 11.543808725255488 0.03948057459312555 1.016598763353475 0.6404437997541873
Ni 8.78627131103 4.376533164657729 10.610661308066094 -1.2780964099164827 0.5903368557954671 -0.653353822947636
Ni 8.904970659593936 3.127294440079541 12.77654367140789 0.12077911366330166 0.0013498291596750946 -1.0757716741692052
Ni 2.869654993905406 3.77959558851203 8.247618255024634 -2.8626477478329537 0.16194041839295983 -2.574711190352127
Ni 6.246118413419331 2.953710979610312 5.641842273081568 -0.2536665805543631 1.2609021575253834 1.7394890997393524
Ni 7.128466533130093 8.309744098927299 12.85055637229806 -0.17800415672404182 1.123500347703736 -0.785384598265357
Ni 5.100358520588587 5.953506562947885 5.9102225719195935 0.9455044185098103 0.9726411268256022 0.6660926106705432
Ni 3.965767234291501 2.252110022539357 6.020065065083395 3.2724898192720415 -3.441428780470021 0.3055403866055189
Ni 0.4649487139487863 2.724152869897485 9.776816716713158 1.3726387013704424 -0.29386166471601 -0.9250939731742585
Ni 1.3502356437625966 8.180788058672944 0.8154934802807996 1.5301966744249906 -1.0651172797791526 -0.20016526620211333
Ni 1.7839968700727011 2.076843750142918 6.075557433590312 -0.5069819484168946 -0.8345194081187951 -2.3606226292007024
Ni 4.181120155054533 9.107801203334382 10.482518470223493 0.7958944966577455 -1.3308042818331598 0.9793877015208166
Ni 3.61002643358983 4.184100330366965 5.693289312134417 -1.227352346594396 3.0406531901085763 -0.28533511530223765
Ni 1.4844563470294505 1.736577298224413 12.714542863251772 0.221646833114657 0.5650505704248526 1.690767209053617
Ni 6.652616206271855 5.34012631607208 2.2562136393339203 0.2839953134448916 0.9198098419571836 0.03608491864801527
P 8.517444455954307 -0.19889426802020987 6.850813846561303 0.1522707565136797 0.9867150884201651 -0.7430768386360816
P 2.865057814953421 3.77230967095009 12.319601005711682 -0.8479865893672944 -0.5176815942225859 1.2996707936531489
P 7.22130322464513 1.68657240078963 1.4692762553039485 1.1596739694108158 0.8564182650744153 -0.026648970046096038
P 7.231823149486175 4.140582249858296 9.213871001378692 0.05053760373823555 1.2502156243458147 -1.3327048412899822
P 4.898552705898787 0.1484917005043044 12.736517190618581 1.5280194642680136 0.3815249696619494 -1.048306378869401
P 0.4741129880641137 2.9677187436971377 7.29051474089158 -2.0016194947903525 0.7066355650899121 2.7839182550415345
P 3.576708637667877 5.0915120064908 3.5832979274990557 1.714449126051589 -0.3912324267577004 -0.7270845769728833
P 6.103925506162122 8.158103001799446 9.509096380988485 -2.2925732418309486 -1.883213766455234 2.0429579485278238
Ni 6.7485364861227835 1.8907191102832022 12.770860655709578 0.10682162304194506 -0.5955320268431614 0.8506641361994576
Ni 5.83553110554817 1.481927428546661 4.061429921702175 0.4930128878313122 -2.1962489187759013 -1.055300550799047
Ni 0.25050864814738505 0.5647592037185931 9.124144221514609 0.9306131032202747 0.60578224381626 0.7713731144776135
Ni 6.2522385841713595 0.764677260671055 6.524725320159136 1.1749213824881894 1.5281593322799873 -1.8603867412583897
Ni 2.908284458759612 6.897911897918472 2.4587414649511494 1.1428165315338448 0.4093368496678951 -0.555168021203818
Ni 1.4497659782506669 4.84819996465782 3.2817295690775983 0.6118942702512689 -1.2715856053811585 -1.0426149849115787
Ni 8.714230038414332 7.328345105109961 1.7513333965537297 -0.11118581354791172 -2.1666339241229458 -1.5029123847877406
Ni 5.043246328086932 8.081577364439203 0.765058008621066 -1.2700316306304773 -0.7054932239553527 0.731840860710946
Ni 8.117236055164927 5.84124702539031 12.129168743365668 -0.378640963245935 1.0409417109742136 1.980045368164003
Ni 2.3007893530370644 7.6951605005057795 11.106982712977395 -2.831322712467427 -0.009253400277467936 0.27440946952866935
Ni 5.173885180268496 3.757154962421256 8.33697274800426 1.3962406570600985 0.8850888935362305 -1.050963871096906
Ni 8.480253372244587 2.509128990572733 5.430632454085691 0.7061182591338613 0.6683328128549716 1.661172526115636
Ni 9.04797206867092 0.3955059285771437 0.5463300628196639 -0.9406859140752444 1.4186444786765955 0.6634258624716575
Ni 4.480312834291602 2.399671005832523 11.956045940910032 -0.5060476095280833 -1.0247486461541189 -0.6902627801588435
Ni 2.902399317606355 6.432562693533377 5.103016235291503 -0.057461327441262325 0.6653035391103445 0.9528485175797073
Ni 1.4947412422717237 8.777236773253195 6.016061100838711 0.01337539286564148 0.7206182525222493 -0.6339119121729405
Ni 0.31383314300378856 8.614878326421328 12.3198078317586 -0.24772707514147657 1.2393396008632591 -1.3713174114558577
Ni 6.1703918766949135 2.8163126761680575 10.416279608342313 -0.2211300413792385 -0.6401756336944652 0.04774641414634358
Ni 7.120776364658266 0.7490750557861582 10.67950053742809 1.4100271693212298 -0.7268138398099999 1.5317766173176006
Ni 2.105470355273378 0.7568930803597181 1.362841691322345 0.7397043226194229 1.6982519474664366 1.228162501200517
Ni 5.104983903092426 0.9052992300900695 0.9881405828285201 -0.06987924148964093 2.047239092401681 0.5059424514087867
Ni 0.4352757570445928 5.039373040299164 8.283668035002716 -2.1893845875559004 -0.8676411303734282 -1.6719246224258175
Ni 5.524455329797177 8.454353110459886 7.485295990933277 -2.968114656619217 -2.1353292004723934 -0.6948750821198741
Ni 0.7876001674985095 4.229771282000388 5.55375317946173 -0.137653263710821 1.7726367901359146 -0.17903953996709165
P 3.853047038720332 2.3654036903315303 9.330730538243438 1.4603112622877625 -1.8601501997675514 2.4740802695019264
P 0.23610791457141206 6.680387303662783 10.29680466210243 1.7815477194722993 -0.14770087775481014 0.6158326860737265
P 9.153641376278921 1.4279740338525044 11.492100333288805 -0.7015974884453724 -0.997462042524024 -1.054712796616377
P 9.085210158300393 5.860557057225438 3.5904804320375354 -2.6616270756090805 -2.000920926061431 0.06937607660097728
P 0.28216525486521626 6.878160010437652 13.471526194977418 -0.591458113884104 -3.2014504960360286 -0.5393997026259678
P 4.065250562859816 6.809305739181335 11.07819816795656 2.738650641452987 -1.961474547140351 1.0130660676098682
P 6.894245436177624 7.006918625829038 0.6812041483711043 -0.08839709778817034 -1.0264250054152775 1.573990017460857
P 0.5462172486122532 8.818573779085257 2.6775051352515646 0.36800816612243714 2.9175929937205813 0.2590926366659409
