# total energy = -340860.1741971348 ev
CRYSTAL
PRIMVEC
9.33125365478866 0.00000000000000 0.00000000000000

0.00000000000000 9.33125365478866 0.00000000000000

0.00000000000000 0.00000000000000 13.65723294135817

PRIMCOORD
 96 1
Ni 9.13001589443046 5.217701150607311 9.108404710833508 0.5673699625866486 -0.5075067105721129 0.23627666721268986
Ni 4.517745147164036 2.6028319166594267 9.54420691857111 -0.9022216965617752 -0.9541505242205824 -1.185905649413835
Ni 3.520626038008947 6.218842030112264 5.69882152512253 -1.317672372436892 -0.47498508379532395 2.81235774132915
Ni 7.129357773566438 7.646243910434318 0.938260360116013 0.28288871064427407 -0.872239034156756 0.9653775032846535
Ni 1.4098871171046607 4.855965769208575 2.403823335618592 1.6189935787547407 1.0382860185189215 1.1666167192772359
Ni 8.1059761183163 8.272865590955119 10.906844299379774 0.634252840452127 -0.37680699536098977 0.9659655145776397
Ni 3.9067439853570955 3.671101835368386 11.606572620232477 -1.374464955945904 0.7109560468421369 -1.2067647522510312
Ni 2.3130684951412155 8.62836769487425 12.813256757752766 -0.17008387343570064 -0.6312230524868677 -0.050602652648216076
Ni 5.010761937036662 7.82853928295162 13.29388257582125 -0.7110889728755754 0.24517654080548099 -0.43817614249709047
Ni 3.8239850961855173 1.261912095740033 2.6197849384033574 0.20580832342050362 -0.286721454126803 0.14767773782635857
Ni 7.123721696324401 5.019850578152134 0.2407799382825268 0.5391618755835489 -0.37839413734245153 0.7480917753521696
Ni 9.112267849870268 2.9644179979987713 12.611007432297761 0.6043370267293011 1.2974431898742107 0.22866080253864493
Ni 4.839029543721326 8.832974095016903 3.866881802624875 -0.14723756496514642 -1.1245244180928762 -0.9554463602138706
Ni 0.2632234697105885 5.029396450699493 0.2950262486117693 1.1651180232445224 0.2880481433580265 -1.2910869086388796
Ni 2.0368447227590925 5.060273569232445 7.576405075152351 1.8418627143122732 -1.2094440988554074 0.871539694096886
Ni 4.778805632264186 3.739667887644038 2.1706119772218546 -0.9113761093675338 -0.7237719676598825 0.10640150478539094
Ni 2.335650129124215 2.8555409296873524 1.7675195462462383 0.3259935122535482 -0.799392739618991 -2.491828851734599
Ni -0.13771997353515839 8.86242353173192 13.782469819556798 -1.4111684820145243 -2.206321215410239 -2.650695773408558
Ni 2.5234322788241625 5.775971397687836 12.251057119734126 0.7496568058464443 0.08640089329374798 -0.9823059036088759
Ni 0.5717371124376581 6.5836100689673955 7.081494040776193 -2.184872301507844 2.187619782345994 -0.1098095020256754
Ni 2.2630343127375623 1.0542917006484092 9.565320746345215 -0.2441696968075214 -0.1711825058165181 1.1044944960251946
Ni 8.536949402257951 5.034547302748507 11.617921290996991 0.27634293910595636 1.6899501124689604 1.0730848713656616
Ni 8.562703662503026 5.416867429835879 2.4474441473459994 -0.7727463406760562 1.1387595878556518 -0.4454341096110845
Ni 9.293583440747813 3.042893841716549 1.731245230566275 -0.8043745091042985 -0.3322670039670858 -0.36005111605888956
P 0.30027227944864615 6.861149548122909 3.801886821144799 0.23683485370900503 0.40563548955690787 -0.45235989019664025
P 7.152042051340269 3.936296065862946 2.149716500784611 -1.1570370460086008 -2.1404261553793265 0.03130266676802351
P 8.597033344909411 1.8821885237366847 5.535644958335711 1.6991608324339509 -0.25186912233430814 -1.7294854515594213
P 8.011245230632248 3.397789414144402 10.545254485538942 0.06551350832177749 -1.476556263391715 0.11992782140659991
P 3.448943346993493 3.2048657436491514 7.431911544547665 -0.7030007965508022 -0.9227193022944948 -0.6073693857977217
P 5.259579817266692 4.5748150948665245 9.5806585280716 0.28864901016681904 1.3408570380834715 4.255401989006349
P 9.10671575391164 4.5589519635561535 6.895619199334974 -0.4867918466222649 -0.26558390081723937 -0.6007945607936814
P 7.7780385378623675 6.8419085029688 12.857588611013027 1.4476424085708421 -0.4297701778215824 -2.6185610976575417
Ni 2.43872315762678 7.716162994498207 4.026397718580483 -0.8196993123868271 -1.3309814308409722 -1.4339091181451498
Ni 6.825028265003822 6.3948294751202654 6.886140511814341 -1.177597386658456 -2.2957896918857172 0.021733277912033538
Ni 1.0129169216894762 1.8348697361632185 3.752639263429066 0.8223298080311385 -0.9866688085632622 -1.6351809871478808
Ni 4.989318716006525 1.4307424691509427 6.838368225310473 0.05355864995274647 0.6142077488757939 0.20527224841137554
Ni 8.790572878149652 3.506871770037484 3.9984963368562827 -1.1658662142644567 -0.6346061100264876 0.5614749372584524
Ni 6.021887258013438 4.818332822988147 3.777371751392677 0.13316077515710614 0.042649459239410416 1.4264958564002144
Ni 6.701865047259357 6.9174543330210145 3.0363171741003434 -0.5455376972029056 -0.0829566434988894 0.2786420195527782
Ni 7.828324664116244 1.2358592353761761 12.12292500938803 0.42529363010746757 -1.346478498035307 -1.5316231224588719
Ni 8.093350932043988 5.576441199564501 4.795996600977773 -0.801936074866135 1.265034691636518 1.7219382353397827
Ni 6.015635318026409 8.451811043389817 10.265390591083776 -1.9978944805302818 0.31178482485333403 -0.4025483659911519
Ni 5.334565772096187 4.210980181382592 7.689732218359015 -1.7985694508412766 0.8080190478354213 -1.7560560029590984
Ni 0.6375691073756989 7.15929243547448 1.5518985342219602 -0.6741008256870004 0.5945421521260664 0.8426325241442326
Ni 8.372430068061977 8.768411150583692 2.861039837499824 -1.0411911079808585 -0.7216569781994088 -4.854005198575666
Ni 4.853716937063987 5.950139248222 1.2283830349021352 0.9276501639372087 -0.04166961182464436 -0.13637568254997803
Ni 2.601646847438005 7.559883157329915 10.225880196616496 0.8033391258612487 -0.6937733644152632 3.1749478217598095
Ni 0.39016864458452005 -0.09495297152239751 7.196651975961148 2.1700077256911854 0.9676475302657529 -0.5928454811499337
Ni 1.7696069477016088 3.1611674825159346 10.272834132169825 -0.7631820940263889 2.1436189512850117 0.05980848751720023
Ni 2.6468381091651385 1.7442352688587268 11.946637098010502 -0.619918683217642 -1.2241477236141691 -0.3815092859326656
Ni 2.64402007054412 6.454521505115822 0.8604339716565893 0.5055516437282712 0.7514869170766477 0.3547068210278407
Ni 5.8143135191903745 2.4060917633959753 0.4936102576087085 -0.39073620384757224 0.5383311521521374 0.0345078039688825
Ni 4.437757640344917 3.6345886395933964 5.479159147115593 -1.3428645554318033 -0.31204347783135933 -1.0881811035771518
Ni 7.073304932518556 8.517353769462787 4.639047712918331 -0.5916625165854261 0.7556076241132407 1.6208676558490018
Ni 5.4952966172850966 5.322771067404242 12.33347821752133 -0.45542978737121564 1.974218991290213 -0.28170471763850197
Ni 0.7584526998383262 8.57900536273786 9.414327064404759 -1.6015969805448482 0.18405679067602493 0.11547312806935597
P 6.20475183700717 9.22501738847216 8.021411631551453 -0.08468751014706705 -0.45813535922783677 0.5229392430770994
P 4.43160834414872 6.856427933744645 11.154463113507813 0.7719385000627802 0.4653393331754438 0.4345963955656322
P 6.2022044047437985 0.11986461955727874 0.6299258774602136 -1.5436060058523609 1.6231903904449076 -0.3024357795382662
P 5.7531191573471885 1.1938779249259641 4.82447185480526 -0.17997362174558681 0.3601416188901669 -0.1922760932620237
P 0.6208848257386731 0.09375017291892287 11.566966113851965 0.34724342277126 -0.12348314285802604 0.30546762438605457
P 0.6830636348484723 0.4657620640306662 1.731573690696937 -0.253470405383157 -0.22971315506255924 4.605054021219101
P 2.126490077170114 3.7771515338050743 13.09829669864197 -1.6017021386641448 -0.91655919623037 0.37532295461629556
P 4.290482463008688 3.9810114336507687 -0.008148050741303632 1.119753479066794 0.46640839786990645 1.8972766723062031
Ni 2.918134979587335 0.3919443821659105 4.860732173604656 -0.3848874583762791 1.699532871061389 1.4396053971989786
Ni 1.0981299305873058 1.4525682715832713 0.12294393328223317 1.804042815251022 2.167429423441048 -2.3685827645880435
Ni 7.842386863460203 8.282224838428236 6.853404607541963 -1.0026356163051635 0.5205416893792002 0.5986325201453562
Ni 7.456884778857045 3.550971275080316 8.47216903961325 0.34885679000496694 0.3463923876248744 -0.08551206293089145
Ni 3.855076833553845 0.8571838959887056 13.713500657120788 0.10711190058885423 -0.6306180719130172 2.508862667288434
Ni 6.746916340180812 1.4435169554826477 9.682732179301613 0.45349066136697386 -0.07904856669373483 0.45764813517877306
Ni 4.913838204730293 8.18130732953314 6.483703134849306 0.07146921168458013 0.5102688466982825 0.3968736842038778
Ni 2.617789916359736 0.8460470446834538 7.379876741348162 -0.24555449297019 0.14152765906456272 -2.225044759961671
Ni 1.7770626194174832 2.8205580595211277 5.653424975813732 0.9366220284185158 0.20737232547351384 -0.4923526285394939
Ni 6.681494920406098 1.1069199715839937 2.7632678942310367 -1.2438074068266256 0.23397835809681639 0.5672560627166037
Ni 4.9184945003325735 6.654676897237859 8.934971229966477 -0.31345475635658915 -0.25487602748143195 -0.2595482361461207
Ni 3.6936181505754013 5.602232784824423 3.5735109184216114 -0.22789667067911074 -0.8235297418765108 -1.5860142956152425
Ni 1.3013273114194495 2.8550836982554655 7.842283286543999 -1.1673155451164736 -0.3047397450810945 0.886157444010061
Ni 6.941976867776106 5.899470540565932 10.084705792957163 -0.6541724621941895 0.08073135371279644 0.2643891091781898
Ni 0.6372285166152114 7.0318275097687915 11.74486553274555 -0.3898527728013544 0.18052280938083748 0.3508080001940668
Ni 2.6807665476619094 7.367901943459574 8.120658846032105 -0.24183487802675768 -1.1109417943124351 -2.321931897498724
Ni 7.850085147772589 1.4164469884641846 0.74328661318024 1.8645668407780083 0.21245848174716958 0.3254538376999943
Ni 5.525763160654721 1.031159522696403 12.139422665950816 0.6491279577917467 -0.9857614662576443 0.6628273096557101
Ni 6.125632136783266 3.197811315842892 11.684309428656265 1.9118630547608106 0.02850093565317027 -0.6982967062069135
Ni 4.025866770244272 9.067991051006908 8.724759545719035 2.048963788402271 0.1329075214957195 0.01909532606855421
Ni 0.1799149696953747 9.112678425033597 4.47155544128972 1.864492278786331 0.2101174923188188 4.515527180701862
Ni 6.629827768602849 3.4807349283902194 6.1968193382266135 3.0039596913422844 -0.8652500044334325 -2.9666177603587167
Ni 1.0227054068333465 5.098410403153319 5.018923984658534 1.475040340967821 0.42843371839834604 0.04105820349289058
Ni 7.700374513217532 1.4053334652932128 7.342798071598226 -0.04171871989502493 0.02835335433171246 1.0347808335791406
P 5.242111710317858 6.880250624471339 4.764625859123457 2.032563492667377 -0.8059932756546441 -0.6518805808362192
P 1.8145276030710953 5.461965379025893 9.866326462335621 0.1756917065407813 0.2983356413269636 0.3140026584402592
P 2.130297228684603 7.933954456135893 6.2091795168935064 -0.2432178744172134 1.7126285279030826 -0.9689927314397375
P 3.538961951552994 8.332557620950674 1.8761624000894859 0.14163924494176253 0.004734943581824104 -0.5732577888259933
P 2.8892080930801876 3.4845140861435726 3.6533640551872777 0.3686360295144232 0.37737958003500816 1.576379600738956
P 4.295754621355958 0.6920067084060371 10.586595671984513 -1.1616352069022444 -0.049164891760425 -0.31161076116931496
P 8.253932477173505 7.180222437550458 8.930983985255345 0.4512265479231455 1.1059672239159792 -0.8995958289031539
P 9.253421724771437 1.8855197813118625 9.1766908254978 -0.27126501036241674 -1.0790907112401091 -0.17712509655319816
