# total energy = -340877.9442344909 ev
CRYSTAL
PRIMVEC
9.24087756129306 0.00000000000000 0.00000000000000

0.00000000000000 9.24087756129306 0.00000000000000

0.00000000000000 0.00000000000000 13.52495839317061

PRIMCOORD
 96 1
Ni 5.96519906537647 1.5851524300102142 3.0544492046179963 -0.21123335109081684 0.4685372712874511 -0.12772700573604454
Ni 7.782269801850982 1.6115905809762403 11.86616294200948 0.8955995632595674 0.7874985592845664 1.1460836323208907
Ni 0.820496602746719 1.8941581378581511 3.4059361511258133 -0.8643521752095115 0.6024709200548399 1.642288030506307
Ni 8.004549872922912 0.9269339556449312 4.347949370925362 0.2666311111348311 -0.17961083908952935 0.2547492720955807
Ni 3.459193177217181 1.2379264521883226 12.901606979410253 -1.0746177630704203 0.324455478342467 0.6699361527863494
Ni 3.3059701848481913 1.2129206372585546 3.432120177956375 0.8330813901206878 -0.41602248921818674 0.11484037958136352
Ni 5.805193268809974 0.7243831583627479 12.715449499084983 -0.37789328644663306 -0.40722674530342773 0.5046736119986921
Ni 0.7972613399753187 1.2264400412652992 7.893706469559618 -0.19302197028911272 -0.07184973495245045 -0.4293608581983057
Ni 5.349442423827996 7.769905507550897 9.017969202524865 0.03261881447628576 0.601887279637228 0.33110769355166203
Ni 5.14781571431114 6.430893094713376 3.730088581535237 0.8836207936311363 0.7115144904487681 -0.9162300950257254
Ni 4.039991578603307 8.565665204907559 11.462307941840539 -0.16480745552810971 -1.1481543988069902 -1.0046531609558247
Ni 9.18138488294542 3.838226255921653 2.4282300413904814 0.1739004189683134 1.1173682666640692 -1.6427557141713451
Ni 2.5398367412479366 2.6223208151810895 5.539011636182855 -0.8161409056116073 -1.1011772587265036 -1.140241828828133
Ni 1.5906230295809543 0.5225873407848373 5.125769752493717 0.6311986270068356 -2.6596272715702325 0.37278681845800316
Ni 5.445510587911465 4.790960741974534 5.284864398523599 -0.20779912859828728 -2.1225150794268606 0.5164333236377815
Ni 7.592314320810216 5.729002232558704 3.496485663074746 -0.06236879204520872 0.27796761919357293 0.2849718184255479
Ni 2.264532514201502 2.5454921583717423 1.8100042373330514 0.7791717845864259 0.3580739377278607 -2.1040864404080275
Ni 2.990052300515603 1.5744699754430258 8.318485588998874 0.9362551319974004 -1.0372804600725425 0.6666533682700196
Ni 9.11360304535863 8.366662904644233 8.843496811992164 -0.7958628720888616 0.2082714402490155 -0.12086935938426281
Ni 3.189054600778928 6.601553623214099 8.672541499494303 0.16527256808998633 -0.33450926303404327 -0.0009222547039532504
Ni 8.84160705251207 8.347118448407553 6.01269625242655 0.04236715211230122 0.1322241222754497 0.575324698657351
Ni 0.735194061129317 5.638192127859949 3.8595634424230694 -0.5423754974248401 -0.555008098587186 0.9105494997011803
Ni 5.263104903913427 5.470266899144596 7.6711537925969155 -0.28634581595493913 1.009332568709365 -0.03694315288325251
Ni 2.012792525170924 4.8645458507275805 0.6873475689039433 1.1360187918857207 0.7988674632431403 1.596703914118605
P 4.5449778197219475 6.322654694760539 10.596616054667173 -0.3624507266393177 0.6553525985452198 -0.298014510542119
P 2.2150476143682023 4.645222860504698 8.27711233156962 1.9218582183003095 -0.9572967831590481 -0.31329534796058944
P 4.4711247255169555 6.530851668288875 5.9547143655910615 -1.3810462087078474 1.6617011449255963 -0.5560553089047778
P 4.9843723112576255 0.7308434559301539 10.16534521867649 -0.07198266098588894 0.4690558627950825 -0.39901027093090635
P 4.174326217048998 5.873705135731372 1.001171470360299 -1.8543788445014129 1.5887072690663735 -0.32857824226158894
P 4.223293627733714 1.2182803462974554 5.767001645556745 0.7511814700210869 -0.1240367013686509 -0.017661936056137327
P 9.09907638568768 6.088435409760574 5.981304991038366 0.1306914876810072 -0.47669872405232094 -0.4821823728747115
P 9.423015351823311 1.798053010264068 1.1780797562424035 -1.807084430290823 1.078994551981877 -0.8135644031336828
Ni 4.057844954229439 8.430110770611636 4.592170057809469 -0.07317102486703528 -0.33220606882216336 1.0953462538670231
Ni 9.169575041304531 7.941212897487351 3.3098005286354746 0.2807004447437037 0.16380678217773725 -0.579971196290427
Ni 8.999810877936175 8.698604470827604 11.60814747296456 0.4364198219276162 0.4328814697570545 -1.2447054931608628
Ni 2.9038995981540996 5.996959961870783 3.0942940208833964 1.370556364920117 -0.03550256378198401 0.015731808912960003
Ni 2.1076131707712014 4.906638048438258 10.656544994424205 0.7647016159947089 -0.14745533740290734 0.15132844720506844
Ni 4.920120488934389 8.555916078983351 2.48980940189639 1.2947594723944607 -0.3008172700982368 -0.14425097153299674
Ni 6.441945184386695 2.416166075614128 5.575961285479485 -1.0812272979671378 -0.23186259730539424 0.07130157575846431
Ni 0.8862121800902345 1.5906599930915675 12.473419824292469 0.6865616771581724 -0.316099650178604 0.5059383376437286
Ni 0.28222934075980083 3.715239415234186 13.35839834721599 -1.7053667041343468 -0.5840834186865876 0.17149592329187882
Ni 5.81967372409266 4.723428408084383 1.4934394915647338 0.7641390586230196 1.4439634170573585 0.9632789688844119
Ni 5.304051232795097 0.929059357505185 7.907610294076739 0.3510561116491309 0.5622069303284705 0.03735530072000664
Ni 1.9632706618270115 0.5937319337496533 10.590420970288417 -0.29634046527380575 0.1846597143673465 -1.2012636199271443
Ni 6.20823414765766 2.675040022193036 10.507838018964373 -0.5081674840845635 0.698149639106088 -0.24321761730689725
Ni 4.319019879344013 3.6727868232950307 3.1155554321880565 0.1462464046964707 -0.19465102125210348 0.3522326484557354
Ni 4.541013483208691 4.6464334154772775 11.991472015251215 -0.376329541503939 -1.379262120224231 -0.5382373068867504
Ni 1.4825694471811837 3.052890268557888 9.4468586643443 -0.4720452844407096 -1.0820798757754202 0.31685992538339625
Ni 6.912389024837385 6.818224481550489 5.807900845962385 -0.19526988578302498 -0.5199449363354658 -0.6709681935952896
Ni 7.171641847400077 3.026285781794103 1.2220986769437896 1.1166612132947153 -1.4042748402184848 -0.7095355123455264
Ni 1.8493768447503698 7.281950203947248 5.329726087266963 -0.5490166568904415 -0.9043055756739973 1.09849508390865
Ni 2.772512799679804 4.814062936107726 5.4216820607947245 0.6398858703681883 1.866483598184747 -0.19994595110245564
Ni 2.0139106713669706 7.202986904399993 1.3436042049434356 -0.38421820022339637 0.46375707628998836 -0.45838347068290086
Ni 8.46833104058559 3.625334916545452 4.6339074058182605 0.16319974472135765 -0.5589585985945019 0.36519229394019687
Ni 7.432336246876681 6.40321666614181 8.170792337817604 0.1610546733538968 0.19191793859165657 -0.0775994929520341
Ni 1.4173380918267 0.2647141812557792 1.8814168157498126 0.9728712405585374 -1.2144844894927924 -0.27292722855618806
P 6.506760700246781 3.841155614137741 3.6079315716610347 0.1750540729567824 -1.068380781021773 -0.6583358495432597
P 9.073802585305966 1.7145616806667086 9.985990872479563 -0.6611190687153518 0.03837680000598552 0.4672427208457437
P 7.081571012913584 8.229833229232158 3.6361042353625814 -1.6255614617802454 -0.14669994729412156 0.11833913676324136
P 8.432254654227195 5.800628275249256 9.972857737158725 2.0140613200981314 -0.15914948591138398 1.2881792480737815
P 2.1523759821236763 8.643168445785594 8.53841478079581 -1.1428103608862576 0.4256448427992992 0.915170029192327
P 6.013667468667909 3.477101998109232 8.098948210414436 1.0967079101012402 -1.068822753655198 0.562270179466238
P 2.3974625392438944 3.4786082611667166 12.610482369821408 0.17003836490974586 -1.0156819079661605 -1.431855835160547
P -0.013257887169156825 5.768719524712489 0.9376746277413354 0.3312791861325198 0.5768591330240066 0.5899033678024744
Ni 7.765941171037642 1.676452301224593 7.640343782413124 -0.695760312938305 -0.011088139493361548 -0.4736560805712553
Ni 7.4350438240290915 4.494698204410466 6.636372326123882 0.2771289253423614 -0.18440131849963726 -0.09119265825543649
Ni 6.348168757961237 5.122089110924415 10.015326038589892 0.36613151792501464 0.38775115307731933 0.9179321653184964
Ni 2.835914461258939 6.276940073009777 12.48841961689927 1.1207873196479472 1.8031177323335914 -0.03611474344468619
Ni 4.353220367538792 4.152656358952063 9.522571947220895 -1.9071337676059412 0.06323525381056205 -1.0900749781657548
Ni 6.229645261180304 9.062584159834888 5.933588795187904 -0.22777120084483998 1.029963100475523 -1.4513607379626938
Ni 7.190354624647964 7.430081472729281 10.622015530984969 -0.2665915161461473 -0.570793643556217 0.5495653303050599
Ni 8.568668490144873 3.928352535674065 11.178973392113406 -0.030254428009167254 -0.09299474446118178 0.42980463060394364
Ni 6.93842981806432 7.047758641580243 1.5846654357578867 0.3009825920315075 0.8562100057183513 -0.44585499919858695
Ni 4.070052153609418 8.239360574092686 0.2720671476044919 -0.4910619347525285 -0.048420814505548866 0.5266709422053897
Ni 0.657330426022803 6.018038403797909 8.128026480126003 -0.6370293747559996 1.1309632317396845 0.06862145782313989
Ni 7.546682866958333 0.4988198034606082 1.1114040517107124 -0.68422942948057 0.48429710522486924 0.41017168686436456
Ni 1.5171580522374004 7.452047038911121 10.27204408841229 0.26307784656593397 -1.0055705305637714 0.05676918647024417
Ni 0.7166568605568427 3.9342297338615495 6.75349860220364 0.07997364961116549 0.24842795786324315 0.3812850857370014
Ni 9.204671894631678 8.25823044626068 0.42688049501761044 0.4369759515414023 -1.5271712573351053 -0.21073044331246932
Ni 3.280234340583814 8.681324029615975 6.807098464855944 1.1010312200669425 -0.17131208941584689 0.49982168322302956
Ni 0.5301833422158312 6.068410427885923 12.049493637860612 -1.453945982191367 0.16832935263843915 0.5040586041225126
Ni 4.0215375459297125 3.2584073875667734 7.115994206259807 1.0204294499534747 0.7844330329853652 0.17022039901356492
Ni 7.48249573077867 5.391294358719688 13.22815372121964 0.4242623606294758 -0.17356283312323656 -0.10072425189495555
Ni 4.05212485096206 3.4611984476679423 0.5890699109735749 0.7676393584667941 -0.847423774885289 -0.6974646972239215
Ni 5.533511465803625 6.729336479403616 12.701586334429537 0.4693163155453207 0.40559538034759185 -0.06597964932491862
Ni 3.5970855535593835 2.3273242778555208 10.775104530627988 -0.24459701415292714 0.41392549747984203 0.1343152004765235
Ni 8.266537995270975 3.849463163148038 8.869694700139206 0.07849963616880029 -0.45409229950671476 -0.876572114314471
Ni 7.165367291473501 0.48123164102312577 9.889787791582355 0.03843824937154025 -0.395646496664996 -1.283487756135383
P 7.251714052265724 8.241125581724463 12.77379547650001 -0.6265523864840757 0.20474542937362802 0.8869827681248336
P 7.191749997173608 8.467360748431997 7.717584582365807 -0.19662948513471296 1.279654755542538 0.4454315385079232
P 1.8508738669302005 8.364583707172246 12.265325424506084 0.15916491253035167 0.05431995359880322 1.4775818764427522
P 4.591117521844761 1.0586257030817847 1.2961504500183263 -0.10703553882496404 0.8152785576113121 -0.3297804900998062
P 6.326766885316247 3.6542219000895964 12.659009914729827 0.8598154636814224 -1.2666277471552507 -0.11521138976753706
P 2.197037143821965 3.914223233742204 3.380035819239208 -1.101701763771406 0.3374642318973091 1.5120416007825186
P 0.34919428476203956 2.01072256857659 5.798893762513735 -1.8218057956613982 0.42895539522977094 0.1478775125419905
P 2.171319781312895 8.173001831664504 3.4706805122279696 0.3574280766137457 0.20718669182526897 -1.3603598840030893
