# total energy = -381173.403920805 ev
CRYSTAL
PRIMVEC
9.16413221499058 0.00000000000000 0.00000000000000

0.00000000000000 9.16413221499058 0.00000000000000

0.00000000000000 0.00000000000000 13.41263382132068

PRIMCOORD
 96 1
Ni 7.991471962729007 6.799054322023992 1.349875981845524 -0.1737654360523459 -0.2966420556746246 0.4042537787180328
Ni 5.80387904554626 8.516441242207001 7.052011003391391 -0.09352593437430344 1.44992914772249 -0.6006336097357848
Ni 3.2861862611299943 2.866303530984428 8.545099272071257 1.2283553339376134 -0.21840801446238514 -1.0199514818757918
Ni 9.07448353994539 8.223502173798012 4.955276192987903 0.7427613642781918 0.8599537890314995 0.37822675852665183
Ni 4.790387545951225 6.909294626444082 2.994248281838754 -1.3057522239605384 0.6385892630439518 0.31448602583458096
Ni 7.625101153664512 6.683743686609385 11.02910726154406 -1.2429666560928851 0.35403216355831935 -1.093366247322517
Ni 2.1002849690340195 3.6475701632931186 1.0938187050162125 0.19079153829669723 0.22624782222177806 -0.26214505033901947
Ni 4.184089044999938 0.4834555968599986 3.459393217187658 -0.12551662834828708 -1.2481116906289345 -0.11516845234474359
Ni 6.453762000494288 0.04177137037237803 13.489331968995415 0.3339104531077797 1.5804835956050007 0.7754436850025613
Ni 2.3029498993157684 7.366319616726813 4.229136201429834 -0.23027931197867435 -0.04628988420547512 -0.32152827739334305
Ni 5.4541374390487904 2.1475771605039005 4.41153927335525 1.0449816853715421 -0.332463436248608 0.2490684196607194
Ni 1.1687808143137581 7.1570456443991946 11.2130703640113 -1.566482653340218 -0.9418395680637135 0.2137298922604255
Ni 8.590308642015602 8.658781283800788 2.6895417816243925 -0.2958244448693357 -0.013489292735686446 -0.6270156992737396
Ni 0.8626820586782334 6.143943457238838 2.5154412608357024 -0.4269813022225356 -0.012972243889951853 1.9689202047851186
Ni 5.728630513528914 4.440247357675393 3.9921005447720916 0.2521421734900367 1.943907227680549 -0.018985282853251174
Ni 3.707737473138473 5.275266914000908 7.383809941321975 -0.8057909298358509 -1.4093635675953018 0.49608844143284236
Ni 2.0416563702400174 4.3010496235900915 5.048343184366783 0.8907571475656014 1.5624447358254188 0.9251168559923938
Ni 5.475892588672431 8.809398849303355 9.481738643191814 -0.5966458287326305 -0.10149275462986392 0.18418508872377312
Ni 3.0500126534347562 5.72750892294329 10.143491919660097 -0.46187040079023683 0.3036735086001093 -0.6361834818159365
Ni 0.9885013490260826 8.674409397250066 0.6262702288503463 0.5221889951746361 0.36687508095925847 0.1943172920617686
Ni 3.883335919866311 0.8161128760156142 6.137336269061706 -0.2135619992239935 -0.14891495266756935 0.11139741533808557
Ni 4.534915164708301 1.6668133810494006 0.5545570245136385 -0.06138534508601686 -2.197192256525777 -0.7099664292353579
Ni 0.13124185640231423 5.941658570048086 4.754734869343893 -0.2292660402228116 0.04529718127490263 0.8239678578551939
Ni 2.9550667660913628 7.77184413350765 12.317990035022088 -0.531928076839271 -1.3132752718104608 0.9225200417994951
P 1.806956588190352 0.22431904405924588 3.941795816605285 -0.3921659943155633 0.8675709392571253 0.989869831999063
Ni 3.9900075269685047 1.3395128556081017 10.786969758123279 -0.6737850942187945 0.4601930130878139 -0.7397634579921325
P 4.145713962152955 5.593566906726163 5.297168519254737 -0.00818407847268913 -0.16755956435195013 -1.422468994629008
Ni 3.602002069748247 4.814599071650818 3.0328588060152812 -1.5089650187397239 0.5336795123127389 0.09969195397569927
P 8.179194710994008 5.039185999742498 3.419643490672509 -1.477363846894675 -1.3357585405146415 -1.0975743718665936
P 3.199564244413797 0.6198475006125023 12.66339636947909 -0.8283703577982637 0.07725727912126695 0.5953888163970779
P 6.211331585813129 8.027019895752723 1.9135039860871956 0.9540613069408861 0.9984074371564289 0.46021152503057516
Ni -0.010410399890204546 0.9404119939994766 6.861183024992637 -1.8232978068258923 0.5928046006096693 -0.31680696065827374
Ni 6.5469096351632095 6.861019884543818 4.6082152806835115 0.8783148080371905 0.08069201583442877 -0.5068834751658174
Ni 7.490019008174396 3.996737070482251 11.30913598807158 0.48039674172919844 -0.1835813937015032 0.2984508267485892
Ni 1.025356259509079 4.054596313750577 7.402125237504912 1.8946888569743692 -1.4481018647057642 -0.34968879898795907
Ni 9.187634418281894 7.855917080711065 7.696737422448653 2.0958038886842614 0.5812420925830506 0.7499992767875276
Ni 2.6896391097330627 8.444807754225966 9.969052140892613 0.13692872683997062 0.21837459012128843 0.22318512413605435
Ni 4.924190522013109 8.685226721327949 11.846821880148068 0.5559774044789909 -0.15421579605519248 -0.4455302688693165
Ni 6.001557068926638 5.902171165959161 6.730807852224669 -0.5480648345001335 1.3529995869832763 1.171721644603969
Ni 5.373401455571201 6.225875186051516 9.616414791428625 -0.3006912860433338 -0.9894574270519927 0.72912166200757
Ni 3.1098462669075286 2.6028780528616227 3.8740841879364623 0.5468656719857098 -0.6524896751751279 -0.05688385767123752
Ni 7.067540861797632 7.2893562561281415 8.52051697262435 1.099266671967352 -0.6787614643874632 1.34018238061395
Ni 4.537955509436274 3.777544900413987 10.88184149071721 0.23242309779455456 1.6931639914205678 -1.0335960692424198
Ni 1.0439505629368684 3.4097651511096996 3.1788630191668963 -1.3349388728268234 -0.21760043095942525 -0.4549456486459455
Ni 0.5289615858021953 5.298931548423214 9.67933695021652 0.30526322168473236 -0.19873547573412226 0.06418090555328301
Ni 7.862794933723737 3.032122820126863 7.967962126346205 0.34419692263545243 -0.879097451839486 -0.2927506910400184
Ni 7.472092097491771 0.35535326716306437 8.443851157957896 0.5489518650907772 0.8693689116978125 0.6198279232760486
Ni 2.529409234831383 5.0407710575122655 12.416361871790661 -0.8336447188233256 -0.2860899911903912 -1.6819233855097417
Ni 7.079479776461137 3.088554584468031 2.578865818051209 2.4484427714394803 1.263947114999294 0.25555119917158564
Ni 9.34665000916112 1.5291265499844033 1.5329742545471527 -1.1016017478584317 0.8469895155613477 -0.27581766273010566
Ni 5.70050732479516 7.158519470044768 13.55674512479765 0.3325634521615821 -1.7799325524663798 -1.04718074990539
Ni 7.563413671455171 2.8832756992677195 13.478275495850516 -0.04323335676733844 -0.8791180206647763 0.8445258845122037
Ni 7.0827703934685475 9.22614854128412 11.192191167365687 0.9778026164218836 0.28708012301780234 -0.8452434794045185
Ni 0.5970884810680099 3.23044969756504 12.589078479567501 -0.08790550286373248 0.48733357805834776 -0.09379230066181266
Ni 1.6158041827626979 0.8795578257872231 8.56395682485964 -0.4665549507500997 0.6097607688480338 0.11327997707277909
Ni 1.859856732588355 8.819326316387684 6.554346429599957 0.7262291709511235 -0.4516448664074867 -1.0071540730008075
P 5.295353581761636 4.017537477706558 8.354772765165745 0.6803794596068605 -0.2009185994283701 0.11995173266599989
Ni 3.9377747753156664 8.490032882054573 0.7785785226406651 -0.3167933338115189 0.8508045184320638 1.3014060311767006
P 4.6103676222866685 5.9767801132623894 11.823242523687645 -0.06355612748509054 0.0735525765761701 0.07532818041935414
Ni 3.6272332232529543 5.866678848997544 0.5952772513123818 0.7514817748703251 0.19560130098051476 0.7320092679680104
P 0.4724167354680971 2.7910086522486686 9.024258528134256 0.3047019498646237 -0.4266072067125685 0.7946739939870829
P 1.7901698067807175 6.880772855931963 8.684021706649178 -0.3525110989281026 -0.07659907671197776 -0.22499338098938668
P 9.154987789830908 5.582592003805673 11.949412195226707 0.49343994806640173 -1.4498363308983675 1.152626318535415
Ni 8.645192425961735 5.439417721280431 7.30786435465968 -1.8522386582299584 1.351194158343421 -0.7818089650989567
Ni 4.161601617225354 7.8348664012073215 5.649969009167545 0.01966071165372098 -1.4058205874390497 -1.1276565359639548
Ni 8.493842582308222 1.8792852769476007 10.678532341049502 -0.8184911510113387 0.18056111881794065 -0.3862979655705605
Ni 5.975426789084694 2.223557970672191 11.828641916382903 0.3247750664654149 -1.2889737189506187 3.474547160290545
Ni 8.38385255016757 7.923268131910626 12.81124518202359 0.5862806834482226 -0.7644799869022059 0.13022277557470474
Ni 7.4835304675964025 4.9489304003026255 9.311450603459878 -1.533529081232333 0.08526883657183379 -1.0046683304644763
Ni 3.8484368409003955 7.455796591297327 8.037870589467863 -0.3366250238254654 0.9058222694288399 0.16161337407084422
Ni 7.194206443223725 5.310240147716287 13.259880489338979 0.5835758829225498 -0.13670015576893232 -0.46134178198027637
Ni 6.401621942278279 3.833587352320475 6.121463444939199 0.7287992456711448 -1.2348730804514734 0.199640761157211
Ni 6.005709734896553 2.1634277382015674 9.747210792399793 0.770642406959176 0.34111339861412215 -3.012328117911638
Ni 2.2969155565782353 1.1862720658432888 2.055112676464405 0.5857854889793589 0.08339038860219833 -0.35436614985897036
Ni 3.1520866660702587 2.8479687691797584 12.58384222732106 -2.3186413996729103 -2.14921829974966 -0.48356562637548334
Ni 9.332375219889535 8.75297635430587 9.947114385198423 -0.6677987947283726 0.018054029288233426 -0.013530687496583147
Ni 2.115356921862327 3.319361242170901 10.396929679964634 -0.946835478616408 0.7874234830722567 0.7302118097479554
Ni 5.6313672902648095 5.198887522054255 1.5342358122223883 1.431345728293348 -0.23692149988554034 0.7229019063501034
Ni 1.5982480458273873 2.054030944056617 5.704859281654256 0.9190804199903269 -0.5690398940899039 -0.6611134122883968
Ni 4.889263635016144 3.029861100268249 2.1702119708430425 -0.9501753416229184 0.18368269516605787 0.6784323631828186
Ni 5.721595081673635 1.8685606463065476 7.366620870396505 0.044190835584601316 -0.6584543773989949 -0.037957710190695916
Ni 6.452603332533934 0.9863415919479794 2.1786229733008575 -0.31285183266526767 -1.2652321523593049 0.15225532989471197
Ni 6.679943255699419 0.14710911891861034 4.672927349736566 -0.24488137816256536 -0.8760568652409494 0.19908051777836683
Ni 1.5347159642251595 6.334780704981275 6.471075280625109 1.332472670674518 0.585505752955411 1.0761213441991404
Ni 1.3692396407989893 1.1899612646290614 11.09855411135031 1.2993069825558268 -0.6951905564777641 1.162903532091707
Ni 4.107440842086483 3.1013648174377244 6.071022457420255 -1.0480875779903758 1.8063231266447664 0.24055729686591476
Ni 1.2928139021339229 6.319736560184015 0.3561161341481626 -1.273789812121329 -0.2443136785845534 -1.9915981059986088
Ni 8.715213048141955 1.3115657844043207 3.9617110015078802 0.8619397091132768 0.8478708897250367 0.12469258978509493
P 8.523402519312818 0.727459946098505 13.184015545966723 0.5787581498189323 1.4147307454444862 -0.09323437127581362
Ni 8.925274914682614 4.521076034589811 1.3806344449883123 -0.5267411333216928 -1.0364363669046923 -0.6487086108661408
P 3.758042201305279 0.6251384419866708 8.75848883299406 0.7166381848285787 0.4939348854249494 -2.0040108778406647
Ni 8.930354515020815 3.563830912462286 5.278514892027377 -0.5042388384541187 0.16944084053506303 0.01884078685558691
P 2.621870938067774 7.174935477707088 1.9522368656003368 0.16037513078836896 0.6238799818582352 0.6248125209748336
P 7.631357960650433 7.55386624746184 6.414678739789935 -1.182344414425138 -0.786409954206078 -1.411369285171421
P 7.469274217012185 1.9451810411889543 5.665597122616823 -0.07841838930890364 -0.16016455743945968 0.9205901717666338
Ni 4.894241272573833 3.800115752281718 13.333859121271773 2.1811621996461086 2.0943933814899798 0.46116797540657356
