# total energy = -381165.59703885677 ev
CRYSTAL
PRIMVEC
9.25361028531339 0.00000000000000 0.00000000000000
0.00000000000000 9.25361028531339 0.00000000000000
0.00000000000000 0.00000000000000 13.54359402182213
PRIMCOORD
 96 1
Ni 0.07971985175314308 4.857673413576403 9.043585622498883 1.2600626923432234 -0.28864489640176094 -0.13763218066489846
Ni 6.993749028102263 6.227596372745156 5.648287987460432 -0.7050882752074502 -0.04551109705792162 -0.5075730450336743
Ni 8.713097561507864 8.09104212396851 2.5879099673311186 1.1091831597501156 0.3670835974256388 0.8787773494959059
Ni 2.376789776296553 7.411012818613317 10.838857251398275 -1.2403657281349285 -1.1056790032515988 -1.1785191271417768
Ni 2.0044522632389534 2.8179001202571534 0.8589857981049551 -1.223083801126029 0.4320564027525979 2.381526469232905
Ni 4.297607910673648 4.7155749755588445 2.704385158743401 0.5065718574626695 1.5434900490997872 -0.8928266285001204
Ni 6.6004150735324325 5.141555666865193 1.2442598582027047 -1.030079571448729 0.6446182428468511 -1.6406682355146969
Ni 3.309053988104116 5.715779193352661 8.520084834885434 -0.14675188357797952 3.5702431057329735 1.8455347638472217
Ni 0.8164302955811763 7.694441645002989 5.439784717386493 0.4849357672501326 0.06394822071718663 -0.1646249072036584
Ni 4.9207367669945885 2.250838888053717 6.3733175991505675 0.8950141230697425 -1.1212814856755464 1.2063978558299158
Ni 1.7156563429413514 4.752043453302216 7.463793560392723 -0.7525834925749361 -1.4894408326638673 -2.1786697722415576
Ni 3.980588479308479 3.731758901404589 8.265642017042662 -0.41698948111714634 -3.953599472176707 -1.031494706628701
Ni 0.07613870461112725 3.013012491030807 10.880814970704032 0.02490653343369259 -1.191308308486645 0.3088321699829133
Ni 4.64099087745898 7.22773581526767 10.635296334524723 1.730490238674852 0.43093437333301265 -1.5613425039001756
Ni 3.275426368687874 1.2843085577270723 9.555736857219095 1.158822677154114 -0.17699165629912744 0.42157555782593203
Ni 7.524480586715121 6.920155066292311 13.139182596005151 1.4514360712853198 1.0420624548422184 0.2763419106646918
Ni 0.4971844456052349 8.572303882526544 11.681349414707547 -0.20323387782510807 1.4121257037214712 0.9834459307505902
Ni 8.540850861504033 7.883437379443638 9.771011919227215 -1.2145055725387148 -0.29366703220670065 -1.7415742644031555
Ni 8.855279282017097 6.012801573105695 1.3481418115127406 -1.3036670592967354 -0.5581062778965357 0.9653852165941373
Ni 0.9992140815039052 6.676526017313001 13.293091416703211 0.5223162647811197 1.0115956537119288 -1.31067794339693
Ni 2.6361869770329553 6.3537508404120855 3.4438781631543907 0.3009247422103785 4.36493484033187 -1.6901182626157085
Ni 3.4891847639864935 1.219995966933765 0.305694863219435 0.4371140197811633 -2.1965515376179847 -1.1295624947374159
Ni 7.2719680719571675 1.8637973884104249 13.060019811585208 0.42162003791062225 0.27649746240594963 -0.45160450008785447
Ni 5.710375085003986 5.954605618645391 12.284946676008714 0.4737715231031969 -0.10189153273017935 0.7866112715836066
P 4.320020154544352 2.927851516488244 10.51921442154535 1.0639034619767096 0.6431048915261183 -0.90136731898128
Ni 3.2804603326291053 6.594511270233708 6.244978354118702 -4.8121391544695 -0.593267656289017 1.8183160373405847
P 1.8901701774407738 5.3445428599072065 11.715506340626433 1.856039005812655 0.8112879483946802 -0.8278864761833096
Ni 4.785643311887898 8.062013548814754 6.2822093293414065 2.941894546580424 1.0288390141734087 -0.4358580358868752
P 4.790769811930991 6.602025201704811 0.9415900001531018 0.46004517465604 -0.7289717666932671 1.3316560883104938
P 2.629330051885064 3.2880760538122553 3.0571679427557603 -0.7160442599983217 -1.2409953912991272 -0.943732157100736
P 2.867351413091605 8.403360721359146 5.079633283582951 -0.9027775690652452 -0.2677336001703905 -0.24507729622345537
Ni 9.11441738166829 5.273512148118799 5.153432675539036 0.16857077922528388 1.39270873264744 0.12738376346401287
Ni 6.248398488443481 3.2171563853460814 2.4295038920826184 0.13954585274784354 1.2947414746723316 0.08661146664265729
Ni 3.485955254031549 8.225200964446405 8.618655215948655 1.3040707224930574 -1.201737217129453 1.1186391629566927
Ni 7.049973963592931 8.978000660304987 8.163929109960245 -1.7787429030336528 0.7016558524871335 -0.42203449974022156
Ni 8.989974831885785 0.42740482191398693 4.347994743497913 0.27036666691786343 -0.09939499156057076 0.479462145730071
Ni 6.689804947930036 6.720351115154311 7.846454400973921 0.5240270768246394 0.20097490658760225 0.9558819050893924
Ni 5.4808670451686465 8.308363159188772 13.19828632962471 0.6812099259279559 0.4425783853298442 0.3476643123587625
Ni 7.144425562762325 5.671102763374231 3.4114007674842797 0.961189690455551 -0.6121691211792102 -0.03680174220938178
Ni 3.739430144248855 9.116536458400903 11.807304929755476 -1.9584097921720984 0.2803510318240849 -1.0893823229741044
Ni 3.5294287146857872 6.948526635122854 12.757997706248632 -1.025875817780027 -0.2513857549399864 0.8770516250540508
Ni 6.60588395715241 1.1357696070199972 4.398634199880258 -1.220456647915827 -0.999023473473873 0.9699304127626586
Ni 4.273206140612936 2.892225117271808 1.343417843512743 0.5137256948986314 0.06746214740771607 0.8037785273915125
Ni 0.5975361466292786 3.03052957511307 5.020840471265645 0.3107761810831616 -0.8738225765937919 0.4942519024447358
Ni 8.076504702366165 9.034836334067936 0.32269004368720317 0.792470558577861 0.5191867180132026 0.9935305686801018
Ni 4.456362847026163 2.9301926798653244 4.328491834669715 -0.5359986473642188 -0.44286557755295985 -1.529505819005553
Ni 0.19294887671214592 0.3861438994552418 7.65185930700967 -1.7175645317521195 -0.25115101322136096 -1.6774517228916337
Ni 8.04160933835443 1.6872477596700628 6.167021315106009 -0.24590262033822816 0.814404382536475 0.5484574419528618
Ni 5.546539916659309 3.5229696947758984 12.831214120762994 0.27591459331928614 -0.9421501573255967 -0.5477784136079663
Ni 2.740558446321835 2.774435913213101 6.095971170736211 -0.7714196514448327 0.06802701877225059 0.4454657341799682
Ni 0.44289073856040423 4.641101920781213 3.219163493395444 -0.827635279404452 -0.9706194684098832 -2.087257541776147
Ni 5.666290886077466 0.3009736713024932 10.156570990518697 -0.903728877234921 0.4296354520159311 -0.6484751546990961
Ni 6.645221054053468 7.747714678844294 1.7667751363313353 -0.26755336583878436 -0.1506170229603406 -0.6456819082246752
Ni 9.047800641938647 6.331468147083988 7.217109894690986 -0.18523949813021645 2.0448176274443814 0.1117224027776721
Ni 5.185288228604642 7.012478335118905 3.2982846365695466 -2.0724868112248758 -0.17754315792722328 0.23171167354982677
Ni 7.821632517010761 8.38676899829549 6.15687750762002 0.21248393566846632 0.10440710006318148 -1.0394880092468226
P 4.843450614720386 0.43739409410986835 7.549754972216381 0.6850866352745427 1.2013721204805503 2.0446854727418917
Ni 1.8000307606180963 0.3018944055160089 1.9298672397780703 -0.5101492904012827 -0.680770267287376 -0.5014473917519106
P 5.299042858622214 1.07869333939221 12.310990961877456 2.0068668592322214 1.3778297586530788 0.49630775653250003
Ni 7.812739797621931 4.8252950315352825 12.542627332055597 -0.564897075566124 -2.109366200749729 0.026335038350103035
P 1.652750300896329 1.3800926767632633 11.142151728135437 -1.528394331108929 -1.2968842320469471 -0.37763283369639483
P 6.926012601540103 6.38297374137975 10.48368981204096 0.10873940888994822 0.24201639790994445 -0.4192078289247038
P 1.386940348300968 7.031170627694801 8.410084394520357 0.7250071256185643 -0.35592372415407736 0.41554195003734246
Ni 0.6948286041258016 4.148782098050805 12.853723527540652 0.36902786563620316 -0.7935272819771495 1.1497561960764715
Ni 2.244148527889176 1.0768426173549925 4.233374900927941 -0.9095699093967303 0.9318084090799565 0.21094410198517222
Ni 4.447062968789146 0.30067755577653843 4.253826304800213 0.6322383811252594 -0.3117632275867792 -0.43052659637163276
Ni 2.8201302403120008 2.7183405282650392 12.265349380356618 0.8905036367938985 0.9265538455492365 -0.6142789684333615
Ni 8.122300819177113 4.2917226145952965 6.8396366279801075 -0.35268233439864427 -1.2524895079816558 1.2633722163324306
Ni 1.8184084304476658 5.075438622085598 1.414790938878035 0.40855523430686413 0.6097592261861369 0.23205748692501968
Ni 8.072331324172241 0.9633285812022583 9.697185691801591 1.1579662426910897 1.2514374125680576 0.9518871821077027
Ni 5.69288576175228 1.079424374596911 2.291982289663099 -0.8431817117794833 -1.944203161654413 -1.236385917551574
Ni 1.3799168581697276 8.997609060289307 9.378830039125551 0.5100474747160958 0.4189728300957623 1.3469371828392802
Ni 8.662841204587224 3.546529386309677 1.2622359213501981 -0.46973977623598456 0.16703377375546716 -0.5522058532517006
Ni 2.252985725616889 3.732628740762081 10.165916211445625 -0.5919908464591225 0.43286578602777065 -1.2153720343040681
Ni 2.5786387752856776 0.29711584121591333 7.057972784237785 -0.08867966202559566 0.6733850305668984 -1.7993073574485658
Ni 3.814042003179278 4.750516607621511 0.09425357191141198 -0.6611018423241711 0.7439870091551767 0.8084365949888142
Ni 9.281741161053121 6.266526310798025 11.078713603504715 -0.20932842075862015 -1.3208703105488993 0.7641048629509745
Ni 7.267220969931705 8.740192132132728 11.68722730789775 0.193544418451486 0.35702029965236576 -0.8613064464046521
Ni 4.053877071982291 4.964709922598876 11.239124010719523 -1.3461370555354881 -0.4477758703703837 -0.8532352393607433
Ni 1.5721883706162518 2.1197522461576024 8.325084432795032 -1.063236517816672 1.8889380705335213 -0.5655035988018712
Ni 6.398455031221075 3.8192980537649754 5.448100011499711 -0.3498662051060878 0.12682300586453643 -0.6456860219897331
Ni 3.754624572174411 8.551455498777289 1.3821238441991095 0.7345893699903606 -1.7564684079061685 1.1065230964194492
Ni 0.6294629524933173 1.3237104298994327 13.314693969682631 0.048505660909871295 0.13435865211994924 -0.8635271082050547
Ni 6.424207828368956 2.2226616450370806 8.364577915708235 -0.3199835586140425 -0.004863241629572269 -0.554626032657419
Ni 5.478239019875796 5.16731771762326 9.073693168600336 1.2604221325651714 0.3041324505143988 2.1461476312441357
Ni 2.2640067753485194 4.708930883445233 4.5555365634735185 -0.4432299028709141 -2.6964094733955886 3.566546887828309
Ni 7.884945717903971 2.7317397558144942 3.8082686757841784 1.567835567823687 1.7174544885368166 0.669317288255428
Ni 0.4305445718501264 1.8957593579931706 2.6759293820601635 0.32181366984424575 0.7062992647964158 -0.32914542761896864
P 1.396471566792638 7.369288290284249 1.7877410409299537 0.559724787336565 0.1735659184470301 0.3778246379922267
Ni 6.498375514010446 2.6542315168958255 10.688347281721562 -1.7085669562391994 -2.5251092110542834 1.613491417989589
P 6.493970795561868 8.210247130385687 4.4166472774684955 0.6031779734241934 0.1321125363982499 0.06355072816845184
Ni 4.416766649039896 5.473889823088336 4.930829679624554 2.888880456277238 -2.0074469001054074 -1.5523721820807652
P 7.692840770440796 1.5932958554507173 1.6685841532857433 0.5894979048339396 -0.16105955844990327 0.028986617040337174
P 8.579688263455042 2.6591266766842656 8.093786744749703 0.9463037744826542 -1.0087234743704563 0.9962520813763229
P 5.144470554073811 5.439568182908138 6.952928577488375 0.19205626394173375 -0.15454258326699188 0.17768508282172624
Ni 7.583509366092173 4.286318506246621 10.101868273903639 -0.514736652661649 2.632817607576556 -0.18620109071253738
