# total energy = -381174.4258097676 ev
CRYSTAL
PRIMVEC
9.14307615013949 0.00000000000000 0.00000000000000
0.00000000000000 9.14307615013949 0.00000000000000
0.00000000000000 0.00000000000000 13.38181614202554
PRIMCOORD
 96 1
Ni 3.093587254726036 4.812750725772197 1.6449198638494575 -0.8770002029908252 -3.3333185205236395 1.7626172011163836
Ni 5.153302884248052 5.271010846989162 10.16279340895352 -0.6812477211444268 0.2768113941019426 0.3955156275140866
Ni 6.9228995635030035 3.706593940289226 9.868166007822108 1.0318400057832615 0.5558424215630233 0.6772555692658981
Ni -0.29589554579757754 1.5678272741150705 7.039838593537378 0.6937322267646827 -1.0100861590459378 -1.114374474143068
Ni 0.7906785991231052 2.1031909567578384 13.061683427964894 0.3174435658010081 0.3144433455221036 0.011409527388522286
Ni 5.32856651154216 7.956432894888365 4.661448358222972 -1.1783679462758931 1.4344397938376392 -1.347744509231924
Ni 4.158161329742442 7.403587650589468 9.009990477415508 -0.22497461193630933 -0.5510943653550767 -0.8706868591782875
Ni 1.0208427416475438 2.880114712075776 2.1108747979794966 1.1857984344120096 -2.3027221573394923 -0.6796484949781069
Ni 2.794544662107308 7.441330269060441 3.928727719004784 -0.8729046927652129 -1.8976163150338092 -0.8678378197652667
Ni 0.5611663579302997 1.0040651968572736 11.095251861784398 -0.7991821662700818 -0.03440084607737301 -0.036857535147981686
Ni 7.418225715553622 2.4385498479634617 2.9387008013142575 0.4328200203914998 0.4372124930322406 -0.8080367884472341
Ni 6.6603927032994905 0.4281437425877163 1.3027402378135662 0.7959572315748807 1.4295531551692993 0.7141832955301829
Ni 9.139482951045 4.122631335707026 3.558907659369184 -1.6151369240128122 3.08160160749648 0.850882679968167
Ni 2.1373037739853573 2.5358504646708484 8.39217819101212 -0.32421096643182873 2.1317036879046642 0.8628763619949333
Ni 4.328862562022739 8.319760456128558 6.727279791401779 0.5044334709634279 0.07294862444358403 1.4625283245437393
Ni 3.501149018524991 3.4722386116438826 6.333024860675173 0.1134643251694433 -0.04794233220723356 0.12934474384512562
Ni 1.580014994662989 5.837159267129935 5.185989381591494 -1.2473498727622452 -0.4116804101994071 0.827539377256536
Ni 7.641472206640285 5.891688573467357 1.1696627640139032 -0.7604634095436451 -0.9721613589757063 0.6955913914606084
Ni 0.8149095796152982 0.24160853097892415 3.407077736324374 0.5613026733466462 -0.2576834150232401 -2.1091183464049803
Ni 8.89191587731958 8.359066540626308 8.138713833150609 0.8539906294695292 0.6616291755825509 -0.20179354583415568
Ni 8.119837952377035 3.5099355147339555 0.7977461970102327 -0.8312883027760071 -0.4521295193533891 0.5128288941159749
Ni 8.42592985673053 8.001617977369845 1.7466484723508107 0.17743311471192022 0.9273262049388868 -0.09620965185405367
Ni 4.936227969582878 1.8040020749202306 0.7157721189033526 1.4516921531601839 -0.5031723448628174 -0.728123816870675
Ni 4.055932594974044 8.410359197996017 2.438260926756174 1.229317954961199 0.6858019161740124 -1.4524786536172212
P 3.349364810861081 8.295449016565982 0.2665801006416957 0.2880836245816522 0.20667478518585694 -0.8086906199811491
Ni 8.332377901256937 5.883980960247632 9.704145621306525 0.2357112816275231 -0.07553721110636669 1.0581249076217196
P 8.35830766530337 3.5104932423809343 7.594006840959518 -0.1596837611482992 0.9624667573957619 0.37563482942975956
Ni 4.224000621314505 6.332494562256734 0.8979570548657084 1.257198483421551 1.9308218552515004 -0.7865274536205487
P 8.820206730839967 1.0905678405960997 1.1031139697302734 -0.2877961752482205 -0.3899864701657413 1.4226551424978855
P 3.7453788694447163 2.6270343634138262 2.323524463773558 -0.5200588362055109 0.35397945594351293 -0.6852853815489102
P 1.6082488139067788 5.685484776380185 2.9826332823590795 -0.2714861252342873 -1.3740967739732077 0.34902931102708923
Ni 7.162978457837016 1.915428744325692 11.48926632960747 -0.33626635493446605 0.08219611118378102 1.1229737857763047
Ni 7.560565125523609 9.242918571869156 4.130203631399288 0.08337290510070158 -0.47692318135830125 -0.36203626480971846
Ni 1.9624515851193485 9.36406433125394 8.481180551778554 0.3226449074962895 -1.2354760041427948 0.16717287043649273
Ni 2.4178682096443387 5.833657468953001 10.684751513301197 -0.9952462658196278 -0.1809583542563593 -2.22693297812332
Ni 2.936792641315495 1.7421125922579204 4.117611786884214 -0.5855404628480883 -2.1157777607030273 -0.6112095854794184
Ni 2.277595134891028 0.6287190619784915 1.4520741010612406 -0.0681008094329795 1.1919631684618246 -0.49290258750569305
Ni 3.06892837826862 2.767746305823776 0.13600782971534803 -1.8664763990958952 2.1350466362349683 0.6442811712224066
Ni 6.817425036690711 0.11124929372757009 6.417879007778748 -0.03126204333807519 -0.7150374160003621 0.7303676185995293
Ni 4.939007464741593 1.9622961528242888 10.436505109015604 -0.20397127021176484 -0.053456577157243425 -0.45274144190577514
Ni 2.260552440891538 6.993209819327078 7.060540346624096 -0.08726067019088198 1.738813928049199 0.6823293842443797
Ni 8.494274351175907 7.066692722585607 6.111836476036624 -0.2008774617777895 0.30232702187454386 0.24423191750402454
Ni 8.842415262881149 2.395586532993718 9.334753457636149 -0.07633656707921047 -1.56171942762362 0.8257830566870618
Ni 2.7526968024315224 4.953846677381707 8.182297962992974 0.4227757487816203 0.3940056186274634 -0.11748475918274605
Ni 7.853701290930068 -0.09963210113328275 12.65836862305154 -0.49362223928053695 1.8531264601515505 -0.21931998475369324
Ni 3.237846710693819 1.0058389536361905 12.164271300439513 -1.018050151088021 -0.5871124353208986 0.4503302613611212
Ni 4.187702608879969 7.106647965492137 11.269402776707402 0.1307087140721878 0.2830218937880287 2.425141377709378
Ni 0.9357664177927951 8.337013440880186 13.001799021908854 -0.1195994915329037 1.1084462815840912 0.09486779311417856
Ni 3.091996359470719 3.67028678477851 10.190976026970702 0.9955419426831758 -0.7575452074555857 1.3536122808666107
Ni 4.107380684638812 4.734833430566376 12.398533369707819 -0.14424942887109996 -0.7779885629116021 -0.13029528068385302
Ni 7.964341655784051 4.609884151490719 5.78965641483683 0.37844838761915467 0.2736592216262061 -1.6313233039646873
Ni 0.9414991265576449 4.949192851606095 0.9096784785284476 -1.462941500821758 0.7567833895888966 -0.24844261315126248
Ni 0.3663164328434303 5.566103630698137 7.583260983525182 0.4826742249094655 -0.05591403755880047 0.38930898448274237
Ni 4.756054510380118 3.5909340266124317 4.064312224292999 0.5387052476621045 -0.8470486509340573 -0.8307709968199565
Ni 0.22945463981287179 7.195756385942258 3.791282597713943 0.1398312451987463 -0.17769305324152623 0.05606239021120667
Ni 5.565509330746438 4.218551347911235 1.373174839473689 0.46029380033173634 -0.45034363109755987 -0.08325874812034047
P 4.785202637241906 5.557783431374352 7.42642614057945 -0.893153672822236 -0.32601588085105143 2.2231524280349646
Ni 0.8230002877269658 8.856779035559903 5.668323222390356 -0.5367113571605273 -0.15291970295158824 0.6449445158380183
P 6.004468418147457 3.3802866945017858 12.460438395599637 -0.44728067590152004 0.14204085125555538 0.9709161737146956
Ni 2.2513179339497547 8.357429929990092 10.813189790247135 -0.088856296812776 -0.04416846698709812 -0.07794762032007221
P 6.893568575117616 4.704908142229289 3.144646763653155 -0.5896125760349329 -1.2873649797026023 -0.5519523424799977
P 1.8872040681580826 4.3560906428867305 12.404769861970188 -0.12737836414737416 -0.5896262028816878 -0.5678235051842995
P 6.178397156319288 8.039415454297897 2.735163125241168 1.0969583355491495 -0.2277244067673046 -0.4863593870705365
Ni 4.332967803227551 1.2800855236548025 7.833728241014893 0.33860837280408135 0.28801677589945884 1.036633056296531
Ni 8.54917852363671 3.6596899594859087 11.926169139175611 0.4395951343318042 -0.1860833341877505 -1.243992269143922
Ni 0.9986799249872633 3.7496852583254885 6.084604737942161 0.29608129807514816 -1.2349257880662796 1.1389681043220319
Ni 4.6052760410960065 5.770021658740315 3.353777259425541 1.1834692720582005 1.0132437308383129 -1.1665313586522812
Ni 5.3661171254133535 1.3230214093960062 3.2114890506821623 -0.28207624204530773 -0.5127461045941815 -0.6460508615283196
Ni 2.284178149740616 6.539265230067066 12.796736280728943 0.6089498429109642 -0.10063786282873634 1.161308162580129
Ni 2.347649384582063 3.869797850101935 4.221815426107489 0.10739600748817632 1.1341303166137564 -1.2744148472998376
Ni 6.990567470311063 7.306826475376701 8.501601612426548 -1.573836008381496 3.750397218920483 0.4730300169514821
Ni 2.2446069160336464 1.4953501092363397 6.556407583596917 -0.09272040775387257 -1.2359218334309618 -3.2726499989989892
Ni 1.6880770120342166 7.389086731768014 1.7404256947027137 0.15925824357510637 0.10053810402607846 -0.5257373746475268
Ni 5.06411217611231 3.700184643887057 8.615708117460361 -1.2608293953059189 -1.2110237846377014 -2.2081580115086616
Ni 0.8546673320763395 4.2656107610096115 9.58845919270881 0.042497249932262296 0.5547183352609092 0.6680067969741205
Ni 8.945759452943506 7.9500784569432765 10.77339272255852 0.38857467741987917 -1.1899055146018476 -0.15152127994216485
Ni 6.92432588338708 2.219646318062291 5.22428789909421 0.7649592405314697 0.7239897400976435 0.4538215623438313
Ni 0.16058990433285228 2.0540926376713253 4.418434536435185 0.19142325834342516 -0.03863725275622378 1.702449530487552
Ni 6.708878436281944 1.7653725780597993 8.311111106062294 -0.6108570872360061 0.31605594142486215 -0.6119189528416171
Ni 6.320882855508154 5.549618664345627 12.364423295403153 -0.012989470281132467 -1.4275019290672255 0.19929109112727614
Ni 7.422157238311016 0.3280700308749403 10.055377807068218 0.5274780114877173 -0.7203595995442238 -0.6742535492147808
Ni 5.726473186895053 4.326457932987402 5.929027982278794 0.5009773940940275 -0.8331868053503005 0.6723475904413194
Ni 6.343813690567553 7.150434157318078 10.740473076772489 1.8372154453482488 1.9952917528001124 0.23243286798656745
Ni 5.756965345955298 7.776753161799324 13.599672087778934 1.0556275951211624 -0.5135128075568769 0.19797648608091065
Ni 5.187287698409051 0.028038157413538118 11.913376146984579 1.514343766553134 0.3042458361638115 -0.6307947067001974
Ni 7.116504201614158 5.379118579741291 7.852436803494376 -0.9081048948154297 -4.279895860382656 -0.6723149374311711
Ni 7.246665034112407 6.518217868700743 4.199040023343149 -0.9073502760375921 -0.21044556508219883 -0.7867256856742838
Ni 3.924958028695777 5.885535283198229 5.5338221716294695 -0.9085720642598353 0.23974559959789676 0.08495336221394402
P 7.804959551814575 7.0020054586122225 12.717342378720055 0.3662585304211821 0.4738098325403001 0.12185897699104174
Ni 4.861967904849051 1.319117315867153 5.397100267664464 -0.7335210766268464 -0.306474211273698 2.0141353678691765
P 2.940843024063228 8.788964839532962 5.3229654630743015 -0.0896818780378649 3.0749190532699817 1.3674566429488708
Ni 0.12126187645227027 5.750464618791329 11.886692993460914 0.8724658054555814 0.41801149462375753 0.16136423417451562
P 1.3319084794429503 7.201315376259688 9.16889897003886 -0.005224481623732938 -0.5550188972204634 -0.4373464475069435
P 2.413616679220646 1.5096315942294742 10.249373768839877 0.843728585421889 0.07621598234094615 -0.37159382659116647
P 5.6345486989814955 -0.16579048606402705 9.150485728919993 -1.2800437634508406 0.8280307150706578 -0.5502523290697555
Ni 6.075372973923232 6.789291791284901 6.337600970303255 1.4686714613269998 -0.22532813862098613 0.0889452569821565
