# total energy = -340898.27868395526 ev
CRYSTAL
PRIMVEC
9.02435200124523 0.00000000000000 0.00000000000000

0.00000000000000 9.02435200124523 0.00000000000000

0.00000000000000 0.00000000000000 13.20805134930606

PRIMCOORD
 96 1
Ni 6.260905974355391 1.9865667247909633 11.40214073030922 0.7133044924696554 0.026067643621329302 0.47577415535552253
Ni 4.665553937374639 0.37895149574393144 6.069113224082206 -0.09409517661421214 -0.05926135676447858 -0.8605436000966985
Ni 2.723359951850655 1.6644334522926747 4.790150459489221 -0.06816071613663745 -0.4803993128323597 0.0703024450699886
Ni 3.337322722501388 4.25321324130248 4.796648895435154 -0.26718004165976567 0.16907008745920557 -0.22936117103977918
Ni 5.099056739117139 4.274402420029116 2.743378672110151 -0.48943674044427965 0.5509989774277929 0.27134291478820366
Ni 7.258304441307664 6.022960882581456 2.7031336714929006 0.5578324554098587 0.13146744661508325 -0.2598004613662429
Ni 5.13003733987035 4.573451399860141 11.833013835850299 0.46912836790423074 -0.8112820348574092 -1.5082057719761963
Ni 5.717242906549842 7.856646058476366 12.265538397825349 -0.6743749052839935 -0.12162886325810665 0.7938576687333747
Ni 1.869791608639914 6.527584603210079 0.467180781337871 0.024578460670312507 0.09424455770788286 -0.5778608348156434
Ni 2.559107719310837 1.4405122036793838 0.2669583837697324 -0.15754306065621254 0.3023308785292858 0.2604787183801901
Ni 0.5693283251729051 0.02948707048095466 4.64499465842446 0.34298439038458994 0.707851182664568 -0.031606314051371376
Ni 8.531171256058297 2.0431494124468426 1.3453720692486226 0.41424765670595115 1.3666963677440787 0.06009130886494166
Ni 6.909486159654921 0.7907741940056525 4.8189841668782645 -1.1444427542833582 -0.3204371012116933 -0.10803981171976233
Ni 0.7461650167136998 7.424713493998958 2.544240099229009 0.09216376391945418 -0.3571259719922946 0.1231373294828331
Ni 7.514397505151131 3.9042054482556736 3.978186184321723 0.8741552773428622 -1.0125251075047337 -0.7986422346062118
Ni 7.53720204290335 3.6961941323915557 12.626368994556042 0.1680907542650718 0.6748896401368828 0.15104228342321727
Ni 8.14731141520814 8.812388116143227 6.758916649766433 -0.6475241036397364 0.09603635950098299 0.7805948901861975
Ni 6.724306454599316 0.665483699214717 0.487919644894805 0.07356234676818299 0.0036674215492582003 -1.1390503796231932
Ni 1.993650841188071 6.62323371109918 9.135414799499241 -0.5137578336881474 -0.4654820294008951 -0.36456365921726247
Ni 0.09219187860027075 4.810503080776352 1.240459463930692 -0.14131502883312438 -0.28458049652440026 0.5295559770626687
Ni 6.466968030166293 1.863086515030932 7.075579360022777 0.09156264000034553 0.09649478719464026 -0.07622292431948163
Ni 3.4494502973218504 4.241012317265678 0.435456573971766 -0.9667191049142125 0.41929370377029085 0.022308433689213193
Ni 5.94565828250805 5.394911098305393 4.798141523272201 -0.5755758954362088 1.438166093649291 -0.13567377138694697
Ni 5.414141992626713 2.775547780034698 9.25222691549389 -0.6603009436894306 0.9990643540141374 -0.2972660624118687
P 0.2751660320030693 5.596894146967895 12.285826043777373 -0.239713975029013 -0.15361030126070965 0.3612212251075908
P 3.999791385680087 6.165220769057897 12.661092896559598 -0.6438692804959685 0.9537882557851572 0.1345129183096264
P 2.3211716518890007 8.535403677192365 1.3901211239980977 -0.10000588567169229 -0.4668238881407702 -0.11726595830372064
P 6.362457008516732 7.796498751741689 5.742688872161211 0.2488493616713779 -0.11958637890678113 0.04168889509835401
P 4.676933645370503 1.0555874892816366 12.573893289540067 0.11934392387867189 -1.0614514008917912 0.5207484060733677
P 3.9999628483699534 6.169453190191965 8.176127073892987 0.06000851934314826 0.34717528853748597 -0.5364545039547148
P 4.698790626152407 1.0310232028702644 3.905211663514626 0.7260111414030463 0.535327332328807 -0.7894793371600209
P 0.2708966110253984 5.509971587557779 3.616456762122047 -0.04262271976653305 -0.007305532522477741 -0.23054310716302231
Ni 1.524510873009675 1.1448112584768007 2.605168914855394 -1.0518120780298144 -0.35087896264131824 -0.2576916425533562
Ni 1.926996976590571 6.505908109470139 4.755505971784131 0.29523154848034316 -0.0062678352865827534 -0.3592851844271425
Ni 5.927835187114052 5.684809385108816 9.153087188213195 0.65515333805022 -0.15236563022033114 0.4015898587326245
Ni 8.513745232156621 2.4437945481997003 10.121435363326068 0.7263158171276588 0.3340796316957924 0.5292734128252432
Ni 2.4636842202241915 5.158770876951103 6.965622141881937 -0.23028805372942274 0.03165542212175194 0.17796121930124834
Ni 0.5945929013070996 9.01640164402783 9.072254261598962 0.07474016912636805 -0.010979896050271413 0.3122013435654623
Ni 1.3152632209081 1.059874056528294 11.37507760080185 0.18514488153388112 0.3037187600157479 -0.4182058700227507
Ni 3.9982662701754865 6.965166412100977 1.7484158777891892 0.6702179456928263 -0.11896879992744028 -0.9724012429006544
Ni 5.62490573588079 7.967609491876159 7.864813097125262 0.30276668051512373 -0.05716050837139188 0.8478667759599786
Ni 5.277955495112378 2.9481024165048844 5.002602659020876 -0.3068429074670264 -1.1601532230400795 -0.3620882010935764
Ni 1.070594986820987 7.40267602617509 6.858188132587762 -0.7871483750339991 -0.2655967563330458 0.48634910265789144
Ni 5.082740710523546 4.571899211299246 7.03098913387023 -0.7522261092355174 -0.37524684996272145 0.4714032799813366
Ni 8.124254195597173 7.1718421238545575 8.946579329408644 -0.23488287218895676 0.18160267270857755 0.18522741394535844
Ni 4.620991686713597 0.3525895583945926 10.413835200531121 -0.20737592501793964 0.04493954082516776 -0.48955886784444075
Ni 8.336669395285224 7.145833941107469 4.899711508572948 -0.50294171690925 -0.6695844258738856 -0.7835637430065344
Ni 7.182942076935375 6.063759978417538 6.803638631459613 0.1385480076109485 0.08928052883438817 0.8688438924322779
Ni 2.396543040613387 5.206572870015409 2.5167284594223562 -0.5388880530968719 -0.42029077757623745 0.6583870144961693
Ni 2.2616650741532958 5.428707296913251 11.420183117459205 0.3306940030530111 -0.6664726197177812 0.010362059960614413
Ni 0.9729514971181775 3.3553443536415455 3.6102759833699722 0.016523965796952186 0.23934707860789745 0.29723083829855906
Ni 3.5413633234422863 2.4314041127688357 2.539802825302311 0.46593325800570073 1.1212133514417724 0.11878753715456962
Ni 1.1079377558034478 3.4853401456164965 8.289306888168102 -0.12522069437442307 -0.7005317661850193 -0.5846503469336511
Ni 3.563265425984681 2.538802927089828 7.087981527111369 0.6503430611457702 0.9499298012710157 -0.19342691903701528
Ni 4.2307245558737 6.804578066513039 5.924577396006593 0.004048973258393027 0.6001471570176696 0.1008576921490263
Ni 1.0073884247250093 7.526129162878827 11.284787153188674 -1.5787617278178874 -0.5788319404796611 0.7852390738264282
P 0.2585621265775426 5.613029688519523 7.8664248464100055 0.19448055711251022 0.3757291889157787 0.4276456752794119
P 8.458137174527351 1.672329760378623 8.00953392441889 0.2033755456092949 -0.1554668948534742 0.2333468951604046
P 1.8860354424167216 3.419092376863417 10.390721127501934 -0.7257247205108792 -0.6945079285884427 -0.16501622910480615
P 4.063413067972583 6.148886691760108 3.7930615278139177 -0.49190242837595277 -0.6689627331294866 -0.272901260414259
P 6.857334428879271 3.9933931200424446 10.454066664620225 -0.1425913244423867 0.8346903864790205 -0.22947327113761126
P 6.319988407542479 7.758036963099048 10.140640087026304 0.2716933561490869 -0.34060303463660696 -0.37037949456809116
P 2.467131522725714 8.62166745889931 5.679277457272604 -0.023932599556197493 -0.25729106468082785 -0.17984763769068382
P 6.943363577431661 3.942775529123493 1.6227680186551638 0.32341186756930107 -0.21704327290437458 0.009023800765165103
Ni 5.240594677425722 2.8084054460243406 0.5497138958874102 0.354337353503564 0.00998899289191183 -0.453561109593593
Ni 1.3130161572356418 1.0843480994186838 7.01582641747479 0.8057233098227091 0.44489109262342097 -0.3283213890557765
Ni 6.924638046827843 0.7637670154812904 9.333668083439546 -0.4682781040887935 -0.9108901708700505 -0.9119180979139327
Ni 2.6776425841210405 1.583954280280692 9.16508055215174 -0.0840817582422681 -0.24683850188893616 0.7629877186273956
Ni 6.219727855731185 1.93565133025277 2.5254586176421805 0.7772000055720357 0.11210138338364564 1.3145842204298714
Ni 4.183716705794039 6.933445814475712 10.27600897824054 -0.14284560654503786 0.21164935558231293 0.9623497722019234
Ni 7.947015920388006 6.880644330348989 0.3080291126039704 0.7145105969626145 0.6938872642853081 0.7921088043630681
Ni 7.553400754919666 4.048685325348278 8.230795696468832 0.28412849658864614 -0.7898907136658267 -0.046254660092165494
Ni 3.17897241623381 8.335144279780623 12.337086168565719 0.23754987749815862 -0.4590977231411061 0.5045023765281506
Ni 0.08086721915220649 4.979971388828944 9.946230274644632 0.10089034515917464 0.05535842216564659 1.547521281746367
Ni 8.67346723994313 2.344030335753808 5.717990122903575 0.02048809265102278 0.26091606302792486 0.17686130136885025
Ni 3.586846058017347 2.565172083920845 11.525041576664545 -0.007197289079387605 1.0470691640281902 -0.7473842077621837
Ni 1.023153967840611 3.2879685408761876 12.559694373948718 0.11120149727719558 0.5551906469116374 -0.7105197306356666
Ni 3.138597464946345 8.363092698228831 7.745848673155183 0.1150203568026535 0.17395569768628105 1.0738842273385054
Ni 5.663439719340217 7.877203532556126 3.565236344482934 -0.30848198573234614 -0.047357149127724894 0.43106447115297375
Ni 3.198744771681024 8.3978545025112 3.554088562335995 -0.5661731140650701 0.051548818611569285 0.6459822130739133
Ni 3.595004072314144 4.487449324364044 9.582943249272802 0.4533016852846194 -0.3810027786098922 -0.5379210611979123
Ni 7.284068966548101 6.126289714106148 11.447972707310484 -0.06088629396241128 -0.9290925528106903 -1.3690903218975519
Ni 0.4056707974363601 8.873058835299602 0.26781659965427373 0.11137941761595657 0.11638098459560602 0.2387706372791372
Ni 4.3955723956520005 0.4114526998256937 1.5413665578587423 0.8584684627352247 -0.5926431353311405 -0.10495654480874826
Ni 5.795285503495303 5.580542020965909 0.7023644213697483 0.13710870406126063 0.5398617298640509 -0.5564011222799707
Ni 7.967844125030712 8.761373453731954 11.285764490520915 -0.024607514136035038 0.19544883456305048 0.6084988714164746
Ni 0.1325226105624542 4.8220452271099825 5.860782446153811 0.07408170960676273 -0.3962939004410079 -0.5129157974028263
Ni 7.837875406112056 8.774765592245721 2.633170576980981 0.0762982576421073 -0.03735401516842599 -0.23774193890430667
P 8.394452321770167 1.6702451350439327 3.5400620118697215 0.6744265844575353 0.2240703549544851 0.08707066566726296
P 1.7294087873999047 3.1598588384897663 1.4423982932679134 0.11389832738306836 0.27194635270015743 0.7225779473517814
P 4.657450069190432 1.0546399323113227 8.213083600605644 0.5272419842175113 -0.7591341492092603 0.24747227881819317
P 8.442290412242865 1.6621683399160199 12.345116939497931 -0.5317308732268005 -0.990367854681404 0.004551623926424419
P 6.286480988201765 7.769543012024286 1.3679843883011484 -0.6575349509085192 -0.6601667321044113 0.7953471087947076
P 1.7887980485583326 3.1713287900066116 6.075677537798456 -0.7433642879695133 0.44165381663304587 -0.681735973634755
P 6.882783101796268 3.8263433383521765 6.131929934167539 0.9502059377505376 0.49103570950028336 -0.4909801736719996
P 2.4749014898822868 8.521867149045026 10.209031139402713 0.7404519994187249 0.8729154913984901 -1.0456180334039604
