# total energy = -340892.82094240846 ev
CRYSTAL
PRIMVEC
9.05023375266885 0.00000000000000 0.00000000000000
0.00000000000000 9.05023375266885 0.00000000000000
0.00000000000000 0.00000000000000 13.24593190868137
PRIMCOORD
 96 1
Ni 6.179671474483184 2.0751823695783163 11.421688968995735 0.8720752548853818 0.54264314926393 0.6241023822816865
Ni 4.837630430504967 0.29718071154040737 6.122746409997059 -0.8178936266366559 -1.0088214334009014 -0.10302744610683547
Ni 3.0305521818724506 1.4981847247329392 4.736374606647089 -1.887322389306969 0.3271975598639784 1.6584507563090984
Ni 3.45990431533821 4.256333924687094 4.889908200023982 0.4255607677259251 0.2717740887883513 -0.0737315253561956
Ni 5.099643744220261 4.604550713692987 2.7302382794506146 -0.35069512876528636 -0.017837028181420893 0.3889528866949043
Ni 7.4986344227143125 6.235982028106084 2.4761149594107383 -0.7047056950570508 -0.9208498531859237 0.5089714680430976
Ni 5.107770854016686 4.563616507001187 11.618086278873559 0.027947634252861543 0.03660788103102082 -0.9597835541366438
Ni 5.488396529638394 7.7406286196482075 12.187131483431498 -0.8426240395038005 0.24939160732809304 2.1272402528166716
Ni 1.890566653835224 6.496257696965126 0.3270410523670537 0.1578917022448829 0.5308111896260085 0.8087194163365556
Ni 2.5480027751512417 1.444942200309359 0.25938693591693796 1.3301638200356833 -0.7984846259824249 0.3759593026487138
Ni 0.7166264592788087 -0.13396517823008716 4.659720032855607 -0.710572438250473 0.865546966848561 -0.14121038493446003
Ni 8.881673025019714 2.6246039525643274 1.2424224073833383 -0.7503139798144691 -0.5080777525842347 1.6002263254495666
Ni 6.955584204201224 0.5261317117720657 4.781118961695563 -0.11780948951201645 0.513541089691651 -0.6801907406348221
Ni 0.5065479112280941 7.550519412093946 2.3967453155313643 2.7004569039920847 -0.7332680800757759 0.32167380183227184
Ni 7.743307488801596 3.9557575654900945 3.7522150961643006 0.9305940770568811 -0.500210434021016 -0.2145575303680434
Ni 7.383768857529189 4.010502428695641 12.623200700294705 1.5076419290529262 -1.0081231217822961 -0.07024896612423386
Ni 8.201602269404294 8.979641804024515 6.83512559463504 -0.4842107161586499 -0.3218298677941619 0.059111461450175616
Ni 6.790996655473155 0.6504393856995178 0.46220900664607745 -0.6937620515613536 -0.6830387516065785 0.07590822129254023
Ni 1.7512383071581858 6.662266132372524 9.257793494342243 -0.37965629188432676 -0.4482109010252733 -0.38121335195880157
Ni 0.28324244673252774 5.03541423617434 1.447475360701363 -0.3608990658814817 -0.8947595838567752 -0.3241351188885708
Ni 6.363002057051341 2.0134507260132577 6.890454197909485 0.5369664105941269 -0.5339664474255384 1.0778812643130404
Ni 3.5119884098576226 4.291883242371238 0.5928509390885837 0.04104946174214221 0.5436857315958313 -0.5911984324648141
Ni 6.37045944955942 5.686469942783809 4.689841020410691 -1.1389153967072256 -0.7163602485768437 0.6874258249306806
Ni 5.134704349288584 2.9906225511131717 9.202717392585974 0.3591789978665814 -0.18288411052416245 -0.027065745868540485
P 0.13415342308951442 5.499519266765129 12.357845135301217 0.4797881616109221 0.09374036437795469 0.17410842121406145
P 3.8760974091113156 6.093151241015664 12.677893072145219 0.5976431596488933 0.73147267873825 -0.6509511270434144
P 2.4565049131892507 8.476059654355764 1.1833542475745027 -0.602841158910065 -0.26613848776912874 1.4063134679150682
P 6.613132414015289 7.696635433990717 5.778643857197686 -1.8550835838779214 0.38064719504268635 0.15706175014441984
P 4.776106942313314 1.0818649276890653 12.800245895609388 -0.7651435886281339 -0.4673802748648725 -0.9579030492844793
P 3.886224620539157 5.946546506503072 7.987747058861321 -0.17589225258736157 0.90023963313474 1.475234459256498
P 4.8244442401114345 0.8525401528086405 3.956996542473536 1.7833912004389416 -0.31714068984860866 -1.3825909274871477
P 0.5000869494422716 5.628557497809054 3.585262721389677 -0.9188456782717014 -0.4793950399375615 0.08273784261986396
Ni 1.551472500324651 1.0131193530636167 2.6078854559864455 -0.058843038280137365 0.3339737022455474 -0.9288099885732648
Ni 1.8870913641227212 6.749600886866414 4.910134567155422 0.6172966722137626 -1.5928477735973086 -0.5692368405920584
Ni 5.772963025550451 5.669419302631842 8.963336903123356 0.5179613302465338 0.025630813194226824 0.968003628053591
Ni 8.48038566602914 2.5989284397664867 10.519468463718832 0.14051361597775155 0.31478093136718044 -0.5614543684331622
Ni 2.1876586730860934 5.147284174029155 6.981413570970711 0.35003538369410037 0.7142606857353376 0.7248870551009322
Ni 0.37618925109809137 8.865844166407298 9.05886664416587 0.7519916246272081 0.9094243849578015 0.6650400010363128
Ni 0.9465277340412296 0.9861406066235874 11.526450853360446 0.8598717708406546 0.12421205060425058 -0.8153088966286152
Ni 4.12726854294229 6.744768062109964 1.7852599454062092 -0.6846909424980208 0.25512593870870903 -1.4059959366746495
Ni 5.899168533469341 8.09149712710661 7.988820416569402 -0.3858919883813935 -0.1886397820610171 -0.2039329607746617
Ni 5.348697123382678 2.8745804555566283 4.777793905861258 0.47564508597682603 -0.07375955038065361 -0.0895648928440264
Ni 1.1116130456187454 7.571633607144126 7.040424714307702 -1.1439100217083396 -0.2357321075631295 0.34640318625815175
Ni 5.116178521055527 4.458172235021053 6.85642531947456 0.01071070154928478 -0.5820543040717008 0.01901176521581242
Ni 7.979319481308501 7.041136062670729 9.08216556561344 -0.8882114983256123 1.2473344461432776 1.1373840476643635
Ni 4.546855474325262 0.403557157584052 10.612627043551251 -0.29857886768602127 -0.14464203632382833 -0.8132964941842767
Ni 8.402209747965076 6.952000311685205 4.963886619732164 0.8978297381416667 0.6708506941808189 -0.7105775804567955
Ni 7.245028776037861 6.045094500459959 6.992766184031555 -0.18561025120607388 0.5012247342181432 -0.38926810394247796
Ni 2.431779674922172 4.941518062301377 2.7623331229595967 -0.024763065877292836 0.6666855070595357 -0.6787036145663343
Ni 2.201206872824679 5.328569403797765 11.489058003086624 -0.13445455426786523 -0.529284725679153 -0.23641499256276702
Ni 1.2052739134174246 3.1558707668959616 3.7946941777361105 -0.5665184132196308 0.09699255276666521 -0.10690569811531912
Ni 3.8264930786055125 2.4791576479559034 2.729695265433036 -0.38262720158719266 0.7820539912302272 -0.5054359440860134
Ni 0.8731574900327366 3.3843710654930295 8.36418338133741 0.28219708389388815 -0.07967694430635311 -0.21106777204723004
Ni 3.7369138661722987 2.4898097729340702 6.915051827882433 -0.45277126670244605 0.14865321436575044 0.39496721120978434
Ni 4.399680575094213 6.661931273728352 6.074954841286605 -0.009433634609074077 1.317890144874653 -1.1493810721252398
Ni 0.7905451474450561 7.58474739566865 11.467466860724336 0.04615901505456567 -0.7770501102577327 -0.3266193187630052
P 0.19161878652313066 5.848948787076948 7.932603985376215 0.36402629865655367 -2.1824426090204283 -0.662357311997827
P 8.53514862970194 1.6315851683847447 8.118749190602154 -0.13092262985520678 0.7938988063839553 -0.03984978500708621
P 1.7395544555466198 3.005111975148894 10.496010258159435 -0.11737445885712687 1.0024132158817125 -0.1531277051973363
P 3.82461063001124 6.182323192935693 3.897058655213212 0.9068152294697286 0.29092417935424086 0.28843098061874195
P 6.920306393525868 4.166673260151243 10.149191730248809 -0.8034152305148228 -0.1832324950025167 1.4489804106559756
P 6.152023010754808 7.798088552941649 10.18598907515002 0.2681220938580608 -0.06369059618042579 -0.9116823277540428
P 2.5205262658617653 8.558498232457818 5.849628459622283 1.7658035692641654 1.3025954234991113 -0.38194045993281317
P 6.9106588444802215 4.0987060056176565 1.7128707467228081 1.0879990694733326 -0.5017939764580519 -0.5722157207147242
Ni 5.322333792829238 2.8576022172736715 0.7143639008722312 0.34005076167756276 -0.12284602349465941 -0.8104947630694235
Ni 1.4280454141290388 1.1242562219947 6.847828502552929 0.37314497312837025 0.8775164805056114 0.7945868335899154
Ni 6.904396082810816 0.8959731290046635 9.392584053879052 -0.5235293112526145 -0.272721283192969 -0.5607496290566536
Ni 2.6278982376043043 1.665722649623185 9.081794506034761 0.382355950203677 -1.071038273249278 0.27931462013977054
Ni 6.40155605229942 1.9550948195908124 2.661438403423408 1.1122718259777682 -0.04627677157935256 0.4131472245529207
Ni 3.9103344429196456 6.834600681084715 10.141350607834973 1.1372251534889963 0.8266742010427635 1.047756677013518
Ni 8.363655752716996 7.072974784568086 0.3089333449275332 -1.323832992721649 0.27409450939141183 -0.11149537436853056
Ni 7.473103713654493 3.9796139813290465 8.007298278564237 1.0532146148042958 -1.111219473453854 1.3594083187230974
Ni 3.0174112426470487 8.366759982850821 12.269455123566498 0.4442380324204543 -0.33882383124899706 -0.06758530324914168
Ni 9.059555366944831 5.181521207837484 10.144582446262929 -0.12106759143799795 -1.1476941713411202 0.04357762748063463
Ni 8.699500872355724 2.2765319672964552 5.667457211981658 -0.15124334369042983 0.38935397878806494 -0.04399234642055004
Ni 3.706477930487019 2.6259705378419 11.57220249941153 -0.7458322898940317 0.3078572076641537 -0.3481062849921876
Ni 1.3805497880581654 3.2478663917073995 12.646804614615483 -1.1266651185849628 1.2047510642551125 -0.3484562121324386
Ni 3.204361918665729 8.315191751648108 8.067315807880474 0.7900660629014264 0.011960000575353595 -0.6360225307580402
Ni 5.543195694245701 7.600829660822601 3.555340838974372 -0.04066713870205899 1.1407889595808547 0.740396720700757
Ni 3.0613953780709138 8.444248083159286 3.483243057813738 0.5860821942841713 -0.7814698365919831 -0.21588421959926693
Ni 3.2341643379971665 4.557733855144087 9.510367414385296 -0.10777575942509825 -1.2980468848964806 -0.3626235047717561
Ni 7.167070063580828 6.2799299625954434 11.464989811780816 0.6684063464053843 -1.5508066373658582 -0.759713161641182
Ni 0.410681501494683 0.06998274156216526 0.4731444039367475 -0.20342542501062386 0.4511694694329649 -0.004691491938398372
Ni 4.600966821176967 0.38738620014056174 1.6626292797697122 -0.31968942441239134 -0.755022441033732 -0.033065672205717246
Ni 6.02402555657791 5.584347106544531 0.37720287726423807 -1.1169679459018569 1.6091915050626544 0.8322591513297085
Ni 7.771345112575903 8.705464976315463 11.445398771049943 -0.12023738222721872 0.9817011801453415 0.23704465572696595
Ni 9.183634069961537 4.830308791501283 5.854688445242753 -0.801847886027703 -0.6708496657395543 -0.3935525902504448
Ni 7.678996528653038 8.651245026660241 2.549378410662441 -0.6574089668536162 1.519816873852563 0.49032068571112974
P 8.676558530113029 1.5125926966660244 3.489189966329586 -1.2506025753715881 -0.023708913581165617 0.22690988128580922
P 2.017469029743339 3.085378497180635 1.581696660543075 -0.6693769378487698 0.13269514837459728 0.6213793269235686
P 4.67502488294106 0.9381472177032668 8.39637053722938 0.9748422482419791 1.30503154374443 -1.0210498571462931
P 8.224843269356658 1.7382783726053102 12.646486951415199 0.5347244086374855 0.19383598154997583 -1.8553201253687597
P 6.1251709675855475 7.670769866286723 1.342925251803508 0.7189467783570973 -0.12319260820080075 -0.2904894058096675
P 1.8240021855137158 3.3533378143884134 5.912096792204524 -0.4521865978435696 -2.263337742004599 0.5738121186675667
P 6.991205923754378 3.868359459360821 5.914692399208549 0.3377213422134377 0.49133215769477967 -1.2674235035836687
P 2.406393769600373 8.610238418099431 10.108062943534044 -0.9890581347310451 0.3146834865573677 0.8485712582261707
