# total energy = -340855.718911813 ev
CRYSTAL
PRIMVEC
9.49278561359198 0.00000000000000 0.00000000000000

0.00000000000000 9.49278561359198 0.00000000000000

0.00000000000000 0.00000000000000 13.89365129096193

PRIMCOORD
 96 1
Ni 6.392194999847294 9.198613651547321 10.076328947266164 0.9310987846074416 -1.9957823192832853 1.1240045410336643
Ni 5.386937484857365 7.7354906094838265 11.918863440665614 1.5920831275171419 0.37577675432426255 0.4152987236782848
Ni 8.563204555696013 2.446727513136296 3.7715150387196856 -0.9933140817939216 0.1832566633722328 -0.5018783086417421
Ni 7.256342257130912 1.3390428416948967 2.0063961103149572 0.6557498339836384 0.15817066693788243 0.8453959458219827
Ni 8.581250341091216 7.158129897478742 4.91926970738975 0.6238131331760418 -1.1293071841935003 0.229572772829953
Ni 4.562916232237358 8.673254418971444 4.806244805112291 -0.8792463187125245 2.3886545956372536 -0.7715818880543098
Ni 2.251147651748934 5.500642070582639 3.7034223384470213 0.6443742451568452 2.348193916519046 -0.15944233456145443
Ni 1.165400807792182 0.2565510739149016 4.135417176968484 -1.2012008850100087 0.5085726899427822 -0.7799613703672567
Ni 4.395605886319178 9.045532991219572 9.331073133750925 -0.43967483852980405 -0.23441210320012534 -1.2385790685481506
Ni 2.6401050482681687 9.186035710648508 2.4508957952862356 1.3432427647068284 -0.17355357715185593 -0.1739148171460166
Ni 2.607032183293477 1.0533005028306053 8.220706750382043 1.4688542667617672 0.8318917406879608 1.5451751501116937
Ni 7.686849576151358 2.1418002546067205 7.154355565930539 1.1374411261545443 -0.12596991383562176 -0.25139912467642506
Ni 8.218521511140603 9.00277748494919 6.9166761497566505 -0.8124531723473749 -0.17416652814550648 0.04777932426680803
Ni 7.255525877570687 4.885689927664872 1.725869107850521 0.8793018545408082 -0.20025011260643577 -1.0437568118255056
Ni 5.463810062516679 1.8407080814530845 9.157611462774307 -0.15442714073505018 -1.7726535023064631 -1.5755812732073768
Ni 1.0234172138121411 5.570812741619642 5.5173636123888725 -1.5723920768461177 -1.2768226854103817 1.1225744934553568
Ni 2.1984816773288456 7.405673267152976 6.106023587074605 -0.30141248048007446 0.5350571093865559 0.016398495962681434
Ni 1.5937342789138909 7.230531373127988 1.7607978124068864 2.3573295602717272 -1.1552768687843846 0.14866658410218914
Ni 3.558294733881557 4.9972016799202414 1.9816930343896875 1.1545888415784242 -1.060753089273186 -0.10932613463135364
Ni 4.335829815496665 3.923975820148798 4.672893001063791 -2.067674734548213 0.9510430889398523 -1.1487269834810088
Ni 2.3435314410525216 0.6323524188932564 6.074193327732861 0.7517586826807956 -0.9605764823515843 0.28898659601189586
Ni 8.473735051566718 4.739586464741372 13.660862689780485 0.2153034073951324 -0.5096435544094577 -1.4761096627725998
Ni 0.2503314008002582 0.5755589813012402 8.091231799966051 -0.5137123251621928 1.44607454986309 0.6013532615106288
Ni 3.3362205079292213 4.429808392778367 11.835709486785358 0.1470251918440242 0.365916316590415 -0.7371036517717822
P 1.4198834037283279 6.210142357917146 8.390112154078613 0.3397458288426342 0.3555347162457748 -1.0171433230030351
P 6.705770186043903 5.732076183120808 5.5790648201278215 1.2496391830170543 -1.0440326911947115 -1.837761547659706
P 9.007504892170028 4.695217184921708 3.274469937705235 0.22942313462596617 -0.6107745548245288 -0.025929832491884377
P 2.4635772075479148 3.843533955109896 6.087614227991534 -0.8075549637148093 -0.2646495619284281 -0.4486359043778338
P 0.2132990949584759 1.525139410283833 2.287298077809962 -0.15641768880251772 -0.011011777729471359 -0.41863498714036934
P 2.72722034157263 8.334428423121366 0.12893955730905235 -0.8470959592322248 1.0861177932902197 -0.316365502245481
P 3.8775560986429882 8.463008203856786 6.939281320067854 1.5226214331808938 0.9173037877058782 -0.2247290715844065
P 2.6863064357055464 4.094190958455685 13.82615581876206 -0.7720284886734252 -5.251903981609948 1.1517652560867002
Ni 8.193413093270896 4.603308034897321 7.066630835791584 -1.170501656153939 -1.0372475499520781 -0.1547179325025916
Ni 1.8144510365277124 3.28458924713779 3.759191504474523 -1.2249416802703743 -0.8532236693965176 0.42719393245397397
Ni 5.60449314487171 5.119782020166564 12.870744920873769 0.3712667822690509 1.4123298493124774 -0.26856098116769234
Ni 4.41270239315598 6.532583805849221 5.278198575271086 -0.2166712342769365 -2.243979649192961 -0.021709109542317452
Ni 6.152834411346476 1.289082311166251 13.888815797844998 -0.9936508963080499 -0.013676469045828058 -0.5137637472254184
Ni 5.661326452163179 6.361618737481197 9.67684500081282 2.30894782653423 0.3018842779101704 1.4267048870872268
Ni 3.4363788886261135 1.3609711763939603 4.1967443689554225 1.132071891422831 0.38338747679198487 -0.820336945970826
Ni 5.750235881943019 6.339016415005669 7.2274633048272365 -0.48988539794592406 0.7913793823962113 2.797913283769046
Ni 8.2762281547058 3.000261333325516 9.524806648342198 0.7890396785194411 -0.866992441045836 0.24001068033382536
Ni 9.03276519460908 6.629429204377293 7.257376970759569 0.8055782996044126 1.4729027257995277 0.6509043329658789
Ni 8.337902782645116 6.312844805150553 11.49035530228916 0.8521016399769326 1.717604126740803 0.8396377031819668
Ni 8.420603930653012 1.092002589656615 13.401899499048685 0.5907495178528536 0.6646738759461456 1.3767946325203448
Ni 7.209485867488237 6.986861059972029 13.670547229633291 0.37108371972396736 -1.4730227963171598 -1.4575000180912123
Ni 6.646164985361903 7.999057801223871 5.5987528574290595 -1.509643018643355 0.03686139180272361 -0.3343591106094242
Ni 4.573595616019369 1.004640483926969 1.7789565619505399 0.663974792996592 1.0755772987702121 1.2858937944737143
Ni 9.395978156624478 4.960901267846985 9.184509270726599 0.0214010913835954 0.744623357187595 0.2805873162046071
Ni 3.6072964930662175 6.482442912394479 9.016979641461429 0.7017869787483592 -0.8311453494402395 -0.08330965596293394
Ni 1.0684414958371016 6.7649007474467036 12.441111887405611 0.32738730727728127 1.2299586738689914 0.17710529905885627
Ni 4.814997153420749 8.658322267247796 0.4726011781356237 0.30327267361726484 -0.2417711146683578 -1.0840136024630234
Ni 7.209590288129661 8.506209871049617 1.2709273587368313 -0.20237152982481277 1.5113216918973584 1.3953901361343453
Ni 6.8274392188741615 2.92963500858048 11.697537246217298 0.046839843171674174 0.4330046255984801 0.4002698543696203
Ni 4.619369828105467 2.96076185251045 13.077468363258202 -1.0777280265646279 -0.894389087891234 -0.063946935165606
Ni 0.5573831447435357 9.280973059274194 1.1015162593689098 -0.44549350209411015 0.38969927794262565 -0.6971664492572123
Ni 1.3589681986357343 0.47505316465197356 12.63359425285691 -2.112244036518156 -0.2264046595146165 0.10961821195047573
P 5.787276731291827 1.9440275597494516 4.712851932701123 -0.1681077235459363 0.28721022083776343 -0.3018264280890415
P 0.2774238108570233 1.172691267120702 6.044974533705277 -1.1651221370095806 0.3819283757479552 -0.9613503844031315
P 0.4234190560248668 2.7089467293234106 12.069206381630934 -0.9464099610432152 -1.3995262697899058 0.2267368460430547
P 7.506306287129069 4.821850944612404 10.538292509876346 -1.039550229943326 -2.0070254962972722 -0.7522322798831046
P 7.330689753824879 7.399730783377385 8.47309903493259 -0.4445421939244344 0.4468104211333208 0.20639890581665102
P 4.015609679391249 7.025249884873767 3.1712956990283034 0.07299850384491299 0.015249469959902768 -0.542495310832156
P 7.5046070785095305 1.0084945548740771 9.009046520548871 1.442335137425316 0.7528141205285035 -1.2091558781910274
P 7.114149821868022 8.319126052759943 3.4580461717216164 0.5141003046292307 -0.06858726215109477 -0.36901063924502253
Ni 3.2040809325997994 5.934234544917889 13.781237855935643 0.7167274021082753 5.034610026147349 -1.063502626993865
Ni 1.3501209224714366 3.1372232437316154 8.108890279709428 -0.34723956611651813 0.4693895919854174 -1.0393728238251971
Ni 9.483083957143355 3.2941579750064727 5.574841479821496 1.0715856611123158 0.4939130310480784 1.4830169314153943
Ni 4.2638555151987 2.3827366455144836 6.403819865073473 -2.1154311759968856 -1.0204225079749394 1.2964923959251673
Ni 1.0948504253318179 4.732932022046981 1.334706537240121 0.05370623127420428 -0.002760593464272665 1.867163654970907
Ni 0.5027417216434145 2.7348620339677585 0.41029338139785587 0.0005196199488958793 -0.779859811792386 -0.5144836561105784
Ni 3.4095427837801164 0.9933345762964128 12.420215418499529 2.660477792495986 0.43425623861739404 -0.7439451001736478
Ni 8.317208510071973 0.8435953764942357 11.12857859873262 0.8782399889351971 1.6032746253575874 -2.0071149706872853
Ni 8.718183773140565 8.53412815345219 12.370115344022798 0.10140842244617375 -1.7302696380236136 0.6789494120285532
Ni 3.857763640700327 4.895144742106547 7.3429610777493295 -0.026951845998495517 -0.6422721112121778 -1.032690783819331
Ni 6.1002633647822275 3.917292899097655 9.24468308926508 -0.975324072974404 1.9550879268877166 -0.8010547007024462
Ni 6.408769403476976 6.127574108907425 3.3516491323389133 -0.694242590742198 1.1038270376445247 1.9358324210922142
Ni 5.935003460550194 0.7041624940006185 6.455935257929689 -0.3947985468424039 -0.8799289466018458 0.4437996593314551
Ni 6.033215820202363 3.532531313806553 3.0769155769163983 -0.2962193663149092 -1.4234311014319614 0.13366702536956335
Ni 2.474019271690326 8.18286660848706 8.51658548569294 -3.402923682416288 0.7940314753070776 -0.6350575957416096
Ni 8.996104056683631 7.250618107423754 2.6227323013708714 -1.6933074589769677 -0.32470050447373755 -1.1022550651717147
Ni 2.712819785841687 1.8601682919003053 0.7180960046808287 -0.42854324739301686 0.5236239278489497 0.07988108989735919
Ni 6.048375798780028 3.6819097877565374 6.13760418615549 1.9984539525781773 0.9755225621384556 0.6836205922519775
Ni 5.310416140264658 6.49082504206516 1.2506650079077617 0.13036675735173675 0.1324768617162041 0.2907899677692218
Ni 1.8946650747125986 5.8358797934819595 10.490859908148723 -0.4904315002573812 0.29250669335001234 0.22084824847276155
Ni 1.743606377714244 2.106971224298987 10.34760238234331 0.14648783128331547 -0.0103970269636079 0.6752987026498435
Ni 2.92186990997276 8.539861795944933 11.118033063227344 -1.0405588737134983 0.40495157611600585 -0.3193829489155661
Ni 9.348390822491835 7.960697454678886 9.529141054239858 -0.7887853964167899 -1.211920328310042 0.06299408433403345
Ni 3.3358313037202776 4.183556041943557 9.501923339413382 -0.3390354330391709 -0.7733734327370938 -0.8751970883438154
P 3.538407348083055 2.883689926353871 2.5654490360427205 1.316511005138939 -0.46100419613519955 -0.2390010081223884
P 1.0691344691847344 7.525130480942161 4.101363707242964 0.9934616631153794 0.014800298237626124 0.33712741738318064
P 0.23553689446757822 6.396457260574514 0.4275189901186008 -2.7557672465286154 0.9002663726076171 -0.7148900917892205
P 6.4696086662848975 3.4997052612570454 0.09374885187056807 1.235716402288375 -0.014627262994871585 0.6537168627140096
P 3.716748310849855 6.66533091945602 11.634320989899141 -1.4736542592535717 -2.729311880550564 -0.46217610495611366
P 4.126770198580008 2.569630608092477 10.530790361429302 -0.8661123524337278 -0.5011414304757176 2.5409292088056756
P 6.575510182260115 0.009383618549794097 12.270011072203735 1.0543600412626486 -0.2663495753386703 0.22368366103902768
P 1.2625594682445265 9.464212299402345 9.790772666999322 1.9384420908009197 1.2469786054657557 2.4561992754564477
