# total energy = -340894.0850937774 ev
CRYSTAL
PRIMVEC
9.03937111590287 0.00000000000000 0.00000000000000

0.00000000000000 9.03937111590287 0.00000000000000

0.00000000000000 0.00000000000000 13.23003334176568

PRIMCOORD
 96 1
Ni 6.376978086409556 1.6773909177957147 11.298673452794217 -0.053890322260552355 0.6025110292641559 0.5057125947861678
Ni 4.573876633255423 0.32538120592231584 5.706999779255733 1.101749843400522 -0.4448882644099435 0.5427033130779041
Ni 2.8305886993697627 1.640130629685597 4.645315687831617 -0.23974868492169032 0.2592990962497921 0.34467437649250315
Ni 3.509138138300882 4.264196815117502 4.680798835562682 0.1330954691368095 -0.7082808140028188 0.9864320099621077
Ni 5.10898932989364 4.491690670252709 2.7820111185100416 0.6001738964905471 -0.3471583192566215 -0.4669557857329442
Ni 7.140443378447528 6.083397388389082 2.6226958167571124 0.20760295342708118 0.6651788406070221 -0.3945902874863398
Ni 4.800330960701969 4.5552916860563935 11.362243734735802 -0.9459242796560484 0.4014793012966892 0.40885528204578614
Ni 5.609598746639494 7.73323630274966 12.467811261552491 0.12627767488402766 0.4164755175952053 -0.04787471219409174
Ni 2.0285524103968404 6.292821540483988 0.5996854448465195 0.08495516198615691 0.9321729915082269 -0.5789306708410545
Ni 2.6336569582812093 1.6461237327950118 0.40035284676571775 0.09620836630247302 -1.0618460652270487 0.34959598216383664
Ni 0.7408975978856858 9.147030116814387 4.608272344630437 0.611832563775398 0.04276361621977151 0.7883125705454294
Ni 8.743729531098472 2.506870737749306 1.2702965079847455 -0.12336590055387141 -0.40512306869686365 0.5896413723903393
Ni 7.124064037822701 0.5924512360705547 4.9383612550767095 -1.5351915565364205 1.004799970946334 -1.5502343098021558
Ni 0.7572154707863126 7.3302068981699176 2.786073411929907 0.12997877788469875 0.05929323844367853 -0.7161285921820119
Ni 7.482583578585311 4.017738359192623 3.8312190697959774 0.6764554419621059 -0.6342872932344882 0.42121740315556494
Ni 7.705386000064732 3.9437149483887044 12.42058054700243 -0.09759701911988353 -0.9872737891371125 0.7124416302487279
Ni 8.00730099833691 8.765324588909017 6.838723630593393 0.9927376404651614 -0.3768293639584929 1.664032107051618
Ni 6.928922092232887 0.5588283909336327 0.28657880108449685 -0.6484389021445219 0.1607242865976716 0.22346923103537641
Ni 1.5849904653304987 6.471819169100327 9.577896265022247 0.6376220140346761 0.4171764003169719 -1.0689896182503655
Ni 0.007132967818460369 5.014970829982594 1.3396863371085945 0.39251052213917564 -0.45137978567155806 0.38092487418410526
Ni 6.20608877376478 1.816994966697377 6.975746939015813 1.1613328451704774 0.7089618992302436 0.29246941235417373
Ni 3.617664828997163 4.109876669892872 0.6238738982559964 -0.7406386615082342 1.0526741689197936 -0.42078237250067535
Ni 5.90013317656363 5.826570773691204 4.95696247314391 0.7844841979382747 -0.15147011498925525 -1.0367577547998532
Ni 5.170140676100565 3.090190401027808 9.15028790619694 -0.5384697346125307 -1.1253885658653846 -0.6177545856867876
P 0.22016021327597923 5.595822744921925 12.400576418524096 0.4613296977954184 0.19840997407390346 -0.11736854531985592
P 4.041710771630282 6.090529452270422 12.804065927098211 -1.264780666644183 0.08321349670470185 -0.6712666986723148
P 2.3370028740507793 8.449778218858562 1.5436407656868982 0.43383432058862703 -0.8297713519108483 -0.8583895298681733
P 6.27983196406132 7.786026230591261 5.8262028712831295 0.12717087612225839 -0.0697270321824928 -0.2931895783496499
P 4.587327217609585 1.0731722282895095 12.568148281936361 0.7564188071606264 -1.1436937919324754 0.5117749989301638
P 3.855599157875016 6.21047286879957 8.464906510508511 0.3028774950613752 0.33830858217547544 -1.5666142938220762
P 4.86442914192197 1.218543396020443 3.6993030061048082 -0.35641223375472164 -0.1264496816855177 0.5746410423267652
P 0.1901684835524085 5.484873502742502 3.759869504994721 -0.18186826766513836 1.0285613350319898 -0.19114635053295467
Ni 1.5173398112266367 1.0973254281512839 2.549440752505683 -0.7918802332920297 0.9567370540008361 0.2344496413062801
Ni 2.0298902373352923 6.337222931846652 4.907786485910368 0.32895773708819476 0.8082707588349113 -0.23562257856845872
Ni 5.952199954708772 5.586765294973761 9.126262161469167 -0.652691763883605 0.35919956669187164 0.2965386973275409
Ni 8.615948979733934 2.2732481889365976 10.249836115727717 -0.32992524320778666 -0.37238701191642315 -0.3747781378564191
Ni 2.4842361522500984 4.944490852691332 7.006467242058567 0.1815309389303777 0.9195118511007906 -0.312390576758133
Ni 0.4909671194806768 0.004096643030447648 9.01544760592071 0.15570652166810603 0.29804073579436413 0.021351726202898713
Ni 1.3920722050572998 1.010683055144133 11.392501221972822 0.35551646141332965 0.7495562757128382 -0.5957906798211868
Ni 4.2378560874239355 6.807649888136493 1.7948259088152658 -0.05432432447417741 0.7930156324480536 -1.6405733618080454
Ni 5.702369813324146 7.907126686634747 7.949887432123566 -0.8730777280079673 0.15483723168927527 0.5370574276460364
Ni 5.5312002801719915 2.8959162350737464 5.040576656797133 -0.842782933679168 -0.2866479205763902 -1.60035693749016
Ni 0.9251977216513189 7.052390863532279 6.9555575034277615 -0.10412916381144648 1.1737057649135334 0.4787728329725303
Ni 4.932052677912214 4.5996026837069985 6.8536069552836665 0.563235628703301 0.5726456091632912 1.3092849197041452
Ni 8.123249012793115 7.121388383945798 9.00127839155569 -0.023578301540572295 0.7913881241469597 0.9809519606841427
Ni 4.416799479813038 0.4958058948871168 10.375058525041027 0.06936219264390635 -1.0661786311641315 -0.3965486967642912
Ni 8.247323421963292 7.495112147076486 4.784509349280538 -0.34987031887114584 -2.2896779225610246 -0.3760480057077782
Ni 7.196695385460934 6.169298532957361 7.065287334431528 0.37785266301668474 -1.2247365062381035 -0.8037805842740415
Ni 2.349567600026777 5.117034370266761 2.812850741252712 -0.09271860798165968 0.5619482773504451 -1.540415266829205
Ni 2.330105833820789 5.040027966964943 11.485560644598937 0.038075209605166686 0.8362942406310307 0.5465697380118458
Ni 0.9960121556771946 3.4152100321018937 3.822341503334806 -0.36000817863609613 -0.8806941069026445 -0.08378556715808796
Ni 3.583432730240973 2.5966316938224416 2.485844256387602 0.7106649979642793 0.20176192126527187 0.6990580098529702
Ni 0.9939692577846942 3.397501903909822 8.098976493231424 -0.7119227816307804 -0.48382839311856674 -0.20502979338326624
Ni 3.7580733819361374 2.629516926268974 6.872711666327027 -0.16267061169076502 -0.6097527984282337 -0.2797784471500665
Ni 4.1035039131928155 6.830112725582792 6.2660478269096656 -0.012903852545861648 0.338145831345366 0.36196915901720883
Ni 0.8682460673065873 7.608682806905577 11.714017192767558 0.3209829464128343 -1.0202484442909203 0.06067494928255357
P 0.05944200111191679 5.42759100741164 8.18292151787078 0.5000237719315065 0.0021345298444995497 -0.23663610743463764
P 8.492001121760639 1.6413780629119912 7.820908260137147 -0.16274671634433907 0.2708122390957142 0.6696286488482597
P 1.656555167166452 3.069797579587627 10.186000980209807 0.28606787970320413 -0.05442074084272563 1.9638409904899987
P 4.151846470401187 6.204326096379657 3.7769367417683046 -1.3425755634364749 -0.2914150029477304 1.2835530621556797
P 6.497219802188495 3.7831847551457214 10.606888566543635 2.63669251715093 0.31906773166799246 -1.044361278178724
P 6.3694573295663695 7.829903338423991 10.129429883392836 -0.7281891228909718 -0.3893928024458004 0.8702564565090882
P 2.6441968651071184 8.435025965050771 5.886187234667392 -2.5893163418598117 0.026469764155754413 -0.5756576565167376
P 7.061131935488243 4.008653791130841 1.5513405020799593 -0.8987296242481168 0.1289138269552941 0.015424047864554083
Ni 5.564230142557816 2.8690512238502452 0.21501590712278473 0.2992290996755105 -0.3196117770969205 0.03644692997312433
Ni 1.4875279649900606 1.1218402028612882 6.851874107823524 -0.2589345138215218 0.11081094670699626 -0.07287611933443579
Ni 6.843744097361069 0.811225713740692 9.01719401243766 -0.22848211086893552 -0.555121998457231 0.9427638796501957
Ni 2.8904745336078825 1.791657609207649 8.935961703097155 -0.8564861421978734 -0.15697484685756835 0.898332131699382
Ni 6.455891797035788 2.0369228681333684 2.486492379303054 0.6539698592650802 0.15170742781104196 0.12227138193811198
Ni 4.137654657608153 6.746869156149005 10.571511179455676 0.2892976994944115 0.7700713649470544 -0.48832396699607516
Ni 8.350480726163356 7.274180875436656 0.3571808098870373 -1.0480747224745692 -0.4158204005097097 0.41638552898456027
Ni 7.5476851300091505 3.7962647252804476 8.55911754902624 -0.3100637283971692 -0.43905263156477287 -1.1900201858028407
Ni 3.1907082088357908 8.275083330936162 12.22395524059775 -0.29132295745455633 0.5587400548257925 1.5901931095832806
Ni 0.028417071259528404 4.697806412486308 10.330936450248622 0.24982766642424714 -0.021718879734330336 -0.0006265778404053725
Ni 8.528420748348621 2.4579767788973834 5.745287843871945 0.17455193650938325 0.45278540776983306 0.27991291584540184
Ni 3.4569628877012706 2.651102944708314 11.742078112801579 -0.47014009699819675 0.7880755148339589 -2.005158104071231
Ni 1.011080787477186 3.319202870525582 12.409718838561595 0.09138934764727487 -0.46542520802103066 0.6361536570192657
Ni 2.909610882450463 8.485465656378878 8.125013498052478 0.6227476680260049 -1.3272870127085206 -0.20351695628316563
Ni 5.634592608023404 8.048945381481818 3.6091931303031304 -0.1340632323667175 -0.033039189843156 0.07615479008570757
Ni 3.0826786835558266 8.380500477937664 3.674681566814576 0.3024491492747049 -0.2773590390752965 -0.1565958662515948
Ni 3.102375473413164 4.430539324045784 9.269848053386964 0.5377158871656417 -1.0242426530519781 0.2862910514576037
Ni 7.206575418188823 5.99290424324828 11.279727834684078 -0.13420335748900758 1.0139947500717246 0.06483165176340448
Ni 0.6324287591651218 0.23556872543330726 0.3152589180461127 -0.3599701263093091 -0.45397171476845044 0.6176280874112524
Ni 4.627877836838596 0.44098030064997845 1.6705038208740508 -0.344286139915149 -0.6742337517204389 -1.0989640531252687
Ni 5.989641030243004 5.395754342024976 0.19230900665393102 0.21360776486026437 0.6878215177072026 1.0323732525789124
Ni 8.033605568545655 8.826620565055235 11.155286427042947 -0.3629608335065168 0.2183409086698756 0.0698321903017894
Ni 0.2544781860586237 4.9492636406879695 5.929290572324908 -0.9408430084783991 -0.9434138545293688 -0.06460128092015326
Ni 7.984169247421387 8.956995415955822 2.416055790993579 0.23270386225976697 -0.6121524090086619 -0.06250814583655041
P 8.460480834366175 1.6184903750190225 3.5919541454766373 0.7619163399400879 1.3576525123742555 -0.21904179139164212
P 1.7588989279579972 3.3245089814233597 1.5779596424066633 -0.49597788399690707 0.26261067712152836 -0.26180232228762007
P 4.633319538304461 0.8463165527614284 8.066364249795306 0.8373242245574418 1.3785190714106195 0.22600819540714628
P 8.397702401342213 1.6809162725659588 12.420805627345452 0.4241536029657534 -0.06871453175757843 -0.5997643197569542
P 6.261491079884845 7.801619145921188 1.436357892468529 1.0647724948452244 -0.38565544689055514 -0.2750764136887069
P 1.8286015193255651 3.1667448357693373 5.921961450151284 -0.16220935578363033 -0.06153832572411338 -0.2598194875296364
P 6.902039002266975 4.157071226958113 6.084346522365687 1.003941993821413 -0.28139695659009606 0.49048909296819393
P 2.2882445057669427 8.473958536833953 10.204641971510311 0.10547102255132157 -0.035913683177473635 0.44487386623224023
