# total energy = -381160.5502135605 ev
CRYSTAL
PRIMVEC
9.29214936811166 0.00000000000000 0.00000000000000
0.00000000000000 9.29214936811166 0.00000000000000
0.00000000000000 0.00000000000000 13.59999986509139
PRIMCOORD
 96 1
Ni 0.07465312590006887 7.60966612633469 0.15768219500231873 -0.24344284594382587 -0.3477324465925366 -0.42755774355129594
Ni 2.381930916974341 7.908399427873315 0.08124776411904808 0.5517497395508886 -0.4018739656319466 1.784008008087334
Ni 1.919432779630038 3.32485174728421 6.10153081327201 -0.6254015607090841 0.441970062321884 -0.10060598114953641
Ni 3.675240105690956 8.049268408287187 6.337504939763454 -2.071492051411774 -1.9837922368009449 -0.5856949861480817
Ni 0.6156308961453925 5.776027759380198 5.557544245146871 -0.43415390871157483 -0.2788358807311392 0.7636955433276976
Ni 2.789549621711498 5.830870023390928 6.497413533691047 1.1359360023639276 -0.5690272956844136 -0.7770418827276167
Ni 3.0838970288731216 0.5609558908185309 4.565030285855018 -0.28295993020184174 -0.006134909253144273 -0.4019271874673852
Ni 5.0365864101457225 3.9722264831980634 0.21279207290723887 -2.5919532652620263 -1.6847266592864922 1.3475169666021503
Ni 5.61211424918886 0.9215953481166083 3.7319891186977894 -0.05189540331771063 0.5233197663449697 -0.013131395175635451
Ni 3.697792151565921 5.062669472680137 11.066985822028009 -1.748461735551608 1.6418982512670561 -0.22206360893710142
Ni 7.54253034905961 5.37478346892826 5.643714060646211 0.12731691478181945 -2.134850461063762 1.081555627840834
Ni 4.040068463805034 0.8623513930753998 6.725934427386317 0.5560259983287392 2.4504351192791605 0.6557434062257352
Ni 8.499361526577893 5.856172545400623 8.302242521564063 1.9425414576812738 -2.0435418460557515 -2.180966024474902
Ni 2.6078695224336603 2.370845383093487 2.415522965199551 1.2568102468441966 -1.1998991354794497 1.7133018998210234
Ni 1.6046054758436015 0.7398288318521052 9.773598579258923 -0.8463284849385811 -0.8877425291089936 -1.8037664216611842
Ni 3.5661502752121397 5.685011158908307 13.258516887005491 0.8710722675421643 2.531973028053652 2.3326353999591567
Ni 1.053962012100487 7.6193764221481795 7.045493293496418 0.3650953633510164 0.6293734008726387 -0.38990008109952207
Ni 8.577973107996188 2.379830891276878 5.250538143261117 0.861762045884832 -0.6699986305931687 0.20994034331100617
Ni 3.7922468472062247 4.6325265985153266 2.4419619170446425 -0.14283609346334109 0.3750853846841928 -0.5803985136358327
Ni 9.126293534463349 4.081418527317021 3.3843735375836226 -0.009752708511389655 0.23344819662495922 -0.1153916240991432
Ni 1.7508824870358948 4.676868734038743 3.8681525548054876 2.5923049921744905 -0.07183687943664402 0.17256627353792214
Ni 7.661748622061587 5.565811470204537 10.347926801852758 0.7686222912053536 0.4683868617525159 1.9483629494590575
Ni 6.774227584708677 6.957728945210862 4.324922082227287 -1.2762233612634857 2.200324888617488 -0.3365311785600785
Ni 4.240797468745697 3.030699475253767 10.477004045053885 1.1901564542703889 -1.5500507330364401 0.7578668524610626
P 5.4358143042421325 3.423794550941657 3.240036727124206 -3.018569985056292 -1.1708186731737256 0.4126736273506119
Ni 0.807824132919289 1.2575344146669183 1.2236487345300273 -0.3626247903233368 -1.4281346775552177 -0.8487206393198415
P 7.909728205195161 6.482444810699707 1.268787207231641 -0.04553809364111512 -0.5386990770145175 0.7498267557654054
Ni 5.620597981320644 5.144570474881184 12.051245565270941 1.9003897640138887 1.4441793897229063 -0.5732500755165095
P 8.980462546428038 3.6743945201225086 6.78703867067811 0.7079141746920194 1.790878252844606 1.0603167730667158
P 6.34307186629155 0.5573152267996553 0.542042650532621 -0.31482489723123847 -0.26327376462682406 -0.6018137460868151
P 6.356870707710719 0.9095629442420752 6.682999123237218 -0.5818617284449205 5.600261463380993 -0.21092353315988188
Ni 0.07880207047492334 1.947885340185927 8.263006421973195 -0.6033692634993932 0.7406579447819438 -0.4061710503454037
Ni 5.547784700943132 6.40110133744489 1.2158154528355092 -0.3762202696195843 -0.9561197321318113 0.6193800371053526
Ni 7.664173872977683 2.5759788667093595 0.5648771777403419 0.9083681757791452 -1.952634837361534 -0.052103148453142525
Ni 3.0044491540354827 7.169013831533462 10.110361859434741 1.2776302689133416 0.04997170393243652 1.172179300966678
Ni 1.1297116115948063 3.4892577413780512 1.3923003115494026 -1.9642112293452239 2.1852844493445978 -0.04135542301833523
Ni 9.004835853527352 7.127199160566284 11.418953845782406 -1.9126086746775839 2.287393240291906 -0.21076823852894022
Ni 4.728979106212951 8.204438006171834 8.730804801166315 -0.21305497768058793 -0.704529831600819 0.3236388959784426
Ni 6.7882494377063365 4.984875600382978 3.2294018624748873 0.20165676314597528 2.134700822859775 -0.8697188388380634
Ni 5.746422972335436 2.0882711288464 12.597570967325513 -0.6528522007208692 -0.1846203764889788 -0.36310018729785853
Ni 8.971653589077619 5.01601359202987 13.588262736178107 2.3167801780944552 0.2312517031942727 -1.846032015198614
Ni 5.305185272140667 2.261495372439764 8.717735393451797 0.1775822386952748 -1.4527514476626335 -0.5187971958842679
Ni 6.8147599390995275 3.421294962832731 7.559192101617665 2.3689728009376108 -0.1029179171121647 -0.5281210443883549
Ni 4.912183117943815 5.650983308890127 4.654721825864705 -1.0926869618673052 -0.7923831410703772 0.5906772698540215
Ni 5.456712347576617 5.9618986179038576 7.112405129978096 -0.5447745937846359 0.19881389438054145 -1.5654917501818586
Ni 1.292091917184015 1.0353219609982294 6.2109430813247295 0.11646300278645104 -0.6682291973975717 0.14316596599893408
Ni 4.654288811716467 8.414050305655746 0.5167865892684455 0.3020197750467702 1.5184786146571139 0.9716234841943653
Ni 4.543098955540189 1.6537609446027952 1.3789716528748868 0.7029930832413184 -0.15531519976695832 -0.35484283238507275
Ni 0.8048264856183974 5.249683265543566 10.854649064426859 0.8394618397257348 -1.092718586436189 -1.0080290194065928
Ni 6.685989336818827 0.14612183230225953 9.32602270416044 -0.5782192465963267 0.9496958308833385 -0.6873170672669582
Ni 6.990307219968846 7.279701911658135 8.267398820854568 -1.2291014680750185 1.0008831523904314 1.6054405226606545
Ni 1.0165611119576219 7.030486472693752 9.276219572608712 -0.7593447225581696 -0.8860301744035772 -0.192386650697959
Ni 0.40948085141756224 8.528167188799728 2.349930613890615 -0.5556866127114494 -0.593381813269378 -0.06512295775157817
Ni 4.143926814338402 0.22602223480125405 10.724442825109618 0.05522549613220812 1.9827283143128045 -0.5797549665145628
Ni 7.015962843644486 4.547865828030447 0.604174605515296 -1.6526338925170057 2.7569494397621743 1.1983955543507296
Ni 3.509942065283149 3.1513580313668355 4.40362565592171 1.2775906739246576 -0.4033515786187376 0.6754164591746304
P 5.747909716192047 6.723232270426927 10.314280859162746 -0.711540201480381 0.5201709363033429 0.07408942291624661
Ni 2.624195828409068 6.856444519979252 3.9727914458635754 -0.3731336602744606 -0.24395886634829597 0.6367648082407034
P 2.5859493426977553 8.478677202672797 8.413286490999411 -0.3318348015256737 0.7500550697261277 -0.8279841781034386
Ni 7.412077867791117 2.909567019536403 3.2336177105232893 -0.32837846754595706 -3.7661979333981654 -0.5216197529347274
P 3.3295071139852226 6.792152140329941 1.8860340081061873 0.6831264262243784 -0.3512299182228338 -0.5208630772743611
P 3.4050244097519466 0.730361990345136 12.783468773081573 2.992493085463582 -2.9590114087663686 -0.11953367129197477
P 2.3686431437558824 3.799977915260601 9.918928720457538 -1.353268781484263 0.0662789257328923 -0.9266479479249397
Ni 4.512397694901176 3.7545393061429335 6.773030755904106 -1.0894234606246849 -0.12321420546735555 0.16407906200251743
Ni 6.04795321075431 4.877430480295538 9.045005814103154 -1.1834427896956394 -0.47137859739098814 0.7388738562983275
Ni 6.971787966804937 0.270684020253842 11.58609823621714 -1.8278131781977422 -0.6406466597936127 -0.5543676367897097
Ni 1.997709843680596 4.345454944101992 12.859248107453025 -2.050139296767611 -0.5800994943381751 -1.2104987653721666
Ni 0.7695953022912738 8.251781505855783 4.652409939167675 0.6552595246107812 0.22795632027245258 0.8332117450509651
Ni 4.713396172165849 7.907934820418125 3.567688125888822 0.3993823095583445 0.11739862722684298 -0.05770146847652642
Ni 2.295541806756151 2.0612123906560837 11.491986420878767 -0.3348095678832815 1.0906676174444314 -1.9615033434957574
Ni 0.6233043528753248 1.500561282328158 3.479927494462908 1.6755815024521143 0.7072318039130142 0.9026451572524391
Ni 5.828788581991673 8.367951953951708 6.699291977475852 0.07220069053396598 -2.4566178510511043 -1.843486365958625
Ni 8.82373186749395 8.64754342833647 8.85997775350321 0.487001905750542 0.7487183531925751 1.2164799226562661
Ni 1.3382274374844685 4.815173081299962 8.069083916251078 -0.06537672563359707 -0.5391904148286392 0.46207480349155905
Ni 2.5880029076496993 2.379682216891217 8.263236867270969 0.5391721599961941 0.044944940141806465 -0.10190078870156
Ni 7.485151328343537 3.8037133592003354 11.877301180122032 0.5710942055157714 -1.5218711852784306 0.11718548277477236
Ni 7.005555636648211 8.133353065527631 2.3057715337045432 -0.05223633159689714 1.521284202426709 -0.49203201197528174
Ni 1.7430956660868957 8.994763163898813 11.818671436136588 -0.20168298839822044 -0.9089489879832797 -0.3343285144818049
Ni 8.414198980041407 0.47882072646006835 13.27343636160658 0.9402899641884065 -0.036375967525872833 1.0783222085052009
Ni 6.953092162808058 7.2202693259901185 12.86970642126937 -0.18924450552455152 0.26186557142538774 0.2507139256839424
Ni 8.253277541861497 0.14891133546322552 6.81748904329132 1.4209669561621852 3.3691108476319007 0.5334244588791394
Ni 8.849852098624782 6.3375337454256755 3.428301243257009 0.2549109944844255 1.2038141542631395 -0.4837826274822959
Ni 3.822957399994341 5.24898635436078 8.673032722543152 -1.513058472082807 -0.18097326665469476 -0.12394568431674136
Ni 4.365814042788457 7.6716726373044635 11.984959090423951 1.2282913134688975 -1.4973762854608599 -0.4811673013466358
Ni 8.161647659548754 0.2640308414955087 4.139486096281686 -1.7261034224610659 -1.2683272463448607 0.8518221610633007
Ni 1.1556367075944567 5.802343125642208 1.6318779334633053 1.2795295428185836 1.0862306647190003 0.563313790239404
Ni 6.404102701605423 3.1030667324742964 5.409399511984711 -1.5564712918508035 -0.6213309901841364 -1.516133254353389
Ni 2.806610007466107 8.818741983425202 2.426634517097896 -0.6076203254662633 1.4256219384356932 -0.3586267249075372
P 8.004749721930798 1.1591491399556997 2.21027147129006 0.9339704497282818 -1.6813315175620138 -0.11908835622444006
Ni 2.5247884172964294 2.285255397698225 0.014945492618579883 0.978035044147664 1.0123903816990825 3.346635035126888
P 1.6087590664930078 6.717954329735959 12.069686764382379 2.27116238025534 -0.25977423611399775 1.046234326831721
Ni 8.060186683484172 7.607333796909632 5.987998406306659 0.8550458102069209 -2.775951434785974 -0.5126018657068333
P 0.32300439499779615 2.5550901155239782 13.006183002801869 -0.10400497952875637 0.8394091321109286 -0.7721454738672637
P 7.382147855527721 3.1008830774348994 9.722408129845993 0.06758247503566425 -0.17616427530182563 0.24875911595041675
P 9.045414668663721 0.06663585965329523 11.215728969592456 -0.5206869567078128 0.05669719558172815 -2.0402189523301053
Ni 0.29460572890670944 3.073601327666092 10.528901627013616 -0.7741838444535312 -1.1822654815580864 -0.01558268492960542
