# total energy = -340873.35478140006 ev
CRYSTAL
PRIMVEC
9.21542093064609 0.00000000000000 0.00000000000000

0.00000000000000 9.21542093064609 0.00000000000000

0.00000000000000 0.00000000000000 13.48770004102351

PRIMCOORD
 96 1
Ni 9.020514899189655 6.6379230780770335 12.397799916539947 1.1348695087726264 1.3713024990575222 -1.0144588341923366
Ni 0.3516678397762646 6.152694297873803 5.259731056198777 -0.10804546814671714 -0.5699284673424443 -0.8992574717271288
Ni 8.485596568660602 5.56189365407031 7.2928400138671545 0.04767699436098886 0.9087988355586607 -1.3186239377168838
Ni 4.2000295152164036 5.1554198621987695 3.1359847462910473 -0.5984018921917887 1.2333203912523727 -0.8385835508858397
Ni 3.391394748526825 0.328840320282182 6.099826348826286 -0.37422997866243296 0.00020517403227061437 -0.7707935878250597
Ni 3.0090377135548905 6.940843183559245 1.0559130813868722 -0.4425932977281797 0.24869638103328137 0.5130921750796905
Ni 4.813619895287656 0.9556944558771645 4.130932288149822 0.10846481507232289 0.7592986998115826 -0.41766465280730003
Ni 0.8445481840810398 3.905117610630545 6.297973567713661 -0.6900154400347278 1.0141248478916856 -0.6816560123264389
Ni 5.232949199530212 1.8463280391096142 0.8449260163442741 0.035715451123738494 0.4603719618678394 -0.603094926792084
Ni 7.3278816524268615 7.248730400989829 5.532992250559212 1.8329512707552562 0.03898332324173286 0.21275364439008523
Ni 0.43507385111415686 7.393025463861067 1.5128210296054372 0.17592541981814216 1.5156406309876864 -0.7194779682702189
Ni 7.174398814764294 8.20267392686664 13.528433474920853 0.7811088537081387 0.6305149706762496 -0.7737493280192739
Ni 8.854812413208832 8.085859249579896 3.8362387890429543 1.7110447283557306 0.15274898170167886 0.916655612598918
Ni 2.830544223150432 6.0538681224854285 9.57696874718095 0.7515421957946153 0.9757259363985132 -1.33208469120748
Ni 6.150998660399775 8.198480910286845 3.786806348964553 0.5260698182862811 -0.7224388506707558 1.6818645072473488
Ni 8.508450812875743 3.9051083952094907 8.836750187942027 0.054922105959176376 -1.1924226245967464 -0.3538341886149003
Ni 5.849764976970536 8.493696923767502 10.291169408156726 -0.6642984948845979 -0.8662344798338888 0.7481015455441826
Ni 5.187738343836874 1.7331534531393957 6.645187594494289 -0.26130507093622735 0.7019836681401974 -0.6546769126344337
Ni 4.369961879461239 3.488645086914881 12.175131383768674 2.139717816458392 0.6646116552496424 0.32663654515418583
Ni 1.8109868993656366 2.4522327580214194 4.876194447331868 0.4663364069813904 -0.44895832071425906 -1.021593388354589
Ni 5.404411323670093 6.5856255635927905 1.529815187572026 -0.6128635761430736 1.006339804629628 0.9088124624054155
Ni 6.636033916760862 8.558075855254184 7.990356155023773 2.4507881317432045 0.6177353024130781 2.7469846152399784
Ni 7.917622522809088 0.6949044908297742 5.296836027532584 -0.5047432888943629 -2.03694850910895 1.578866885937184
Ni 5.632465348505611 4.232900922117777 1.330408220626503 0.5981820628714988 -0.876855964103477 -0.23136123218894344
P 4.0957017334584975 7.974500101557413 3.03952048331894 -0.26463310686819586 0.3764077030400421 -2.009031470983708
P 1.4653348864537448 4.667831934205589 3.759938788880181 1.2483394903690244 -0.9950976560569056 0.46688302351347977
P 7.63803586343685 0.58073279630146 9.719506429257098 0.162706607135023 -1.2756813727170868 0.7532368098882188
P 7.894482600541258 4.8668297364562925 10.635928446768437 0.7380120225186644 1.5235105206540667 2.0601809972743297
P 5.851257875181364 8.876210620897362 6.192783222545055 -1.4209163054299077 1.026693942805948 -3.6677545071175865
P 2.2365458282410304 0.1827768181105867 7.941679379471839 -1.1120124016687944 0.6006930022188107 0.4526182860643495
P 2.838672224520494 2.3170793928362374 0.773874198472034 0.3032973562076131 -0.47837791152695686 -0.8597113340033903
P 5.2992633694383375 5.477286873369017 12.978809175473042 -0.23846493311326028 -0.6212636272813107 0.577847722189521
Ni 7.1828032787659915 1.7033876431333863 3.132518826432453 -0.3437307816323113 -0.4386296850947413 -2.4097764652175337
Ni 7.368079319066556 5.969353495994682 0.5472310545999591 0.9129179999333568 -1.7976973326489685 0.2652933661600141
Ni 5.467057755998531 1.6019074264813187 10.705281862540335 1.1925671205944106 0.1907545144111747 1.0609870596608633
Ni 6.740536791518803 5.834854425704368 8.677703079046758 -1.444786941399918 -1.1302510361640083 1.6643969465902044
Ni 2.310066457413769 0.2960371074966118 3.837453381537937 -0.15299452205358166 -0.8814595243137593 -0.35053057816296407
Ni 4.021471516864564 7.289305899892757 5.048918162614109 1.312723770182365 0.6380174497008818 -0.9017175032318471
Ni 7.803019546575423 1.6656689247573497 13.325699740974658 0.5185753096814488 -2.00149016830134 1.369660335468409
Ni 1.5631289346840154 8.13495901295823 9.597968848679928 0.6032209108469869 0.27766782856496697 0.2491869475164547
Ni 3.626517001311138 3.7805804105001384 9.74257078507228 -0.14155928363344653 -0.051794101853155965 0.48665840636819413
Ni 2.669200631328383 6.1753826645099625 11.944761523622164 -0.33023428980777325 -0.02178752818873667 0.901785380355305
Ni 0.47513328643803426 1.5669994115269021 9.036449283734978 -0.2697670856606515 -1.1299090794435573 -1.1587817966138496
Ni 5.687472196779875 6.8165455843762555 6.915413229159373 -1.9795028653969713 -1.5942395117385124 -2.5488008982442687
Ni 3.1043712443636124 1.406227175810232 10.060852997452331 -1.0963068180080797 -0.9766692741483891 -1.0302459218232642
Ni 9.179066218432194 9.12816023252718 11.060453405401516 -0.3370983639174581 -0.305926309190028 1.0121137309989279
Ni 8.931604516855915 4.234227942749624 12.759512565265608 0.6157750933629137 -0.3103889729470719 -0.42365789427625744
Ni 2.18129937901935 8.563199629360481 12.97197133305061 -1.3805247889867385 -0.1718113976497686 -0.4221448000658407
Ni 6.981842591830681 2.6498113854297314 5.111002454258223 -1.1513754768474493 3.3184940539162975 1.405259315618941
Ni 0.9659880811950322 4.915828130203027 10.541487890259898 -1.0762977218760044 0.8298618547421256 0.869983662463676
Ni 6.22016039541374 3.8455399135132535 9.987142530605869 -0.9693778826932983 -0.9193812390601972 -0.4194924500446582
Ni 0.8711282230285117 3.1949680487503245 1.2301066563273049 0.016647892969326165 -0.05688411478155365 0.47663521780423723
Ni 4.580359157556349 7.541734713417407 12.826816471394986 0.31180487945799207 1.1649789265634969 -1.0363576911479573
Ni 8.921983617275025 3.517655232394422 3.5984376133581004 -0.5516985745979789 -2.3229395128276313 0.9976481903929011
Ni 5.225586078107673 4.885030193038915 5.106308118773065 0.6882848304968662 -0.5397030927989995 1.1578574850273673
Ni 2.7036663060721837 5.5244790445890715 5.595075620661221 -1.010834350065872 -0.8253786221597914 -1.1736065203315076
P 4.835359073555202 2.3309670323653573 8.782111034967837 -0.897286721154003 0.4188769279478463 -1.076818627376481
P 0.9923257545687708 6.450223382039137 8.114497092048836 1.3158831417469532 -0.4688023520233798 1.112333275343323
P 7.56036829478959 5.0147741060651105 5.341789772978503 -0.5405003918893142 -0.5300241749483389 0.5204673844978391
P 3.3180307815120127 8.531019379038195 11.023416628183513 -0.1277768851373735 -0.8318529170302255 0.44175280410475537
P 5.760329315636691 0.37122941404863513 12.636356756751269 -0.07169752564530232 0.6231569876492816 0.281288970257322
P 0.019380952019702472 0.9691950477219955 3.7133797170865703 0.9922661001453814 2.081530923705015 0.34153454531194083
P 1.034292782050928 5.670580329986991 0.36765567376370306 1.594544958794073 -0.5714194500656739 -0.21039362879834086
P 7.917438214387998 3.4815584281239764 1.2737177149255836 -1.1443869613447581 -0.00448966034023743 0.22817563537211025
Ni 0.7420441341498181 0.665695292255456 1.7877944491977962 0.7599923834444975 0.25293690147719017 -0.9572242780498998
Ni 6.962950978668972 5.13898876645861 3.289312764879899 -1.1903588000891823 -0.2654003240515236 -0.2253307097241474
Ni 0.9323425789250812 0.8621938723161815 6.372493148528706 -0.3215812421184655 1.012209633146844 -0.6174121147457045
Ni 6.245124971050359 3.9297320002670935 7.156843437655486 0.9793403932226488 0.27869472716758453 -0.023575473327094882
Ni 6.78896382916016 3.407558597056404 12.518150550885299 -2.144206191247049 1.9642245990816622 -0.2105810622187986
Ni 2.8990608786905807 4.581317561346017 0.9149033161215603 0.877359900323089 -0.07209733218688229 -0.42478892255690714
Ni 0.8883914712898917 1.8279156278427389 12.502639154166378 -0.6287429663774914 -2.1608574266504847 0.3937014571234832
Ni 6.019623617846936 8.991642985025932 1.7954957765730355 -0.9837441787172994 1.2050138309981955 -1.162903532091707
Ni 4.290764550918933 0.1516609489200939 8.404981908360117 1.1980253154955045 -0.6796220126155457 0.14780063655746803
Ni 3.580882236249293 1.1724135128156568 12.290059664365565 0.5236267560624273 0.34329960763216355 1.9284813800437817
Ni 3.0308690460329824 3.166418674323508 2.93824116284586 -0.5054148610400909 -1.2891943196018572 -0.5388790542358074
Ni 4.11634427662056 5.028698607278448 7.338589971692182 0.21126626121128134 0.03426792004393454 1.981013388504227
Ni 3.4959160541268752 0.2389162416324475 1.3408216464180793 -0.2862393722840619 -0.16604621303121728 0.8623508285087664
Ni 4.870082780088529 5.548531293541296 10.852230966675267 -0.8079966792379182 0.6975742262185922 -0.71534903370351
Ni 2.20043980854953 6.639342252919425 3.3268757426401145 -0.5916208647142133 1.022667081034742 0.2741194490920763
Ni 8.208092594446681 2.4633096941289194 10.910241120671191 0.4506555059110238 -0.5943817152888021 -0.3462229519265456
Ni 6.7371178703075865 6.64659478928931 11.693674475403048 0.7975222620691556 -0.5180268933771466 -0.5127869851344459
Ni -0.10616349363196063 5.347902361763947 2.34862654373208 0.7517969921178987 0.25833416123336156 -0.9093140846321823
Ni 1.675934903812054 4.211115666744957 8.398075871821879 0.7491428423245033 -0.10120993328212248 -0.328948224006498
Ni 3.087663685991818 7.331143911480152 7.147078777506147 -1.147835582014991 -0.053494115263398194 2.0597017436450655
Ni 9.287762109769927 8.388677985430508 7.611324965510404 -0.700862924272193 -0.7377425709073617 0.18319290001383287
Ni 8.438634782966911 6.946879284349937 9.514506623273602 1.3407791336576844 0.7198821456871731 1.2185617448859596
Ni 6.871441847597865 1.9215627365984882 8.314088367415449 1.4422616038749032 0.052256386201555156 0.2628824427256763
Ni 2.215884854236859 3.5199314413948817 12.222783404499348 -0.5414509287280417 1.7188146021091366 0.2982099143823767
P 3.08463181246489 3.52813316613338 6.2997401639298065 0.14577537859732312 -1.1438812253529331 0.2253394514748958
P 7.6598579804938876 7.097459264380339 2.524708358446578 -1.9401994398116584 -0.4440102326803643 -1.6342777586073207
P 4.946321958472343 6.963983105827075 8.788342502684886 -2.0341724890257096 0.2829673864010095 2.4320411901530052
P 5.2027779109978045 3.1705656137980296 3.3593812973256245 0.6054983940272539 -0.3495977819360495 0.44936404079311
P 8.557467637464587 2.556127414989764 6.9598149708841275 -0.44739226177871977 -1.2657234901734267 -0.44500216427998845
P 1.5352338551520677 2.851223627996712 10.29896473282672 -0.20028687938164214 0.5468487027048453 0.29398764877091305
P 1.6932322491313359 7.801563510048814 5.304213893628811 0.7853838269344087 1.1945016186129622 0.17018646045183594
P 0.025666790720971576 8.916325348747566 13.436312439891728 -0.17894235226759503 0.8528811984554344 -1.5861595629438554
