# total energy = -340860.9815599826 ev
CRYSTAL
PRIMVEC
9.36650008786128 0.00000000000000 0.00000000000000
0.00000000000000 9.36650008786128 0.00000000000000
0.00000000000000 0.00000000000000 13.70881965891993
PRIMCOORD
 96 1
Ni 9.310610183090889 8.916711388342923 8.541595236223674 0.4032394785209055 0.8974201614080737 0.15445310887697916
Ni 9.106270617146587 8.41920973610917 5.5106023639336374 -0.8307242027424209 0.49550968611123697 -0.0014534446170749163
Ni 3.5722613694902323 7.633866169636591 2.6195496862251364 -0.6787864040881277 0.11176534020046558 1.0904472739035092
Ni 7.307518573531378 6.043368889002935 5.537252866637218 -0.015786059189663134 -1.4989004354148703 -0.1164455192849543
Ni 1.7016776366915416 4.27019675713112 4.34565515514911 -0.21636398744916283 -0.049951649327778486 -1.0661089542684608
Ni 3.1872232838265773 9.795485793204502 7.592204913890182 -1.0464351299886174 -1.4025084923466813 1.3912344620947588
Ni 8.108625959653951 7.17179798723999 7.541098479453901 1.6628422005085752 -1.0808832843641578 0.476546771855489
Ni 4.491058829232633 4.149116010479031 12.54188411683661 -0.7873625479273343 1.5607318668993702 -0.4560105995753501
Ni 5.199391031972446 4.394452747313422 1.91465592566804 0.26345811272348824 0.7936864332628331 1.4173594413165849
Ni 3.3577872504495017 8.725288226021522 13.511563215013151 -0.13439207646104595 0.35512719639471096 0.32200161748533573
Ni 6.483884754694464 0.15321814510787776 4.57937649522298 0.33441053267264986 0.9504568774190794 0.29274220639958615
Ni 8.474340955633748 1.9176503957465325 4.8081626263998904 0.5800861246017364 -0.5597751809585263 -0.018492402377232667
Ni 8.116362688727568 4.247295664413215 7.506401216523757 0.7145381077664403 0.17033121355981634 -0.5815148866284631
Ni 0.5134809013857946 5.766017454863924 2.730070640676749 -1.4278680541573925 -0.9622757244308782 -0.10113717106265807
Ni 2.121090777682277 1.3240578190984715 5.540131192114606 -0.06006534072301268 -0.17466686482069274 1.978148408251606
Ni 5.094842157977659 6.165479950664828 9.925268018439384 1.2717252162828163 0.0984393125155208 0.4743713614707249
Ni 8.264100494633299 3.4678529929967823 11.204671048362965 -0.5938464116106225 0.8233086270046401 1.2079875689145392
Ni 2.3876520037186193 8.178219055316134 11.462122416412628 -0.012800494198777957 0.16477505962827751 -1.3251059458968018
Ni 7.767956984912471 6.1310767958374806 9.872694790089147 -0.12355924751160009 -0.42561964598831864 -0.14601423408100658
Ni 2.836429122488755 5.273882807181239 2.545590864871415 -0.3268419762967726 -0.13395653158552412 1.22962005958265
Ni 5.1845451293311875 8.049495244591322 1.0352614585005608 -0.23482605080909236 -0.7284169226310617 0.13184334189726327
Ni 7.691535710685319 1.4707653099944 9.160507335912653 -1.7395114683368558 -0.6689244236923835 1.5092100448709944
Ni 4.562581423913174 2.2462459518731346 0.44509421093509205 0.7475371884002804 0.15877333351888784 -0.3631426105000197
Ni 7.95758177921676 5.944055888557967 12.383066677975453 1.2591049564156442 -1.319622039964095 0.2982986174414411
P 0.5077148839309307 1.2433747873307688 11.185656116532035 -1.7891016205601575 0.1938688916704403 -0.4261120122437049
P 5.627496285045888 6.627360803059645 3.098357677581017 -1.2902399872575523 0.2096534081982067 -0.68219388710778
P 1.8040628491657418 6.582832461635957 4.1093421045005805 0.7104827067501441 1.08411079016252 -0.14005133162935232
P 6.387990526782026 4.685816465585761 11.142857767674808 -0.23947640509691018 0.18646180057309178 0.8955232014956771
P 1.6270828299817686 2.044959864957888 3.715364631151867 -0.3717609482966501 1.2236764404047054 -1.0149074916939813
P 2.8967212835624374 8.194825859974149 9.338036232001848 1.3602518976703155 2.0126623828680756 -0.07384439678497605
P 7.667988329461265 3.849350541626749 5.193983751470996 -0.6328688156204068 0.3457323854433723 -0.4739664127228224
P 1.3645772984840163 1.418603270998076 7.862693513413894 -0.34098227235289663 0.8438203738047467 0.4153126076353557
Ni 8.855594975261397 0.9113454722714944 1.4930547702564856 1.4758427822644582 0.33509830276829383 -0.8543891504595286
Ni 1.202611778942907 6.493195055783052 0.5796364915152681 1.6857982950841162 -0.6496861442880617 0.3568346660041209
Ni 4.811205802278847 1.1815277872422918 9.754277876062407 0.3062944911627241 1.5138089770955865 -0.5686452297546465
Ni 1.8725694308175849 7.31252965107906 7.796274724631916 -2.442712810934238 -0.36127084739860366 -2.0644598271553414
Ni 8.219000796704174 8.541133467769281 11.174113778472211 -1.7205953481586433 0.904758604051016 -1.9262339787705018
Ni 5.022411012788473 4.962268715716217 4.5238827921449545 0.9775136244265553 1.0534539845086117 -1.5236249347447437
Ni 3.901250318620578 5.902009669657896 0.7772134443952219 0.627076634418662 1.7530542400182971 -2.857625097807382
Ni 5.660531930860224 2.5559773768202434 5.13469286925684 1.55204976574434 -0.4991431690987662 0.7834963801037087
Ni 7.395310778866724 5.384632304235026 2.829911911726743 0.9757663027181452 -4.788747000797804 2.035937294235616
Ni 2.153171040487522 8.170960017747063 5.558857635742789 1.1646153725764912 -0.16054225249385254 0.18054492086802454
Ni 0.7158591222114328 3.441420729745278 6.149036123108364 -1.500027349930462 -1.6560413755366576 -0.4571441989591611
Ni 7.621530489019216 7.278032831250821 3.668617365857064 0.6552363846823296 4.18284082980917 0.7174233997340355
Ni 4.792884928104522 8.852700726733858 11.334739888500575 -1.0976175663997032 -0.7223380634268335 -0.6000993344988698
Ni 0.367659481398297 7.888063615555292 12.468760787290837 -0.005186429296945907 1.7672030207148532 2.971623183993108
Ni 6.5489069983131545 3.9530938966138716 13.933095994974055 1.5419558718434476 -0.3848836017215371 -1.5438230069591734
Ni 5.045461969507805 7.792665812147577 5.000771587632573 -0.5463223978877301 -1.1640749266919888 0.5660862107782185
Ni 4.076900294791895 6.7430932781608455 7.536272858607986 1.011738092827064 -1.060092829981368 0.632705036349033
Ni 6.8715267273828955 6.194113341437276 1.0110415625701075 -0.6806926199719051 1.4309587772675745 -1.6835264683308038
Ni 1.1952122438725 5.940740147526418 12.102707660657826 0.6487764879895989 -2.8116362897820935 -2.2157139694790486
Ni 5.8755961394065706 6.821331653405288 12.628619780961904 -2.629683947043581 0.020833391805583475 -0.7898300356312205
Ni 6.289764040347397 4.2195614576493226 8.919026787164954 -0.6645072684612943 -0.3290875777978397 1.9136337735079882
Ni 1.5101046103687155 1.1697353636300862 13.079859352605467 -0.09337655328063273 -1.251430470589522 -1.1938706698971826
Ni 1.2629882385173916 3.319112971581514 1.9801015350907578 -1.1122011206408329 2.1865496892102665 -0.6718763072318559
Ni 2.967091798732016 5.842981986096245 5.739060667607428 -0.3945350087683721 -0.8901267130704541 0.2562312559577458
P 6.881043091473444 1.836705101976334 0.6111135517147738 -0.07482990062669694 0.2645228065425767 1.4698873360119717
P 7.566146373992233 7.947016367116229 13.45494646857444 1.0199897913128948 -0.37588808309114613 0.2743001976443147
P 8.319981034165005 9.54109165078393 3.446725915395757 0.8254524128205204 -0.9420012904525583 1.1699416698854108
P 1.5221686624835054 8.698977727271178 1.0524012170136463 -1.0422223774588502 -1.5961056184129736 -0.42731117475812863
P 0.5243638378393463 5.523116008052705 6.751456626090423 -0.12328696768681995 1.3791520770089278 0.06898758291330699
P 4.339368360289291 0.6803066978231498 5.899426388933316 1.223163248213713 0.07930336301701826 -0.007403491552922733
P 9.435531194779518 4.2578142440133 -0.031507969649799794 -3.6348757541116945 2.7187377045791434 1.850851805184761
P 3.354153048414922 6.493635281287241 12.362668314081363 1.0712385621855423 -0.1713588834933823 0.4649575243559928
Ni 3.918728207786881 0.4922105163334059 3.8521511251533966 -0.6046758981259587 0.17630105799000603 0.38366669859530056
Ni 3.6287226320274644 3.4733792280493643 5.398601502467944 -2.2042684466462683 -0.6232040388371332 -0.008502638154372454
Ni 7.1322994563641595 9.396285559406092 7.182448634491331 -0.9283075950155496 -1.0008540989247086 -0.5270638067684342
Ni 2.6145461018775276 3.373363740097713 10.588843337153337 0.29248741007630275 0.7890630755582088 -0.5997908021195154
Ni 1.9600057091495453 1.2734693521171199 1.5597479974910746 1.9089103998903898 -0.5520477304072815 1.498214465091439
Ni 6.939677382031352 9.089766843989553 1.9003298637817267 -0.6183497960686254 0.388970113086085 -0.3189995974342184
Ni 8.076152303844964 1.356606406908173 12.683125318280524 1.8405774198419464 -0.1798772053770386 -1.46691282676468
Ni 3.646959207700986 2.9335128959125116 2.8275403139041773 -1.5877580177792268 -0.6509207880261112 0.4844081768814368
Ni 8.940193204066352 7.651980980808954 1.6134733053522734 -0.6846302644634145 1.1181180003459001 -0.13488984203307092
Ni 8.788577667123723 1.4021088643411308 7.144748471632614 1.0310018261526825 1.9548421294254978 -1.2512114126001805
Ni 0.5910139791735254 7.083631121901078 9.775608206715365 -0.42919450782377055 0.39954043240276355 1.3261585555310322
Ni 1.2346639422478847 9.21353577616722 3.700476579260206 -0.5967558719479336 0.1288312945438168 -1.5501710606643884
Ni 1.7381507880385856 4.185973188329729 7.95125283510654 1.534976098091505 0.500290395329332 2.2895719931107794
Ni 5.823593330911761 2.1849703082900938 2.873697489693365 0.9880088675309243 -0.9902428990677654 -1.2736854253329808
Ni 5.776966893468108 2.294455327831849 11.992160480005962 0.5145975559806234 -0.08874702492842135 -0.7558346525223821
Ni 5.149692382499563 8.712250057897464 8.228267075242343 0.28012426052525946 -0.5658365566612578 1.1694773286544828
Ni 2.805903698698304 6.139506645917691 9.739993026776485 -1.3304006186368378 -1.493977801302272 1.2353160815261628
Ni 5.351559192420335 4.467080589004479 6.8280202711189295 0.31509717705601864 1.4348959075384513 -0.20676657356871483
Ni 0.14758419530427044 2.792715666572819 9.477167160975686 2.4604225695091753 -0.2597948049392881 -1.254763134507181
Ni 2.4102252689334054 0.9768416607946937 10.124374520783894 -0.24951219206635739 -0.5435672037400961 -0.36989381318092424
Ni 1.5722981709604902 3.523340139524745 12.759223448254604 2.990363697825405 -1.292085267996407 -1.299515241911891
Ni 6.134317604868317 9.472247875128879 12.989380835044562 0.06946503677035779 -0.05328097081132759 1.2196210393884093
Ni 4.299738698412213 2.491985448211357 7.391891069684187 0.30746382888047696 -0.062106539522757555 1.1526018930553827
Ni 8.253506983032501 2.8707573453153894 2.645349710720625 -0.5851144310542633 1.0634568613575943 -0.29274811993685707
P 6.494974690799985 9.139128299459228 9.99523764740515 -0.3137756300311177 -0.04024830599708552 -0.4255296573776736
P 3.132841384309131 3.8714461153369895 0.6726420908002207 -0.3896511983135096 0.455224613338945 0.9982523996358035
P 0.4836785714022241 4.985900395441074 9.923211135019814 -0.10694657865558355 -1.0058605510003644 0.662613136762375
P 6.132060278346838 7.096079200519522 6.952291247701374 -1.4293721495067446 0.7402311416571703 0.061889024195312774
P 3.4838322421488255 1.9375073759354726 12.177928149573551 0.41106385966133074 0.060219606912689835 -1.4822129474568602
P 4.162978430610933 0.7558512676419599 1.8261247034756614 0.7074850575744009 -2.12985172229759 -0.3776755140088721
P 3.9175761282759187 4.571442132997484 8.793728305522732 0.8604412701908793 -0.7195977816775349 -0.9646269982718741
P 6.548869532312797 2.5014081473010146 7.566692440947429 0.13231565354799146 -0.40851358243565133 -0.5474601110365991
