# total energy = -381166.1933612318 ev
CRYSTAL
PRIMVEC
9.27270751219933 0.00000000000000 0.00000000000000

0.00000000000000 9.27270751219933 0.00000000000000

0.00000000000000 0.00000000000000 13.57154474374524

PRIMCOORD
 96 1
Ni 6.928474438238532 0.8793447766830623 5.938134423566258 0.16633623346781032 2.07104802189582 -1.102579795500985
Ni 7.539323328204138 7.892947307615888 3.3214050666421087 -0.6445812189613286 0.3269815871984304 -2.0502740225732623
Ni 2.510937962475054 8.35367106052789 2.797868919296047 1.3073859029092192 2.9401369404593685 2.440838990950293
Ni 0.7154190688155693 4.098082424087525 13.621487938077532 -0.4043098287669489 -0.7230340610525935 -0.17406676934284862
Ni 3.6556166325627073 7.474423647275283 7.395283869189342 -0.5319131644409355 0.06394899204813503 -0.7127121103012951
Ni 3.560015016563779 1.0909247837689544 8.578940365935726 -0.4136588740820166 -0.22000081287080178 -0.6742671760615355
Ni 6.989794854009717 5.5686596776764725 13.330364790122387 1.418723154433331 1.0494587473062893 -0.5655596488507872
Ni 7.404136523194596 3.3306267744123255 0.4376643834972472 -1.0931088798960724 -0.04929498958038608 -2.119884326672233
Ni 4.506665741814079 2.0480073051394094 2.333314610848723 1.9810635250158724 0.8097671408747795 -0.28369526570596953
Ni 0.374188063194564 0.6104445999115277 9.73945682071069 -0.7399508914125902 -0.19201924005621124 -0.23505745009360807
Ni 7.788045165831613 8.134065524960226 5.492662420217304 -0.45930495405590577 -0.07844281478893586 1.4959171844168302
Ni 2.8632915809370596 6.323170627455016 9.486631809942622 1.5441078851894439 -0.9044639556287327 0.3597652093873546
Ni 2.3243432661853904 6.237657717392736 3.2167681242969772 -0.6947200445992487 -1.595056094102537 1.2266434934528296
Ni 4.424222097988039 8.199632840840772 9.50004107249316 1.519168441635287 -0.7189290377452845 0.5593602049082947
Ni 8.788357050323988 4.738131070481902 11.621937948640081 -1.2100002284691935 -0.8833521133507819 -1.089151695020537
Ni 4.51735717374878 4.803132751195043 1.4349737652485508 0.8332670237689327 0.08917665626667222 -0.33359729274273514
Ni 4.038718549633098 1.2060269039818252 0.2810316602061999 2.2527604807093846 -1.3693913980777384 -0.21946808029578332
Ni 8.926742939477045 3.0299870465832996 4.82695062809658 0.014952764655090376 -0.8858239719300423 0.28983917382017826
Ni 4.887208391569659 0.9133375957025067 10.58455656072589 1.7371697075775567 -0.3994892674498539 0.49317769554395063
Ni 6.2743590943203555 8.970556483181694 12.88660267406637 -0.20211236262615515 1.3801946593408294 -0.9086710517315447
Ni 0.5635228445984551 7.813804747717648 6.676317989692921 0.7016178001603466 -0.5234352088769114 1.1212367484805401
Ni 1.8425148306338561 1.3378662615252552 2.286519891630625 -0.7404501996465118 -1.5398059153799804 0.8499444844246137
Ni 0.5996493136510085 8.04881225071249 4.31204644431341 0.5203987360434328 -0.5518137600196046 1.2453624100185714
Ni 0.03563965190027945 5.387480242661626 1.9208617922146658 1.4645993481401551 0.7028061640414929 -0.7606112479754191
P 3.680356216605883 7.1044982477931065 1.585522665042324 1.348252302106278 0.559294898887998 -0.836806918601391
Ni 1.915435403690653 7.2710824409473975 11.772880938509504 -1.3450016563794642 -2.07712148178341 -0.44184047872255516
P 1.944208615566955 0.017175836402988844 7.2370395493065764 0.524014221308833 2.1011738947469234 1.6675046389812507
Ni 4.260020990702975 5.051251862824464 11.089743874149676 0.8189084410544154 -0.06340751772236822 -2.5140519247988578
P 5.8613156042082055 2.022637176975193 12.400117484726799 0.8036260609740482 -1.029599546488517 0.5632603112936493
P 2.8032137079926316 0.6472563220603293 10.70936071496589 -1.0070676839345882 -0.06797919625345067 0.2207736864810843
P 6.255452043396804 3.5279778115903264 2.233889857480604 -2.069483505622178 -0.18655153207342065 0.7558156263589887
Ni 8.295559001607883 3.3309142283498585 2.501140419559005 0.741446245011194 1.026182293276852 2.1684900034950783
Ni 8.874064687247179 5.250976713164029 4.185206930741524 1.390375456528573 0.8747661714539839 1.0322197577201837
Ni 5.5970341631232925 3.2099239387713894 10.110637744810349 0.9719752111068293 0.9812782336753101 0.6499239713304806
Ni 6.993550300612973 -0.07228261076962621 10.046499353180574 0.4456374838711422 -0.2652920806084334 -0.6552718659059554
Ni 8.366875396239092 5.987813882138117 6.525877580578797 -0.2465140286699819 -0.9177596442963742 0.8880502901573996
Ni 4.752540858189209 6.588323703060192 3.3336329862364624 1.0437874079531249 -1.0700568831726152 0.7558485364794532
Ni 0.4963532048338541 6.471654495252382 10.190751157200838 0.135835750886108 1.0436369984181897 -0.5962205682697539
Ni 8.372077385237676 5.1221695310261905 9.053401635249514 0.24704701835531648 0.3623262852463115 0.3965001029145429
Ni 1.5581394320446094 2.243754163891822 7.722914594481964 -1.4651122832208316 -0.5016168274502393 0.18919256924069353
Ni 3.5072254918419654 3.004774554449344 6.793481432819134 -0.565103278039659 0.3634657981673934 0.10459479059395535
Ni 5.288614633565547 8.821914979354068 2.927694244735213 -0.7223897426003753 1.274691755110308 -0.227021467163009
Ni 3.5877867760125466 8.316756411324038 12.269110816331448 2.9546618735484214 3.432121387026166 -0.20625878069436093
Ni 2.711682810657479 3.216387016012054 1.584477630888776 -1.2593756935785279 2.3963100552999825 -1.1716591667971499
Ni 5.934440176833574 7.1443616180335905 11.682752074572901 0.03858145981762388 -0.8111079711733902 -1.723867334041696
Ni 6.8114065040012415 4.463084015800989 5.127804555472607 1.4751655536917754 -3.2603750382863788 1.4917771941065276
Ni 0.21841028354998623 0.8473390989156617 5.743355635493796 -0.8003062525721958 -0.6531512200185268 0.6874242822687839
Ni 2.0227206313441544 4.888080026089921 11.078207698546933 -1.5730469368212974 -0.9444456382279929 0.7734739628707001
Ni 4.992064169815622 8.104986313731066 5.278408164241587 0.513500980482335 0.6410194697519992 -0.31173674522421796
Ni 0.9866439133980575 2.4613938854350663 11.083880741094763 0.6985977823871001 0.37779866985029775 0.92398942725617
Ni 2.036017694131978 6.179165477458572 0.8445461593677589 -0.42652930228678154 -2.1904431107274016 -1.2936400140780366
Ni 6.183866740243387 8.70442977327197 7.573030547827583 -2.5383277666270865 0.32611743942592225 -0.19284173595750662
Ni 3.828274449235845 2.485410198280578 11.842787881576035 -1.7582535248310494 0.9510883403554911 -0.5991701378163811
Ni 1.926599743716134 1.9617618511718018 4.784010573453726 0.7792864557874192 1.9098799628925105 -0.5589639979111406
Ni 6.965778541164205 0.435745860281905 1.2868311330931599 -0.3352032037772743 0.6922062770384595 1.8230939183452024
Ni 2.1834537459634973 8.456755751610343 0.628561616142246 -0.6195571861131652 1.591539853419162 -2.1053982172409156
P 3.6345304953385016 0.938704014783658 3.7700937722791354 0.04847197945845845 -0.8829913875772536 0.8804791626783611
Ni 4.722692012224073 5.0226919232243965 8.343541554677529 -3.284232561630266 1.2380807887554937 0.8908731043181753
P 0.755870328721847 3.7486404358315 9.36306278036325 1.26548617735164 0.43628843855607435 -0.5319946684111483
Ni 0.3140202449858107 8.177202161005525 2.1883840446275737 -0.6816387859352583 -0.11904439036038207 -2.130677560632995
P 1.8718073141392506 6.41246680224354 5.432852528524317 -0.37475988302397395 0.06309512868827198 0.6054600845901509
P 5.230187302585018 4.011716424920307 6.459241121504782 -0.2882623162513616 -0.008469985144224123 -1.013581830904022
P 6.645999944720069 5.386636426264351 10.514988998759804 0.06552199296220974 -1.3493221381316889 1.2116421349479907
Ni 8.364260492678305 7.892381672448484 11.450624674577986 -0.05770095425589417 0.501944128882671 0.23512635565833057
Ni 2.13072913019532 8.362962313605575 9.218689503872607 -1.2500222773880858 0.7620158416324295 -0.11071401611781578
Ni 7.944253199111724 1.463975085733347 11.960385287420847 0.1686638531597224 -0.2801376302616982 -0.08576865902638776
Ni 7.14274816690034 5.582782011446246 2.602506877911622 -2.229214060848012 -0.7291915960135571 -0.03959370313222213
Ni 4.187313689922412 6.247134424623667 12.880753450072953 -0.8744640668325326 -0.25446799340973597 2.5588857932840963
Ni 8.621411221570865 3.4947073364977803 7.276139775706449 1.3703154525539045 -0.4267637868950908 -1.254485198255446
Ni 1.9683454736120771 1.6420388909736399 13.48655984161177 -2.0010281410632573 0.7640655250726067 -0.9983246476346355
Ni 8.21389426522548 1.0409912530071477 7.894187995901111 0.5414722688842803 -1.1454693957756596 -0.6046530153078232
Ni 8.194273215811927 2.6469871292971954 9.462135170840199 -0.7754177168606323 0.008788801936223573 1.5936705266089197
Ni 0.17207549063194114 6.391631028126218 13.040910729546463 -0.877657891179482 0.8142246624255011 0.602071370623576
Ni 1.4248164412752018 4.247280290374892 6.144136896993241 0.12174816244479032 -0.2278655603308592 -2.013629117656719
Ni 1.430593338148852 5.530521031061187 7.959874002439735 -0.6851339435727104 0.24367990165529646 0.5225692613321903
Ni 8.787791415156585 8.991772438313172 0.13048183314166054 0.33450360660708844 -0.7564275489113746 -0.672174555198565
Ni 6.629429616127433 4.1859135110653956 8.00560977844279 1.0335510749370973 -1.4807381626835465 0.05086901893572529
Ni 9.064989738015164 1.983858713531205 0.9720440351836722 1.4272497038471033 -2.1937420931936478 -0.8713260354241833
Ni 3.6886645626713572 4.197504395643345 3.6010597297604483 0.5733207808534448 -0.7213389327383577 0.6065587169709683
Ni 5.717523726487993 7.080704479931492 1.1011433076128747 0.4965820932398093 0.9104962778657416 -0.5896256886610556
Ni 5.511345071615426 4.145095051935688 12.704268786947562 -0.8461055702944977 -1.5407955329867593 0.0804287348707131
Ni 6.007230931983098 1.6284265561252957 8.486856815223897 -0.4068932732234089 0.25379822103622096 -0.9128426666107312
Ni 4.614896785649142 1.062735752475381 6.166516576936346 0.010287497968937121 -0.07651808696239726 -0.16611460437530745
Ni 3.2679154524917866 3.400246263541322 9.394643768119714 -1.1253489708767006 0.06924315056753882 -0.17327306979695964
Ni 5.748299843219366 6.400783190588967 6.622602121475637 1.757491192743728 -0.44938358117713567 0.43978565307605544
Ni 8.570606056288796 1.160080637514833 3.2184919206514095 0.530478488876938 -1.3517865405117817 0.685173281451078
Ni 1.0272212821285434 0.09492285379804362 11.909573631243415 0.15795932225802473 0.28912003626596655 0.4198050961890705
Ni 6.46720359557445 6.655977378164768 8.848905049546898 -0.15424433530028273 1.0313409546596561 0.7521438339343564
P 7.907820730706312 6.970581803733308 1.0621608446003148 1.5725586843309691 1.9020548104211372 0.31285131844463543
Ni 2.750971273022897 9.061558836180092 5.347595545193518 -0.20043188959993868 -1.7699366175959323 -0.5392708903575875
P 2.698969928452384 3.9366538563935047 12.935853733544228 0.47297293846130156 0.37138659567636684 0.9182039309226445
Ni 3.989239381546747 5.788552667181669 5.44999312863819 -1.6367447320905748 -0.6087454402096419 -0.09697969725085878
P 1.5745892154376355 4.265473342808441 3.6187576196048283 -1.1615274776797866 -1.8075140616290741 0.2455012711347514
P 6.863982756446821 6.295463776959886 4.691533859937012 -0.13323482292815117 5.245575468288759 -0.961517506108615
P 8.01186978338565 7.957800625006431 7.970242744147786 1.6727152366479128 -0.5273366008138466 0.21152002909330023
Ni 5.65848439680175 2.766716330633584 4.429793140751585 -1.1041545961872725 -1.8623664906925796 -0.5667444131875078
