# total energy = -340887.22022027784 ev
CRYSTAL
PRIMVEC
9.06126657397345 0.00000000000000 0.00000000000000

0.00000000000000 9.06126657397345 0.00000000000000

0.00000000000000 0.00000000000000 13.26207955787495

PRIMCOORD
 96 1
Ni 6.199346987642125 1.8625433171380321 11.144165260906076 1.5271501742891829 0.5386455980687626 1.309640503271351
Ni 5.146065376432566 0.5164305705780164 5.803366925749996 0.1441391285454808 -1.1019323917249733 0.6735675788913497
Ni 3.1875179413423207 1.5914302251955854 4.708833899063565 -0.9886884100964521 1.0494731454839925 0.44185950488594866
Ni 3.902361250945918 4.5864868673113826 4.854544500209612 -1.7734202052691586 0.8311659182655299 0.07297433547519691
Ni 4.033876472084042 2.718552096640405 2.27495054896273 -1.395353369359139 -0.09577359275789957 0.37982187092791364
Ni 5.193256452062121 4.547006929423909 2.9029896444326018 0.918228870623309 0.8171523775952572 -0.6992742396288344
Ni 5.303749535054974 4.522351223435426 11.479616062966135 -0.6891667188811872 0.41807165843773164 0.23671221208821167
Ni 5.471691047289644 7.85337244141854 12.371795605851391 -1.2603483419044423 1.2256520760738374 -0.5419150128486538
Ni 2.0059106747821964 6.447897526144175 0.6071800601205566 0.601311609639416 0.7114278442722328 -2.150227200630148
Ni 2.6448296328688894 1.5678346873808082 0.03004444114149634 1.1644158549711752 -0.09496858035810096 0.03739669548090334
Ni 8.559634731701633 0.20133590357974598 6.702005339355058 0.8547951276486957 -0.33588428900469897 -0.324717473754602
Ni 8.663866479583115 2.8386863671274694 1.133948629582167 -0.31067230851544564 -1.5898596375032619 2.05010484398525
Ni 7.458355592149188 1.011744765839767 4.777160378668914 -2.0728231115183724 -1.1118493937283689 -1.2112675252173914
Ni 0.8733792272715464 7.673714711674459 2.498058863549138 0.3075229642531865 0.3911180126670232 -0.29305330988210176
Ni 7.763303452985789 4.125078118822034 3.1209647515796575 1.4895580749680217 -0.3263961470086056 3.018915541321168
Ni 7.496267930942209 3.895048808927283 12.499788712723538 0.6366537365841358 -0.03642944647162758 -0.1875555478579028
Ni 7.993885500133497 6.927718768043519 9.21181394709944 -0.2338279485618812 0.3725669891377132 -1.7698327450282165
Ni 6.624510670363767 0.8228073931325092 0.13379050514169183 1.4914187823258445 0.4717462651430521 -0.3553969051163299
Ni 2.0236979408076983 6.532738163839935 9.123116834405998 -0.5998617645667669 -0.5359521103969995 -0.822920390427286
Ni 0.4465147448387543 4.994950635980555 1.342507268642773 -0.4964034015701 -0.27433953552268237 -0.16638457020724248
Ni 6.776341250864691 2.075274669395145 6.996423102459495 -1.61342559774866 0.21356945542316122 -0.727659989860379
Ni 3.430414249584608 4.242856460034197 0.07032267660250469 -0.12104753683333992 0.5293451466034432 0.8222814712917065
Ni 6.2002712368192014 6.099981139839957 4.58645152837226 0.5242134818038326 -0.46811175371425834 0.7286678622996031
Ni 5.318175071230522 2.833276791061639 9.191456905911009 -0.49662194533880916 0.627740493254906 -0.5685686108804401
P 0.25007192513764875 5.487203935438222 12.338600562368036 -0.1461813557864902 0.4026177857765066 2.2844822372926976
P 3.8085862045384182 6.157357078950238 12.48164533892687 1.2142055247997927 0.599928099028328 0.18967953617944108
P 2.7599167779478004 8.244166740525955 1.48007450963746 -0.6826057778342179 1.7361798328604614 0.00523682291890711
P 6.93863759410604 8.164844414093327 6.034298737782364 -1.921656643812465 -1.1357400843030374 -0.1759660432480905
P 4.540419388720627 1.0721199841423246 12.309397912878994 -0.024458904373312714 -1.1862103251384475 0.09110446941700438
P 4.044867788278099 6.4071580722212715 8.064258919828077 -0.22684148994171902 -0.7160933680687023 0.5066189086505211
P 4.9630368555720885 1.2046591283883863 3.701685007563144 1.5245479607796453 -0.37545202399499206 -0.9509947522004204
P 0.1703554336147986 5.872652087344901 3.3506905090486043 0.785170425372022 -0.9808285477324011 1.0192197459160897
Ni 0.986400403601698 0.559728926144119 4.464586555994788 -0.5018425703078002 -1.3875151042616425 0.4245058440988496
Ni 2.1248851031646936 6.53916260174726 4.516202248027935 -0.7200194425959857 -0.16722609227193136 0.18085242480611435
Ni 5.939777949146693 5.2833526242941975 9.195793628030113 -0.22469436169172916 1.210108986132916 0.27960798301047335
Ni 8.6961517719157 2.3079045627587287 9.886004790937978 0.5793723863641634 0.4114968334336913 1.2737044514963742
Ni 2.54512851820837 5.300324376339926 6.766577736273515 -0.6253329122546779 -0.08759851314627494 0.3560821041088125
Ni 0.3517438652492872 8.780938042012808 8.91866838580345 0.8501622568623745 0.5889435749923664 -0.330917689028043
Ni 1.2800760489845422 0.7111979621140098 11.121420576010195 -0.75187926741906 2.0154368602894195 1.131278191876942
Ni 4.460390283505531 6.918612195269382 1.5958919927915902 0.6882208100281503 0.2110718858122881 -1.019558103092115
Ni 5.729556567693994 7.815432918826193 8.24434524747486 -1.0238281912223788 -0.7197265939459153 -2.090231536802807
Ni 5.396174452762627 2.9765263522420575 4.987762333312174 0.1450259020258083 -1.9416204885289012 -0.7782991521734853
Ni 0.7599493878248638 7.2816790190645015 6.698994280516405 0.319816694018875 0.47688692880372713 0.19201564051178546
Ni 5.355163160846467 4.957545728108281 6.886361335749277 -0.5550903738883473 -0.417844372918274 -0.09400441667261876
Ni 0.36741804394053196 7.236798566377638 11.004038212141545 1.9538411989648092 1.1722662042535295 0.19847785119736142
Ni 4.8584245345000445 0.4654781632484185 9.992526320849336 -1.6973060386133993 -1.038195258577328 0.06953857032077057
Ni 8.35823902376337 7.379422900173564 4.55212926334353 0.13058401556886542 1.142928631631677 0.23788514935039032
Ni 7.424167433863798 6.123232349529941 6.944701393608978 -0.621558018593278 3.0641579580987357 -1.033000601750266
Ni 2.723553915716348 5.167685558163003 2.3589919829583117 0.8930289743189137 -0.701754839958843 0.8340380976070024
Ni 2.149096807097522 5.162502513758222 11.343388077151564 0.3529286460814954 0.48997872899067874 -0.6059097705330597
Ni 1.236355438402246 3.9926658323061592 3.777053903447158 -0.21193551936416405 -0.805123471455181 -0.4510985069857134
Ni 1.64003485839008 1.0545592497778706 2.2256554472653605 0.08801477474808714 0.892247873178515 0.4233699307221934
Ni 1.3637115382435254 3.5519077100379612 8.140874645974499 -1.038739304006256 0.23698423480267572 -0.3394059290047123
Ni 3.8317921078961925 3.021615214057085 7.0435697778834845 -0.11654373542571542 0.14383291015897165 -0.09326033941774262
Ni 4.16560010235033 7.035221633110537 5.947193689602766 0.07044282730259481 1.0134831005426288 -0.08924556183139469
Ni 0.9922902267889503 -0.059538863409967724 0.16544060269669758 -1.4725607690790767 0.06876698226206866 0.35695833606617877
P 0.4393282544236622 5.581432045167818 8.000136867851783 -0.8980485390206921 -0.29196521902424555 -0.2822881009457977
P 8.684634902268012 1.9412766612519332 7.8237910309922265 1.161476055616561 0.3983890924071397 0.39799468518219844
P 1.7748755643123912 3.2607873417917403 10.282381736300264 -0.15729057832577428 -0.10257133240602334 0.05850031022873796
P 4.2227042034673525 6.425661178295686 3.6719513678606055 -0.038398397272540324 -0.2988658027988208 0.3093124520534415
P 6.98383519111837 3.6685080866126736 10.301015324611441 0.108606997077142 1.2435212430447744 -0.4268967129285293
P 6.279512011853851 7.830601478849978 10.266905093217453 -0.8579825242377417 0.6748436173902959 -0.3100650139487499
P 2.3722123706970826 8.501234869483415 5.750464533882095 0.3808446557654731 0.38415855063005455 0.3578749343431772
P 6.7118522175974995 4.140572884437729 1.3832485348189636 -0.6118418197467785 0.17547290566175586 -2.0054445249633974
Ni 5.256748746020701 2.7770335102565995 0.2024205371728446 0.3222078199588709 0.5167986773970003 0.09520229363546186
Ni 1.630402732162312 1.5470118970972606 6.719868720018671 0.5505616327800582 -1.3084439118600886 0.9073186514687084
Ni 7.131669753118405 0.4537392925729024 8.957473259341 0.252916589762216 1.4523979209779565 -0.727541976225276
Ni 2.744258909536151 1.740424629300186 9.037748831003318 0.021314702317376193 0.035764816304435176 0.8428816640405613
Ni 6.535320624775883 2.179325191947789 2.438511844999372 -0.009189894029384173 -0.6832079301945911 0.3020228603705637
Ni 3.9453932052786276 6.9925068231032945 10.436434139332748 1.087640143472017 0.03964692496766075 -0.5207383787710387
Ni 8.449730631027503 7.425028254175781 -0.12132220251760069 0.742977851164372 -1.0162143834308628 0.3493851517046112
Ni 7.653644006505592 4.184266311220699 7.888828270879156 1.3533919373256884 -2.182673494084312 1.4440672896250744
Ni 2.932370800870549 8.294647055873927 12.402006774295419 1.1260022881899836 0.0323745596759636 -0.5607187758187182
Ni 8.755358086847249 5.065112022040393 10.388849804739612 0.7030959273677697 -2.9302209668972377 -1.9830324758167845
Ni 8.914655150896321 2.617256199086106 5.5295046455690695 0.2526507376953391 1.811418538889803 0.24303789719592336
Ni 3.5569095291139043 2.874786452632105 11.447733996990216 0.22788792892836235 -0.6040878868329725 -1.4439788436763261
Ni 1.0281365968332123 3.260198359473015 12.505982088336594 0.33700631842428413 0.7513357362107641 -0.8568687223482726
Ni 3.204317529325653 8.818515113947479 7.934078423236849 -0.16111766538134834 -2.1687278305374975 -0.9503735736766535
Ni 5.901711568824159 8.196205457248837 3.3070052374054315 0.0718456211873924 0.1245411518088952 0.47298810796995316
Ni 3.4606335731684332 8.522374804092431 3.6989929053032475 -0.4005760727561295 -0.2873076656475762 -0.3790042601226247
Ni 3.502859074787812 4.523456697941341 9.129601982798485 0.11848928918786043 -0.2641489681429257 0.4089475846492764
Ni 7.087088322224125 6.3292311808207025 11.354488128542926 -0.025571677821517248 -1.190724153848401 0.31691777520452513
Ni 7.952430206161683 0.034241619757396785 2.4349308325015224 0.682819950727553 0.21902662188299055 -0.407165295937873
Ni 4.725957880385519 0.5652925437394619 1.5952957614597112 -0.770846295439866 -1.3198439261669141 -0.7549530212483773
Ni 6.304321759371846 5.923503914616993 0.1836709646512099 -0.8765602872399292 -1.471009879652189 0.5252714907547018
Ni 7.815161080832936 9.058810838720932 11.120173745747786 1.0037293635899747 0.37259552838280346 1.6350151509939777
Ni 0.11505271226643163 5.122451716084905 5.773288051796021 0.30424249372970186 -0.8752708790045443 -1.0239665165724559
Ni 7.443196093391844 6.351259119541026 2.266622338975955 -0.370895000751929 0.646559425733622 0.33941338520388
P 8.821568760738408 1.9865286258629151 3.372639614750883 -0.6323309408390658 0.33000777561926387 -1.1555666321106615
P 2.052657748356096 3.143597982898302 1.3686997654198063 -0.8666111464470173 0.8665769507749721 1.1108626043350676
P 4.709194537467955 1.2607483676639126 7.902621330657055 1.0736006346598155 -0.38830214048478284 -0.46080930651557406
P 8.656853059357065 1.6814086009639173 12.635737611531697 -0.7545799541796747 -1.996473174702723 -1.3336088411614901
P 6.748894674812095 7.925726653957325 0.9094349125706168 -1.7024523587010294 0.3466664672218675 2.2094011398871434
P 2.191249818585365 3.3115394951329713 5.619620752587318 -0.8893870066909522 1.1701347597328235 0.3451775413811668
P 6.965594861770772 4.09970657278464 5.630853098468731 2.2427961704078214 1.1024221868771982 0.6062576407907817
P 2.2235441721843916 8.43960013514543 9.948813865406837 1.2575391545904213 0.2428381224802915 0.3492375703831534
