# total energy = -340888.21480710665 ev
CRYSTAL
PRIMVEC
9.14584771604901 0.00000000000000 0.00000000000000
0.00000000000000 9.14584771604901 0.00000000000000
0.00000000000000 0.00000000000000 13.38587260889771
PRIMCOORD
 96 1
Ni 6.556209912619451 2.1003804574070584 11.358086226047604 1.9417570141067657 0.14477599079853132 1.674625052076116
Ni 5.103364602716364 0.47760621589129626 5.806576925930565 -1.442524884838619 -0.6211106466432141 0.6464648091372867
Ni 3.0114714917716956 1.9683784407134408 4.655459526519693 -0.44490189125669827 -1.9829861959598816 1.4823301897610148
Ni 3.5226420533336014 4.713394811972987 4.37576121885502 0.41860259124053706 -0.4575468337142185 0.2174623627196642
Ni 3.7173205628146757 2.922518979171257 2.6794497906680856 0.7915315917033593 0.0010906619610174765 -0.9818166226772832
Ni 5.18721373242239 4.790329680983359 2.0157786244533433 0.1546629108949401 0.6008220715975072 0.6136873575959495
Ni 5.239445667386518 2.9294881149517975 0.5174565025356135 0.39051945985107583 1.0446741814334526 0.48141618413264825
Ni 5.9966029427980425 8.395375820120986 12.43278458224603 -0.7980663074980836 -0.7471720917513777 0.559366889776514
Ni 2.0169794742276017 6.931162221798987 0.054189146325066495 0.6339700191043856 0.20891113071554343 -1.0207143281837452
Ni 0.41902889194483445 0.5521805416668168 0.3368845482092704 0.7746080764751433 -0.8963750079730112 0.46920652944033386
Ni 8.301594300050567 -0.05056739072258104 6.802311864147329 0.5240784988878652 -0.43433748547729073 0.3787296663049994
Ni 9.16395625903631 2.7320109761415297 1.3104142833268575 -0.38904750329123966 0.4420430816516645 0.504579509622989
Ni 7.173929597335285 1.112107616150061 4.8725782873802075 -0.09636083271993727 -0.5839749181331814 -0.7604963196641096
Ni 0.9910348871962668 7.681478403294705 2.1798359219832015 -0.04091550726743921 0.2623643654386772 0.7439682401020994
Ni 8.036547640050495 4.2693547709217965 3.9390341974496565 1.2561255620723464 -0.47576155695003214 -0.13304353285295153
Ni 7.957033642050474 4.081764293238515 12.57249289002716 -0.6059876749588466 0.34627771642388105 -0.3192762481343727
Ni 8.41996900399746 7.806950284886872 9.147316304129335 -0.3476486286294787 -0.9955175172031434 -1.0040774909580126
Ni 6.899078588835555 1.092279418811201 0.44766819874691266 0.11365638657559135 -0.37126703937936706 0.08406658873361651
Ni 2.19597285527872 6.6775570169976755 8.874177398278052 -0.11581277079696185 -0.9167114055375181 0.7494038092953739
Ni 0.2693836208755736 5.4996541740691285 1.0573806939931103 -0.23074031077549295 -1.645556931065566 0.7455381556923805
Ni 6.459044428981054 2.260862643156585 7.118325588404903 0.6036114614171862 -0.07300056072744203 0.44495768419529824
Ni 3.5833064596752324 4.652382863427077 -0.06615831692348245 0.510663768143856 -0.03205702843554479 -0.11478227264991846
Ni 6.092241069907109 5.4877645723437976 4.344331513986482 -0.9318698584455112 0.8751304967719379 0.04512877401783841
Ni 5.354701637342381 2.9792872544859725 9.643236165016633 -0.39821862826754645 -0.14967394232078093 -2.5063249884682444
P 0.30726755031147074 5.922951433033358 12.273131924863035 0.8436041440288825 0.0629683733024206 0.10856148855118722
P 4.311581148741683 6.501170202478649 12.191276589907872 0.27301027518829757 -0.003461990406671457 1.7782626209631243
P 2.5945946177391463 8.79960398708728 1.0084485808001362 -0.8849742223352373 0.6417224093562948 0.663728995534373
P 6.675526638856889 7.987306397212663 5.914440307367517 0.29316849530372735 -0.4062106453340875 -2.0615717069742687
P 4.9006743308419125 1.336885109691185 12.647387320464516 -0.010284155534827451 -0.9307491145775066 -0.02971372501434883
P 4.698423059646551 6.485530803286098 8.072845679533183 -1.0010201921889277 -0.2944789865850348 0.02419948006433897
P 5.14290210137683 1.2240436434703124 3.656645181456067 -0.5324464112365863 -0.16729011274064737 0.634506608334146
P 0.6363927615178404 5.613309620715813 3.4100511833337084 -0.5809230186807349 1.4255625459526673 -0.2476921081384831
Ni 0.6220895706422672 -0.07485601787793617 4.635393537146326 0.22937736898969527 0.3929465812353297 0.15362469943841287
Ni 2.1477285098163192 6.813839290312413 4.545829167349408 -0.24852283156989455 -1.169659619868618 -0.9994374210828401
Ni 6.604993863083232 6.023784401511645 9.314934080083555 -0.6030157368147163 -0.47521185509414937 -0.3446268110840194
Ni 8.945553421189459 2.6778949965963115 9.984602178491604 -0.10043037480362058 -0.8952102982409486 0.2273199722400343
Ni 3.0287662893583116 5.606706318834513 6.802539595749607 -0.26714327488455925 -0.5402605079643664 0.14432476219372564
Ni 1.0085400392749464 0.2595756140369236 9.118416340674047 -1.4628240014072873 0.12561741559220946 -1.0274699017400242
Ni 1.4024516902826452 1.3279313250072624 11.476363984011197 -0.4120833020647806 0.014189918347136853 -0.919504909122255
Ni 4.4770935506057725 7.404039119957846 1.3600177017249386 0.5663453779768763 -0.7262505111073622 -0.9257007535203219
Ni 6.120638926335689 8.216784856359032 8.008714082411496 -1.3101508672488662 -1.1496731494443617 -1.1642276502197693
Ni 5.042919696714278 2.9367682095466927 5.192848489055449 0.2471015257423357 0.3303690156134245 -0.5518698100685204
Ni 1.3570242658443996 7.485528621013769 6.751432600025646 -1.4634598352190733 0.8272676116523882 -0.042527588949565466
Ni 5.330977308976605 4.642633390012305 7.289289829952431 0.16473160798485179 -0.7072680564675884 0.20942843667159414
Ni 0.9651155554350451 7.424791047892289 10.7394848816346 0.1388897072210834 1.0095901932461258 1.1945365856159558
Ni 4.981697393676304 0.6502304287566296 10.383460818401788 -2.2604542498092166 -0.47089060201097616 0.38910612444331694
Ni 8.620372814001655 6.975117164792788 4.9889015777371055 0.2618632574325426 -0.046102965005649636 -0.9306791805715197
Ni 7.477114441331226 6.025769050415028 6.724272176761249 -0.8441029380421721 0.4967939521402992 0.49406704012743946
Ni 2.6968177550345502 5.539932486375559 1.8941013549810535 -0.7163404510825018 0.1473589210343591 1.8314176077195492
Ni 2.5308297691014476 5.644981690542599 11.338557097921374 -1.0223986578647037 -0.3857384935226647 -0.30532338549870647
Ni 1.47824332835789 3.580443809413673 3.6961067695824408 -1.2248689180509098 -0.005154290507429833 -0.3082945523118884
Ni 1.734098411639533 1.17909180310108 2.802211757651625 -1.0703217067982278 0.6380462460562882 -1.7394744444513335
Ni 1.4446597764075702 3.752650971633871 8.330215315157684 0.26802542037919647 0.06934779446620315 -0.5262469672940937
Ni 3.699970890143174 2.7276118235031572 7.402280373487245 0.8560840216634482 1.0139366431402796 -1.4873980912022253
Ni 4.5537357524967526 7.133431784689311 5.577210046123463 -0.2204165602519817 0.20107697938310531 0.3325068878920338
Ni 8.57129619641848 7.580416788629392 0.2316643166943349 0.2990969449730204 0.36338095176307095 -0.8283022235644897
P 0.3790908051646994 5.952090103107899 7.869179545732506 -0.6553142891081165 -0.5276520751717364 1.061384809319914
P 8.937806888373032 1.7139684013337995 7.873609794252315 -0.28011629010545946 0.7302496049644263 1.1174849947475918
P 1.9694759424111639 3.393786208173456 10.511095692923217 0.2940285293111775 0.4033474648536795 -0.657936557222312
P 4.18675862232067 6.442892862329565 3.352358262838662 0.7791998096108839 0.8167356017728129 0.16317377657942864
P 7.148129161591316 3.935266108287475 10.201024940358813 0.3399391758003629 1.4221069833038993 -0.1867955297634267
P 6.466589753152898 8.27669015735974 10.254662592080775 0.9216530658135095 -2.7498750494138964 0.7842934220837073
P 2.6859524882270938 8.642533202448176 5.453806040646756 0.5329614031997919 1.9192436634955978 0.8333932649341518
P 7.256306245596867 3.9729652916042553 1.324924170355502 -0.6413724822160438 0.8739562739581787 0.24543467956287404
Ni 2.526778158667354 1.8056280847886208 0.04463996697012946 1.470815504253196 -0.40993308849099724 1.1982829400322654
Ni 1.8798009078597246 1.0375781050271973 6.921620359122034 -0.5360860648717025 0.3277439192857517 -0.520355284400007
Ni 6.98085161116339 0.7903384100726788 9.158453202606978 1.981132944801227 3.0950237944396566 -0.8376512688795574
Ni 2.9352499988648426 1.8064146276719888 9.254201994470565 -0.30195472613678964 -0.6917581337574473 1.520880282120071
Ni 6.712896571664352 2.4626566219778954 2.8094936814160163 0.10870932698296118 0.03563291871226121 -0.8009410579427173
Ni 4.325601732930093 7.214052430234537 10.16385255785694 0.047167144604105864 0.6837910563915708 -0.17922285962249135
Ni 7.639206296237413 6.6969827970473705 11.395727790525251 -0.6286678901651819 -0.5136750441663541 0.5185580832902682
Ni 8.080822687706132 4.208992177547039 8.01986469966036 -0.27297685084720086 -1.4908312852534906 0.4313076975120314
Ni 3.4363418365026597 8.932273650647012 12.227873698603188 0.005693193730035357 -1.306139432096628 0.7278402241919852
Ni 0.07451762152113829 5.18255849605455 10.160693582136995 0.08606562144151629 -0.2901003979013649 -0.4519161177910024
Ni 9.005074596595962 2.4696623411483603 5.8319566526904065 -0.018808390955754702 0.3102244223447496 0.46185497417126914
Ni 3.9493232758658086 2.9895397495122005 11.554871938788304 -0.6899390782708376 0.12380967295950936 -0.012858601130223014
Ni 1.1667449090016975 3.732328898531036 12.50468008929436 0.4622141572829008 0.09463150873365639 0.26178278190359433
Ni 3.3725769878649614 8.351356856194819 7.774849274813226 1.4897334242036215 0.7053145322856434 -0.1862838802343308
Ni 5.891050717019546 8.105982914126429 3.712344307200251 0.22574799976722412 0.3225286936333994 -0.5400265375766893
Ni 3.2703538505695575 8.646584812882269 3.2815730616745293 0.7062532420498289 -0.7683122161641026 0.7044637542495739
Ni 3.6651435029354342 4.606178041952943 9.54197151253724 0.11391966753930702 0.2977340031872227 -0.9516313573431547
Ni 5.746445722497077 4.828888573963356 11.761898256953511 -0.41181179357094877 -0.03497343075139138 -0.2708775451160109
Ni 8.14102065582623 9.430832088532586 2.4433899796743708 0.2299149866607202 -0.49385543833726564 0.3632634523486002
Ni 4.515908527315238 0.6695867003654685 1.6371588304339166 0.5919677065306708 0.9928152877806322 -1.1146531817257512
Ni 6.75406203117644 5.980158709027161 0.5087048410810218 -0.7297068450870787 -0.7229911236298 -1.3973503451845097
Ni 8.19825536936248 -0.07173819847165512 11.277436313790437 1.0393831082378422 1.381005585277899 0.8413238326351382
Ni 0.5840501617991927 4.717592755966777 6.030228565646776 -0.49506925613970865 1.5376821841687582 -0.5019274167121227
Ni 7.686691536358889 6.515419432854085 2.6358122085818763 0.5758443186062471 -0.3246943338261505 0.880942989688657
P 8.928743353519337 1.8947086392537935 3.7692076993287684 0.2380620412478868 -0.09504931299736534 -1.1573309230999358
P 2.1278362915450924 3.4846410570499473 1.3052404774068425 -0.27272154030328516 0.5227579803042288 0.12673687390863336
P 4.839653236448521 0.9538112879484997 8.15122010493707 0.30421498292587607 1.1777943331606104 -0.44272853775446336
P 8.478932282707621 1.9318956551116366 12.536712505511899 0.9509950093107364 -0.12194176651283517 -0.9874280553267898
P 6.787938250246152 7.984489476188507 1.2972771880051148 -1.312297481278224 1.3827259104031153 0.7480038436240537
P 2.3552203516183083 3.6282400083495028 5.928629175149577 0.6466987795249637 -0.8832700951599369 0.3767689430342028
P 6.779743570903155 3.9976133505656146 5.753355410268991 1.8005767110792923 0.20670306732063112 0.8771002189037992
P 2.6491678896584157 8.939727516344046 10.223526468916377 0.8271423989284336 -0.8681121564725759 0.2077091399876423
