# total energy = -340894.7453826328 ev
CRYSTAL
PRIMVEC
9.05702946727636 0.00000000000000 0.00000000000000
0.00000000000000 9.05702946727636 0.00000000000000
0.00000000000000 0.00000000000000 13.25587812393265
PRIMCOORD
 96 1
Ni 6.328064872633679 2.0184042691129247 11.414901916481844 0.2535228558876473 0.09284639180877557 0.12220041949086052
Ni 4.700235935917271 0.37242866845092604 6.122545480412595 0.26620507934100607 -0.43194275999286896 -0.22715670718929262
Ni 2.8096897497150604 1.483142893329098 4.976535106571376 -0.7205832855192558 -0.2870297293958412 0.17413747467978397
Ni 3.429815490227469 4.25167750181399 4.868327154473375 0.32351316903385574 1.1098724725076563 0.3113266542699929
Ni 4.903629643356948 4.613859047292245 2.307040019403827 0.6111157402140314 -0.41908338753169755 0.6978940714518561
Ni 7.428512049074676 6.056625703912697 2.482706537283196 -0.4686064339624898 0.5630507663860045 1.3381177847754373
Ni 5.064890050399892 4.485837937853772 11.428701206353825 0.4609286057022578 -0.09008451279292227 -0.34854234408834167
Ni 5.58138526143264 8.12090382653152 12.28542825230776 0.04526941336076075 -0.6926824453439296 0.5213983809525408
Ni 1.9558654816581909 6.26260066470858 0.2814571488518551 0.30348041875269666 0.38012448976999696 0.5784699291545521
Ni 2.5231615701469265 1.3868485575986518 0.34866302351519507 1.2365532963673738 0.026263304571903155 1.5077164910446033
Ni 0.6158924850082317 -0.07698474922016496 4.719967579993866 1.079765368709631 1.227564976825834 1.043127405771623
Ni 8.799438349128733 2.2868546181583005 1.353835685727181 -0.7350663096267792 0.6056536886581956 1.0042654385991028
Ni 7.0143159842115494 1.0218774470898295 4.839760378295103 -1.7285264300802616 -0.8769377251840058 -0.5789586958655125
Ni 0.8966803193933374 7.61211614745011 2.7419649072716834 -1.549110737720674 -1.0467197511085715 -1.0324077053612735
Ni 7.637484886575485 3.5323772902473687 3.694506266402104 0.7603996461852452 0.3498530924799652 0.9321398242774461
Ni 7.674582478670284 3.9708643077467887 12.684403979398596 0.5942143364730025 -0.6682273976253589 -0.2292012484231472
Ni 8.042361268268312 8.954123352885347 6.742390453016083 -0.153125134094175 0.536400767898644 0.9070132044131476
Ni 6.957673322844148 0.5888192129648296 0.4241270975125288 -0.7816289878776668 0.4863930685219494 -0.42756082887508945
Ni 1.7591649188860092 6.3566669712263 9.260184827587965 0.45557016960382185 0.6179916413982582 -0.847459770329547
Ni 0.026834166469353497 4.982724680408677 1.2505357378176993 0.6580003205807119 -1.0193866105112575 0.12040476104301844
Ni 6.341387762763428 2.070726727494677 6.987318791214435 1.0219281459861884 -0.1906969217003619 1.3685290500774432
Ni 3.41152934803035 4.0855444129968745 0.38103918622546845 -0.009199150000764801 0.32174065051446527 -0.12043612850158612
Ni 5.966626003559665 5.5768476897433095 4.558020650128462 0.41033957990079645 0.05859466971475715 0.48593412660765983
Ni 5.275321069621223 3.1070954214965374 9.153952213584663 0.39671273314598127 -0.8104610816180107 0.8410767496213386
P 0.2757965055268429 5.67076908379191 12.384701444981562 -0.5039439329215192 -0.379402781112624 -0.7293474048651309
P 4.196963987691753 6.061960294182189 12.593587335000896 -1.302586424638047 0.8737690976480371 -0.21169666388048058
P 2.3557514401956876 8.25080879806856 1.2990551495879754 0.317175399741286 1.2282206081319622 0.4139056999855001
P 6.408436950819532 7.96639996336131 5.682755156394025 -0.21590530264518942 -0.6112134421341602 -0.054416884187983704
P 4.794800379047594 1.1534398549924314 12.87831044862555 -0.0016593899802939164 -1.380057619542333 0.44303372769970795
P 4.034136714576444 6.076188887243939 7.970030020712773 -0.1462654308598642 0.19841537339054213 0.9495719037109646
P 4.8070635967469 1.0709212608577348 3.910523661308023 -0.12463602551554662 -0.5564283759734804 -0.18069378774106298
P 0.3532540316775129 5.583278180560523 3.405063534798788 -0.19025006397093044 -0.17030961629326152 0.9159642429588483
Ni 1.561649223475026 1.1299730920242612 2.7391680966176613 0.04570135869185678 0.5178754554009468 -0.5505305224318067
Ni 1.8715535957181302 6.442663464619884 4.760132787919356 0.16775779640568528 0.20238849910567727 0.12389889023920597
Ni 6.011440184635121 5.652229344773832 9.212610063975768 0.12282391200747235 0.5410135840803071 0.224308181996904
Ni 8.65748752859607 2.354927250527566 10.527738723497983 0.6387890377595837 0.372446661509765 -1.1632999961991772
Ni 2.234523102747228 5.224737560868915 6.940976689292692 0.4955521093133981 0.4302257773017623 0.9072510314555665
Ni 0.47140026204837004 0.10847513446294044 9.271134776035868 0.5789036742578612 1.040262682629318 -0.02226163961167779
Ni 1.6556702448461476 0.8950745080948979 11.581687111410002 -1.6916632385053252 0.9999285017866456 -1.2274721600017118
Ni 4.0181420007972894 6.779168331975885 1.5847537052703955 0.7075117970472783 0.6543161868609053 -0.44114808064122085
Ni 5.580542957705878 7.934953957562203 8.06276856673218 0.07296430817286789 -0.31462512251560654 -0.7433462902473843
Ni 5.289404750213853 2.91685252062953 5.098966217513534 0.1565596136970207 -0.25153924979871517 -1.1034043482848095
Ni 0.7023880207173491 7.39277301137788 6.902269663087726 1.0601985023212968 0.37278758978895155 -0.3222952374663546
Ni 5.350648382475825 4.504024452728371 7.18395686048431 -1.07871610150951 0.00919940711108093 -0.94316008664735
Ni 8.127678484462896 7.440222787985463 8.998686654248637 -0.8278155137360582 -0.7994922413113327 0.2032549608710306
Ni 4.547534421581744 0.33987679937184423 10.388975977285964 0.13266403802634572 -0.6064365895708073 0.28441208926733597
Ni 8.337366827279984 7.202294627748553 4.730572455624676 -1.3760325575433399 -1.064597916940573 -0.12839266434450147
Ni 7.2253900525146015 6.283404661056664 6.94348186360261 -0.17669520810463119 -0.64369650236353 -0.6541637204434412
Ni 2.4507325066747314 5.135897160268844 2.570023545551639 -0.9005995875773201 0.14446257332317056 -0.3529674697392308
Ni 2.4223568338151105 5.018237292372472 11.452124495581257 -0.38107991170473077 0.7675077179849362 0.3442614573248007
Ni 1.3035057737958329 3.5176867886902974 3.959238704911612 -1.3054403491470743 -0.7649011336000247 -0.8726843492242907
Ni 3.5644301170109176 2.655077202193009 3.085663773016576 0.16116625923109662 0.5727553952682781 -1.7157336491909678
Ni 1.279305391452741 3.2998108913679105 8.346629451165569 -1.0751566662930256 0.3608484151492044 0.08795203983095175
Ni 3.643017960420726 2.5436213993808505 7.023348559552406 0.2693042870916201 0.8042390119676989 0.5076820598077127
Ni 4.06465890338491 6.862619800130545 5.8374646141298 0.7065517471268542 0.7731320061502491 0.9476538607526455
Ni 0.6976430430565908 7.486422694546881 11.0965880925151 0.09529536756990038 -0.6841522963857314 1.2679125274049454
P 0.03392310331813269 5.730636047597239 8.022934846079803 0.4782287875436022 -1.4795343721834326 0.37086697572747096
P 8.47130217686443 1.737455219605923 8.083169525275524 0.01175868319782491 0.08977058109692927 -0.03861051328334641
P 1.8427612995097886 3.113245144404831 10.598180674737364 -0.1412227262296342 -0.5189200946153772 -0.86286196381723
P 3.9959703930218824 6.1438992384404045 3.79425676452107 -0.4524840744793304 -0.20205502702565845 -0.8550486384203984
P 7.041776897109848 4.010108415790432 10.44327196235655 -0.9121389556754871 -0.14020534070871338 -0.020791482824054512
P 6.245799875319943 7.754438306184896 10.17514585496083 -0.08630910491089006 -0.6242805597307636 0.580331150733007
P 2.5610108956752873 8.590954591211208 6.019454749880405 -1.1553848551171586 -0.3378288143255795 -0.7930801671374019
P 6.969193864139213 4.064504933886469 1.7353929340297545 -0.1609022069364326 -0.22657975163990013 -1.4153627226015302
Ni 5.559213653657232 3.0722258586144626 0.3520920148157544 -0.06362194772601946 0.049331499245276335 -0.38573669375045183
Ni 1.4133494253890284 1.1016245902526005 7.192572812476444 -0.13212873434816602 -0.02700095406887608 -1.1009093497770974
Ni 6.836354415102488 0.650556453324742 9.203781271794613 -0.0895612932996006 1.1907706908156201 -0.8217178854787526
Ni 2.7513534238648156 1.508348605926712 9.225892197473575 0.07628745900882991 0.4779377386657446 0.3631672930903681
Ni 6.144143778232045 2.0412460970580137 2.465367760352951 0.34001605178488536 -0.20288009403011512 0.3865293648550762
Ni 4.079023351886461 6.73441755010567 10.216901477234915 -0.22043095842968488 0.932293319136175 0.7022582619578228
Ni 8.019229615384983 7.236475856402305 0.21507908666836484 0.7879824408995203 0.08906918415453047 -0.5660070208008511
Ni 7.515441416488223 3.9810081805852104 8.25549581074167 1.6219824861797356 -0.47208513653970957 -0.43268375192395153
Ni 3.014288042054299 8.198486339686808 12.454215050715643 1.054268767100423 -0.6131618241097827 -0.5207026404370968
Ni 0.07425767769190711 4.887471903050033 10.183629574324893 0.05662803290668957 -0.46609060951917153 0.18647774141269174
Ni 8.618986096956668 2.5036346149329645 5.900522369364571 0.8257025811581133 0.19083833237423262 0.1575787989901544
Ni 3.7552617247837263 2.4587570346522685 11.604990847850411 -0.6789419558293855 0.718020409888086 -0.7483517138817757
Ni 1.1245751025495296 3.255694101550096 12.74549998208265 -0.675049819863831 0.34425322979468453 -0.7727108594524306
Ni 3.166138195633744 8.239559967653095 8.133196932427584 -0.009655777922209178 -0.18615969595164067 -0.5572680982659565
Ni 5.520694107959189 7.804315366650242 3.46851979932364 0.14216863508267127 0.49261153862783547 1.2949672175298923
Ni 2.871703229469233 8.333662502288096 3.6256683150552966 2.3589007614135893 0.2326493548727477 0.5517322560493917
Ni 3.3166750799617866 4.439049324386551 9.360081143878984 0.393494997539632 -0.35733217446582977 -0.8443533634900814
Ni 7.282204797439083 6.063744528958233 11.413124927329255 -0.0935596158257163 0.7053389577656756 -0.5954921747441615
Ni 0.3843259821657035 9.000957251499166 0.7268863793250695 0.5338314645095709 0.6345246060562749 -0.8557148112494876
Ni 4.421288489889994 0.28720745676713544 1.792565431612377 0.02680709289051512 0.13442704346403947 -0.751419554173822
Ni 6.089711032018728 5.743814025257867 0.3151492979223273 -0.3568516352849854 -0.05239188333815492 0.4881334482518239
Ni 7.8793890826838835 -0.1449659055932986 11.134327827988688 0.18996364307876315 0.3177515839597302 1.7034646020156277
Ni 9.246774084273813 4.963641519631395 5.714237390310411 -1.3756124392867857 -0.2603149391088162 0.11895748707353063
Ni 7.781872047995234 8.980914045613964 2.584962209712079 0.4773019048539586 -0.6791409592140691 0.588892667149773
P 8.656608996752029 1.5286001234862754 3.6227383660702706 1.0183458279515687 1.520703904443207 0.014338785220175307
P 1.8054372816819884 3.209485137959357 1.590081955619363 0.43003757255035613 -0.5726389242950719 0.5920777497459738
P 4.781296348331445 1.1282522564534576 8.327116987198519 0.24755558256061883 -0.21855868110763652 -0.4314678772389795
P 8.488329391986067 1.692695380706387 12.53140448879844 -0.0374728001344774 -1.1484140802262803 0.2491039008843452
P 6.39419930072846 7.731913474266007 1.5044232894194154 -1.5828495247340157 -0.15594974802716366 -1.1860126073053445
P 1.833169905459888 3.287556730697924 6.029091429076907 -0.7999972059722094 -0.8005967872294212 0.959742159375747
P 7.006898277198454 4.122334066094793 5.848055904216631 0.6552104165404007 -0.044306792337175306 0.1757788669379489
P 2.4119684211850485 8.518453071504453 10.146022071479377 0.13555550064152783 -0.8139053314128691 0.7258288501889112
