# total energy = -340857.6393110108 ev
CRYSTAL
PRIMVEC
9.43245386829997 0.00000000000000 0.00000000000000

0.00000000000000 9.43245386829997 0.00000000000000

0.00000000000000 0.00000000000000 13.80534968330550

PRIMCOORD
 96 1
Ni 2.0655847080302903 6.406890324529705 3.061943266919525 0.578251642496159 -0.13487467252441934 -0.7493107353609353
Ni 1.900658257510809 4.00293520989459 0.38329906940804925 -0.6515249972690135 1.8695069583921031 3.6167402208532486
Ni 2.1672476925140747 0.5588766464889602 3.8137277374175884 2.551126203943335 -0.05813907023457729 -0.36971383595963425
Ni 6.274637893146596 8.725689248413325 2.8146205615605884 -0.4049150664511155 0.18195439962104146 0.8966282616343978
Ni 6.989080223240795 0.751291153176807 10.672846672245317 -2.2659324993149683 -1.680489224166377 0.5491346705255445
Ni 3.9954835715811563 4.194734720610239 12.795860873783635 0.37074356277572923 1.6147420025672385 -0.8889542900289078
Ni 0.6008255972121679 7.534342066259362 12.837911695005305 1.5844556928788713 1.520584605256523 1.9600190456407474
Ni 1.0758467882957383 6.44491254483534 5.269860869453894 -0.10496245834601924 -0.1155209505881559 0.5707771884959847
Ni 6.898038181467044 3.4848011033183464 10.600644069969567 1.8577796426528457 -1.2037023112756238 0.5293816562683334
Ni 2.2063546449792604 3.713858805601165 8.74135372404259 2.941307563728702 -0.6942014530916173 -1.3683945813821077
Ni 3.4057288451138965 7.757466755252118 4.705621873115329 -1.3896601756291036 0.9067828335698964 -1.6115170678720376
Ni 1.1795188853880814 1.5617407685994291 6.66432556335172 1.6888005722455495 0.26661362763333435 0.9292609600677545
Ni 5.345352568286471 3.299274174220967 9.1701483467129 -2.2340557052110297 0.1669270729742738 -0.26369696820717164
Ni 5.222919321060686 7.1881238582915294 6.148737275991673 1.359576983090478 -0.039134246997300344 0.017970725545807763
Ni 2.161107165245663 7.003426985107545 9.523413540736385 -0.8372200948794096 1.8156161219109184 0.12878810001070723
Ni 4.877436844470634 6.685619327266374 11.32924922908607 -0.5812747455931989 0.0974988029791224 0.689070045402323
Ni 4.207940155596071 5.5481503198546065 1.0381377254483388 -1.3776310123787114 0.584905914587883 -0.13166310756565713
Ni 0.8338458732360922 5.892265090678268 0.9484209433999519 -0.4363159493599002 0.7376759793354843 0.8859962358418483
Ni 1.2161828323808879 5.263903331784571 12.30378297692515 0.6166333275981509 0.30420855516797285 0.048577137577755045
Ni 5.496611393595616 4.2711281620032775 5.439417711426621 3.8914721067183433 -1.2362061974406002 -0.6258363342536577
Ni 6.856752332229196 7.338222491812633 10.008353899985028 -1.4320450683532175 -0.4991645092550049 0.40768594432803335
Ni 4.79285603338638 2.009338987444207 12.383702269459404 0.8148219296898678 -1.7356584131393527 -0.41984186296427695
Ni 1.0843265640473547 8.320706854758539 1.3640129608204974 0.6950740855045577 0.5527123605744738 0.4520549573617118
Ni 7.449317929857726 6.839453212397756 7.6151414067108885 -0.996264165561181 -0.1341791891192915 -1.0036686855553683
P 7.701287061840964 6.00472823448975 1.4214811273881263 0.7573837421770568 1.1620380987676182 0.6498488951181711
P 3.4174722497977257 2.3944472014453155 10.843632562917083 -0.044685258722516594 0.5741913563838563 -1.500611761679022
P 4.697531657695795 4.801637647651959 2.9167938417820394 -0.853174304215821 -1.2712863289731848 2.5220334003424374
P 1.9719959037949861 3.7581347426179477 6.340907482132282 -0.6718207714035721 0.30506190430720365 -0.017851169248807967
P 5.5028651103067645 8.64362690242994 0.7011972788034091 -1.1092716056988638 -0.2720576814670411 0.41115230561007904
P 7.91814860166901 0.4280626642739516 1.8763263003040573 1.6731651797011378 2.0497806278766117 -0.18583393718110577
P 7.516392107132193 2.7392977036467583 5.4696789089420115 -0.17408502417529373 2.1991663495330127 -0.4292896386407381
P 6.665905499323238 5.399702365706731 11.45356613728805 0.296880911158308 1.9708778427321219 -0.25607956087122996
Ni 3.1709173461586793 2.838442223029673 4.755445979316875 1.3065556936984404 -1.0259053854663813 2.5174156990647676
Ni 4.693258756232522 0.17693396390302707 4.730099090106926 -0.09765126939658667 1.5792453523225252 -0.0780319525037624
Ni 8.259028040921141 2.6230804433178747 0.9703872412535273 0.17940026574062007 -0.408540836129161 0.9725627081791831
Ni 1.0319292845142853 9.090574281978988 11.157938893996297 -0.44310340459537884 0.5233115388148536 -0.9612650237781767
Ni 1.3016691590070282 3.115114950889978 10.621062502193732 -0.3984646828400815 -2.2977229043526877 1.610974565105006
Ni 3.0926185491462563 6.716199341712136 6.645977554684262 -1.1854323093218422 -0.9110220684622244 2.7857774197374603
Ni 3.9850607103959104 2.8830011336532952 1.0230703241295043 3.569571019366614 3.2199241293601837 0.46603018859488127
Ni 6.790432751239636 8.923949989818471 5.554264436253047 0.5669483016681978 0.47623541126265717 0.5877007037242007
Ni 8.974432481278594 1.6064883282942772 11.3329769347335 0.2998016843495288 0.5820849001993201 -0.2657199121744714
Ni 0.5576900438309476 1.4115289456355895 2.476803839979813 -2.43084742695522 0.09464025048440475 -0.6677540575333661
Ni 4.487697295770923 7.500621044777684 8.617326392164943 0.9818675305198767 0.320612450447293 0.32221501904772254
Ni 8.808798596742015 6.590719411986048 11.270369967465669 -0.7538754719134824 -0.14781246363200995 -2.8155798478108736
Ni 3.899829060015925 1.4283753076960868 8.818125406823437 -0.6252822615224005 -0.2567531898994868 0.41259957957956683
Ni 3.1990354902249405 9.097365648543128 6.906374583924529 -0.630737885320333 -1.984848445979601 0.09553216617105482
Ni 2.415830573668802 1.617788407660725 1.0732943663620482 -3.478838331466731 -4.125973170087849 0.00746622647005811
Ni 2.2507154740780946 3.2638270137375693 2.8675922775155414 -0.8369100198381587 1.1165149175248383 -2.0184409372230654
Ni 7.272883885993449 4.010613227093495 7.905702479194863 0.7337072244957235 1.0383256135076053 0.30471197716695264
Ni 8.205876165103168 1.0623017849816991 6.6446107921632285 -0.6395783664300985 3.3785959043042006 0.20218358218372276
Ni 3.297161304623234 8.803478692933437 11.347583089073186 1.6203063840288932 0.038783034305468686 0.49640648689389344
Ni 9.690336841674794 0.7726943335527723 13.476740647615985 -0.5813181972366247 0.5516286405919919 0.558061283591213
Ni 7.466032237568364 3.965997721748505 12.902644737305854 0.3184455247029612 -1.1314224307642902 -0.12022221271856715
Ni 5.891086033983104 8.758910349856254 12.380278288816651 -0.6956901218220019 0.3575664019638229 -1.4281202793775145
Ni 8.835454710506273 5.644097237480238 9.107292362671052 1.173283332664134 -0.15472538870175934 -0.6808427723965241
Ni 0.29872391779593166 3.5467628907625826 7.727074446632225 -1.9989365486415507 0.1818297011177191 -0.9038911138443982
P 2.18343378282528 9.361512078074016 13.464122854487021 0.7195203914723801 -0.9084525079628354 -0.8203662565468645
P 0.23081119539986575 3.296057707556561 12.522831902734064 -0.9286053287616266 -0.09381004127362554 1.4227042505682657
P 7.652596736557489 1.7606617817538666 9.081558742865088 0.08237634551538715 2.6643858693011406 -2.40752597862046
P 5.935843026131513 2.903129989553128 0.13151670000532606 0.41749778821213257 -1.0432153374997388 -1.1913766998307351
P 3.9370212244081655 1.469283858791482 6.633345612874958 1.5649466763116662 2.755450743729461 -1.8029259280377596
P 8.31048207509808 8.706418745787571 11.749829127949837 0.08746481578188808 0.1993491980587212 0.0696241880560414
P 5.138753537933129 9.305709682805313 9.8185578424058 -0.40045368824565225 -1.1432585041672698 0.6153696303943789
P 9.443206558368509 3.691069997797043 2.6213599637882923 0.768582953326986 -0.2027785354552443 -0.7621852773307584
Ni 4.090015621172592 3.9681766185211678 7.103542103961919 -1.3950142408521653 -0.40563960332196586 0.42135932805006787
Ni 8.582759279598815 4.94371869564595 5.721502781140404 -0.6506518506354407 -0.7880600882149912 1.2560679693615333
Ni 0.4337277958828736 2.733025122028488 4.565456556439639 -0.4886006176962295 0.5533332819879244 0.8624125349846373
Ni 6.31532006535652 4.424518721817279 1.4685028516366057 0.7445248839365177 1.3779243752494141 -0.7628591634693314
Ni 0.3965205395649356 0.17841391586679636 5.085545067393787 -1.5942888769192092 0.7826893108213812 -1.506865713008534
Ni 8.684808994678614 8.332280475278266 9.245014673874362 2.3420862609594115 0.420017983530825 0.39643993910056885
Ni 6.153779865665549 6.737290307875223 -0.2123396215907551 -0.8271724808354206 -1.7157758152828126 0.632657213830233
Ni 6.068340701307216 3.1360361328889605 3.241551331407183 -0.41965494376445145 -0.6322203834031306 2.05598701379764
Ni 5.875286674267912 1.3431342248625406 1.6775014981759453 0.07196106371933413 -0.02215956681617474 -0.5560344829691715
Ni -0.2208033621713173 8.668679499088775 6.890636535157485 1.1949402488122776 -3.9565485275027017 2.2309693529762225
Ni 6.018367562339402 2.321572065230645 7.049273425642286 -0.8658585845517087 -1.6736498326470404 -0.49623576564398414
Ni 7.227815622877516 1.2952739554924608 12.935874327956986 -0.6681952588358427 0.6509477846093048 1.0956028499625194
Ni 6.896396934547377 -0.06924364159356657 8.15200364983311 -1.6008606165994557 -0.6317316166921702 0.31793387517386534
Ni 8.428302852532386 5.924844785279027 13.315990887533452 0.07265217624908778 0.07411050596216913 0.17111642846527303
Ni 2.3327778200614797 2.603243993478443 12.792948132123902 0.10586131601120477 -3.978457925981284 -3.075999945038986
Ni 7.364888038030453 1.2041941839044648 3.9677540446016213 0.8791259910845762 -0.20114922738193747 -0.34578946393355287
Ni 5.049626284232323 6.863590861061145 3.0791725865946113 -0.1801775102262768 -0.405457826328463 0.7924078236607257
Ni 8.381178314540088 5.420076465399158 3.510589431354964 -0.3260138239685224 0.6445912462636576 -0.8601021416839059
Ni 8.417559287926055 7.8535457272276075 2.365339593000473 0.9281705552170532 -1.3719046514178954 1.1883523111821146
Ni 3.781036739864805 5.407295490823585 9.61762111392531 -0.24127129221380383 -1.344778741735381 0.23641576389371544
Ni 0.29819098416971773 1.4280640367285635 9.047818856476288 0.7172159117089197 -0.010468503631491648 -0.3801556001182485
Ni 7.70882359223645 8.523287659894764 0.14546541233178925 1.091139157764211 -0.34164870229230193 -0.15248544362764707
Ni 3.8668532023655904 5.516287491724506 4.951260885513572 -1.8471100787541417 -0.7795386810075413 -2.308273683285341
Ni 3.5323029394530963 8.316509412923757 1.938160749625216 0.29300934401804374 0.8432439324759865 -0.297000724565624
P 5.393618433159687 5.32429933193763 8.283775969329946 1.214797649857837 0.8423815844756912 -0.9974892962175338
P 7.035950084986937 6.975601247101684 4.9825162636343245 0.6454669640003915 -1.879284349493841 -0.3881247343666541
P 1.1991195238884806 6.6698105350976205 7.605780639796646 -2.1289086416580303 0.41808117151942836 -0.6400601911625234
P 0.9648079449720133 8.108504946989779 3.791211527521388 0.3034737338844773 -0.9621317426538463 -1.164719245144207
P 1.3618576451817384 5.0778670501948815 10.128901599743909 -0.6085407803980035 2.6218384828572328 -0.3995918544659892
P 3.9048471253105417 1.4196408556983149 2.6626241183829493 -0.05744744348419138 -0.4999520381533067 1.6624555065931175
P 1.581963949034875 9.259424633179972 8.347943064416818 -0.6440538857029489 -0.7018111471180751 0.48170877567240267
P 3.391570732318372 6.356851158386963 13.052764122224794 -0.4377884201403686 0.024734269521886433 -1.4360436479896495
