# total energy = -381167.36479729344 ev
CRYSTAL
PRIMVEC
9.18440435594102 0.00000000000000 0.00000000000000
0.00000000000000 9.18440435594102 0.00000000000000
0.00000000000000 0.00000000000000 13.44230414873678
PRIMCOORD
 96 1
Ni 2.974194858270334 7.047615971646655 1.045194404075034 2.014932152738859 1.0197236821357019 0.9055587313548082
Ni 6.936346912452368 6.655809280336027 11.244728969596231 -0.13022843200165957 0.051373726486285715 -0.7533504526479478
Ni 1.5885437678335161 3.9438475362312118 7.032193519793659 0.8080339602337567 -0.7075045979584268 -1.5001723601487582
Ni 7.816047533809957 5.385918422840586 8.714645985642013 1.1996132288079149 1.2334905982816498 -1.1396697583747468
Ni 6.554395087053044 8.536931434442195 9.882688227526788 -0.8332626528935585 0.5413100322748032 -0.5840196553281877
Ni 7.714963979085043 5.624988469132561 1.79400991534051 0.8918606650424253 1.1514577521486105 -0.4542306248567919
Ni 3.590027541480844 8.546474030604214 6.787153610647678 -0.12235597123211832 -0.23214053355712921 7.533332262567671e-05
Ni 8.245997056555492 8.888446143690478 0.15488487720565697 -0.5723489038584788 0.570969507012449 0.1915335586690443
Ni 3.9788584857688614 6.301603540601245 7.7492594635206515 -1.071218250470568 1.057093638143728 -0.4404682809653769
Ni 9.03868463071484 8.631145054682806 5.119743362310543 -1.0220564440339366 -0.19558715991312767 0.8629385826914363
Ni 7.203943718782104 1.2164192551323258 11.317923161948103 0.24140678935040358 0.06153369773842305 0.7355075109292559
Ni 3.0211087958984333 9.104169434021093 2.5770648861748096 0.610720818768458 -0.27051836200437923 -0.8196280928292594
Ni 2.150923217489692 6.25331194231453 6.16831027967787 -1.1568123315923045 0.5577483803364846 0.11559345569730414
Ni 1.600804947695206 -0.07267435506335558 0.6209630915031986 -0.06068626213646323 1.8821932956105198 1.0409447962980072
Ni 8.969287271138114 6.064921439450872 4.429037577625525 0.5401571496172826 1.705864726816688 -0.2655749019561749
Ni 6.209869709546145 8.475634719538137 4.645902489421915 0.448974261553859 -0.4077669340776139 0.7906232209564771
Ni 2.529421706838083 4.457889465578718 2.171994078043017 1.2901374002414168 0.8031846025612555 1.5051273901611883
Ni 1.1219117339512106 7.412925656289888 12.663780065040555 -0.9358890069072334 -0.542673231170917 -0.38257860773744434
Ni 2.1763456488433683 7.610849570911174 10.508024013960435 -0.2262709621502297 -0.06489670067338502 1.252824265613255
Ni 7.481073936869467 2.5189331170238134 13.23392125484738 -0.17455990692918325 -1.2687684476473375 -0.31164495684136
Ni 8.379437267949118 3.045502573960342 8.300447716426664 0.0670379153861039 0.3711855354091543 -2.201667004467679
Ni 1.745009281034826 0.811015053121148 4.716581991851593 0.696092242356427 1.8950683518009752 -0.20181308621818148
Ni 3.3344898581162012 2.123158763016367 2.8048849555285202 -1.082227199986562 1.8247291399557801 -0.44075367341627963
Ni 4.84559072812667 7.798716562724557 2.8739911694860583 0.6053297296598736 -0.8474798249342049 -0.38379499664304867
P 8.382743653529799 7.327767858778586 9.445705287898795 -0.061871026473183766 0.15408852644870885 -0.8604530972654213
Ni 3.9229162786246268 5.962487777280515 4.204645127990453 0.5641658538270542 0.011676665006979892 -1.7369797030539373
P 7.115259109984743 3.4562015851028036 6.3333549450206075 0.08911212157732394 0.3309022624090753 1.2929535295339734
Ni 3.9693985492463586 8.406843530651203 9.299049637027275 0.5503114644424651 -0.2324434095095287 -2.463376509931177
P 3.2910017033258634 4.063042736414741 12.765820634702989 0.19891571006572836 -0.3043355676641404 0.14611913508998706
P 5.030684029814037 6.991297203922398 5.824577516269895 0.10625238080203638 0.3815370538468075 0.37385151227709157
P 2.0088037439467787 5.290051609809635 8.410756086921676 1.1975679162431117 -0.08445096865622874 2.1408519300628353
Ni 5.449492870033557 3.441396325224868 4.032893092121131 -0.6125951529730352 0.06797919625345067 0.5359287133582318
Ni 5.620827933943539 0.18044048242299934 7.285190796903812 0.882452741464964 -0.4075959557173883 -0.32713045407146885
Ni 7.392719966630174 3.1054675502277376 2.355212842794227 -1.6415308406253084 0.867016609415552 -0.004915692134062502
Ni 4.576157040918779 7.644758391921929 11.226568646794343 2.5734343805222326 0.41853188590360174 0.9284693174043945
Ni 8.601314109221557 0.5849198149120256 9.519839963260283 1.328435524490667 0.42246593085068535 -0.660549826475443
Ni 6.969585271942598 4.273760526352382 10.347294181800489 -1.146523805182103 -2.092046478524358 0.6222822983538122
Ni 6.255185560810248 7.104972577067071 8.01504143154277 -0.05076026127200289 0.10207073862052099 -0.47321899303383663
Ni 4.4986222990518225 3.553326661535291 1.3741797693527356 1.33494375792283 0.18055314839814066 -1.0184435298716976
Ni 8.937022458513308 4.979462606526663 6.524356574052564 -0.7110879444343109 -0.23816437115370598 0.3647901734057718
Ni 7.892480147150019 1.0414104294660331 3.62077876426205 -0.48007226851024415 -0.5666960764480756 0.5755578977140797
Ni -0.12788272829676686 2.828548573441362 10.450558114127771 -0.025249261485092 0.421049767229449 2.0179028053314085
Ni 6.720605253312971 5.535201731808306 3.68307015016163 -2.0006854130118574 0.6493670703857461 1.1144233251031324
Ni 1.6508507672205603 7.2811937441129455 8.358895429088703 0.26052217002361583 1.1839071309265676 -0.48601588768818876
Ni 3.0626865945754895 4.3567508044274605 10.323648932696427 -0.29643251076697985 2.154952888240592 1.1136496801619014
Ni 1.1121946341057662 5.417026000512153 11.187142754066047 -0.6926220244196394 -0.1690600601568766 0.15814726989911473
Ni 4.26240860252538 0.9839711644061016 4.430542901505174 1.5467018711688654 -0.7177103348468349 1.709012014196418
Ni 3.6329921852209077 1.3781015100275982 13.161817251296691 -1.274010412772567 -1.6278230041209127 0.45203310298484084
Ni 3.68466364432343 3.692608154121454 8.2730396168437 -0.08972790078445193 0.22329182491724772 -0.3524249669721995
Ni 3.0488916191805395 2.286457473084417 11.040070131235186 -1.9245655899291434 -0.07022402642356938 0.3491756067969664
Ni 5.294524414747944 2.711823978038953 12.41548703985936 0.27763620399608313 1.8050455454839238 -0.20554581378773634
Ni 1.715554896153598 6.692491791472797 2.850521342505862 -0.34591673354003655 -1.1604800102518789 0.4493203320393681
Ni 8.596795382261293 8.31897633384462 11.32086676355535 0.3429039148556417 -0.32800642891851894 0.40264606791128077
Ni 1.4817566979819294 2.4033106501482973 8.823864167335838 0.5854605015397724 -0.42323546202685813 0.20897823650805297
Ni 0.2158041130892546 4.455400491988817 2.7908107742400907 0.9427553950097636 -0.5534600373737759 -0.4310400456729416
Ni 7.920290523645298 0.2792251807289004 7.430193254984991 -0.3335325009430708 1.2712757874502234 -1.426269599322021
P 1.0922001857470407 2.1253170980482 2.983868791415142 0.7422885384068313 0.5089249310758784 0.9994891002563819
Ni 2.778778286047731 8.001241863945623 4.666630771691464 0.15597468772782816 -0.5206931273554001 -0.30926488664495766
P 5.052910288439723 5.667512261461868 2.141842596868529 0.18304120492731704 -0.15786444855137327 -0.38275909917936657
Ni 1.787716761451948 4.84289051323578 4.331688401725903 0.2692983735543491 -0.9492880539219586 1.942922495169776
P 8.414861515684354 4.405418963294198 11.94815148060072 0.1431672515505147 -0.4359122861635783 0.17859808155429888
P 3.188843573287229 3.261896325811485 4.763952394377913 0.8284906854262118 -1.123570024599407 0.44798541527802843
P 3.0009949502826276 8.303583272085676 12.57290956799819 0.7921419715938486 4.217669507452581 0.49162963433054035
Ni 5.745855230915212 4.636002619929094 7.67193963671644 2.0516477629923378 -0.2821137801514625 -0.08948364598412976
Ni 4.9262389830821 5.776779120498965 9.636303721577995 0.7476330905481964 0.11701476152486301 1.069038726320746
Ni 6.5478098691048565 4.518129973977837 13.724995744134864 -1.0927715511613116 0.41925205189907794 -0.4241536029657534
Ni 0.5664683464909508 2.1514375441355758 6.170878239145533 -2.702740300709623 -0.07990474404644303 -0.34651168681155803
Ni 2.0028798031147264 2.714413980077152 0.8308368346773272 -0.020831849143686704 -0.06581329895038343 -0.04543884905908948
Ni 6.096644372216622 7.223726925839842 0.5923913278839242 -0.09951094831314476 -0.9376913502232948 0.18427456311378584
Ni 8.883587593767755 7.5324790482446575 7.2093496592065165 -0.06019620987392213 -1.885368350904392 0.169080886092483
Ni 6.62967046543987 1.4904635133443878 5.52879285442442 1.5742877512069338 -0.34814330887771006 -0.6530712587102108
Ni 1.4235367585487815 0.17021824033606237 7.095479576688761 -1.4949733324463221 -0.9005983020257393 0.4475596405945195
Ni 3.280531482320375 6.347911307539554 12.365710323382656 -0.2386089148902923 -5.221260545692478 -0.9626827300613098
Ni 1.1972514031687702 0.6785851262105066 11.001705955654465 0.4097474548427523 -0.04849769049007132 1.3032744518440071
Ni 8.866385204343826 1.5792491505900477 1.6548413909283537 0.7394099313074557 -1.062932356312692 -2.2686673817476284
Ni 7.26569046950131 6.404983196423853 5.907220623859002 -1.7181584565823764 0.6053261301154478 -0.034008752845276914
Ni 6.676703800325048 1.7404721852657812 8.995106468761472 -1.435276945026954 0.5654668320266649 0.15005600825054802
Ni 0.8598604709926277 8.729124280723635 3.0830594403951155 -1.5838707669096788 1.0478955165842276 -1.222393974147856
Ni 0.5716896803871085 1.8061774142774139 12.816282507747246 -1.111833452888769 0.22629435918899737 -0.380172569399113
Ni 8.141552009823553 3.821933752348012 4.526372976918561 -0.2869862777524154 -1.2461964758840924 0.7421638399035089
Ni 4.095509605936145 4.71553956195324 6.081378973678708 -0.26520286332873677 -0.9444474380002057 -0.4544070025336561
Ni 5.396416197059245 5.191374369035106 11.788551330180837 -2.1539136483427996 -0.9176424019922196 1.5059450009664774
Ni 8.325791161902579 6.331324273209805 13.000912915453318 0.007561871507657944 -0.7089441586184306 0.8378716124204797
Ni 7.844464080995027 7.698716767717756 2.879166581360262 -1.0124222633782822 0.9715520075264816 0.7198078408058121
Ni 4.846040763941819 1.0200658736618629 10.927558422126827 0.9615424458092796 -2.714585630083983 0.4176728803374162
Ni 4.239438407144041 1.4025871321334147 8.638132549543311 -1.7410631290946916 -0.2997595182576837 -0.3660212175993955
Ni 5.0440932602245745 2.4641848824503803 6.704335999375146 0.006712121912852957 0.9193372731961393 -0.29730025808391375
Ni 1.5263745345123334 5.356583435216438 0.40415053081183644 -0.34753421453880146 -0.40659245415353845 -1.1668697158283066
P 6.294917294204758 8.693929643098171 12.398885310482589 0.05365635187287534 0.23285992822165705 -0.46994546448888747
Ni 8.925927698009247 3.9370051549600813 0.7064294850020311 0.561104441292911 -0.44449745672942803 -1.6448678754183417
P 0.15189719045733657 7.437310249947406 1.3935634548194744 0.4949311878999476 -0.8086885630986201 -0.7712892965145556
Ni 5.241539585817541 0.23510697579735465 1.0429616753676356 0.46724452061795657 0.8349703796132846 0.3592527885273103
P 5.7207175160976504 1.7427131799371314 2.7113528180937054 -0.06645916006449845 -1.2146138159818047 -0.0270505763598889
P 4.9844956601328105 2.9151391380376257 9.902004866841473 0.8978629053724472 1.8595755582110038 0.8654374378538903
P 2.031682095284209 0.36034275874869903 9.188406035772001 1.326971795460947 -0.8212046932877599 -1.4860390060711697
Ni 2.8012157859744042 1.9422627341355851 6.699671240385069 0.8968709737728231 0.16111483716787092 -1.0607500039493925
