# total energy = -340875.410247295 ev
CRYSTAL
PRIMVEC
9.15368503920407 0.00000000000000 0.00000000000000
0.00000000000000 9.15368503920407 0.00000000000000
0.00000000000000 0.00000000000000 13.39734332353700
PRIMCOORD
 96 1
Ni 8.545788895528348 7.383728568953167 8.344789531455596 -0.5538423604138591 0.3485297456828514 0.9864304673002107
Ni 1.6750419946460737 1.4283867952770712 2.7674491850022043 0.14479630251350548 -0.24545730527069337 0.5972803769928359
Ni -0.11362743955790235 8.761852479210747 3.9328570142274732 1.148115832259571 -1.186317540140273 0.8649062479407685
Ni 3.824812407227099 7.051449798928125 0.8299060466678349 -0.24417021102815367 0.6987101395952482 0.10676351611050001
Ni 4.871307459103488 6.079960042963173 8.290865172386242 -0.8623587989285665 -0.6070446554684513 -0.437717200582801
Ni 2.72909799043543 2.641131076387478 0.90038484528513 -0.7562326592917492 0.36049000336852105 -0.24235604063755037
Ni 6.554578616676628 3.3632103737609054 2.145933187776769 -0.3759675301788299 0.5552407834232824 0.6998388538830529
Ni 0.940431302336991 4.6179609159083626 7.148514560621473 1.1427599672642963 1.0004298669030962 2.165856422526973
Ni 4.464233927924876 8.778356573490504 12.53811831737923 0.8267996708770342 -0.2191353795467129 1.4698436272582298
Ni 4.104283567767996 3.7377150932659893 2.590898398528899 0.18938823019126738 -1.066207684629854 0.4917941849328627
Ni 5.965127063074354 8.714134318655912 1.6599576369291518 -1.1949939848683484 0.2968958235566435 -0.8681232122161694
Ni 7.839820083974316 1.5658019163684194 3.1302353568107026 0.141612248358569 -0.7468779575497266 1.2766859027222013
Ni 8.693318838682442 4.660836777032254 0.4271677007642595 -0.47280890207961157 0.5523974004372165 0.3437492935750725
Ni 4.277379753475256 0.29428365380961663 10.316610474476269 -0.3664400503043689 0.17201785723361987 -1.0987912749928304
Ni 9.035868043417349 9.151177014932651 12.129191164962874 -0.5701092158946827 0.22025792318693035 0.8274609586101169
Ni 3.5109050832472426 0.33280236081417247 1.416393637026746 -0.20998070963063836 -0.3169907945343057 0.19054625505511055
Ni 9.4992367381126 1.1741431909397286 8.788322190485719 -0.32926755501912974 2.1842387816889026 -2.15423709312049
Ni 2.1630707170671513 6.149015443543584 8.86574589000709 -0.07980061436841095 -1.1645050722508719 -0.871353546228009
Ni 6.1649611630307355 2.680491922423502 4.286868463475475 -0.38925267732351027 -0.035185032541565214 1.8925175603546633
Ni 4.432681175300183 4.729269727024189 10.127400141475563 0.4008750920537871 0.7287923036926094 0.07261592369451364
Ni 4.83978216753417 1.7086451727386889 6.457050678515973 0.1026996304537715 0.2185532817909978 -0.11723844749989486
Ni 0.5203540460702907 7.23123732846151 10.577645197807595 1.4863477955608402 -0.19614766040228798 0.2065179478930185
Ni 3.05822789277759 6.394837657566242 11.975202381584822 0.41903710767479446 -1.4253504299418611 0.2759382474683699
Ni 5.1036188338821535 7.0057179880453395 5.583450431274101 0.08477158522044109 -0.4378038467593363 0.9793483636424488
P 6.469339500795824 7.132011381710229 7.385312156479732 -0.27381554469841224 1.2792696042889775 0.20513058062718867
P 4.1975138507626255 8.979032812478355 5.354690686323803 -0.9942458495795715 1.4002220103053498 2.0032158927431953
P 8.475415364289987 9.126873980926687 9.969525618762093 -1.3277811787361198 -2.1369253413149196 2.0955097544826105
P 1.4500901827076327 1.3214717530210798 13.074883090141006 -1.3149680861318516 0.1422092585126196 0.34668086539957066
P 0.15510004075218495 6.481834280990981 12.801308733557411 1.0097711989086802 1.5159126537021503 -0.666876025803787
P 7.817677319657772 0.9559376449381596 5.35702121455654 -0.19336752655398956 -0.36944258457611856 -0.021309045890421367
P 3.244679305081724 5.688273856479109 6.782097121924023 0.2261033262241138 -0.14939369207620076 0.986632813119004
P 2.0740419755447395 8.091345043829635 2.7860448963329447 -1.2778385282694058 1.4302386112720982 -0.08434735319882893
Ni 8.526520388340947 5.11450256549537 11.408427252141859 2.129805442440687 0.10182751226146333 -1.7613421910587022
Ni 2.1791171270906746 8.421216394666894 12.656885551134625 -0.9858301147120505 0.5500332710804141 0.33117608489575223
Ni 2.4087739331831894 0.38267255274181516 6.7002796535428155 0.9698332250631618 2.561859274090123 -0.8948380025031943
Ni 6.6307189695435245 5.794374220759005 9.930124496511523 1.345406862237683 -1.2420503149262028 -1.9534097678543456
Ni 6.123943499987149 3.7216595295573414 8.441344432887503 -1.4356261008362565 0.09481328572715929 0.5026164723593474
Ni 9.00237470954623 2.4352280831934476 1.4827908074469567 1.5212695471386897 1.4711957704107501 -1.381165765004847
Ni 3.825563009407321 2.00135256196984 4.293031639669906 -0.2676194431900294 -1.4513059734653586 -1.1586493848010433
Ni 1.6604967889829942 4.368779299444954 12.25570241633373 0.2029556844630569 -0.4973696221381112 0.2722862525380795
Ni 2.3112139571245973 7.57796061361326 5.619730146897165 -0.20663390464559253 0.3730750391223833 0.3113914460696573
Ni 3.199130567901432 3.864017640616004 8.214500554233794 0.13060792682826539 0.725706208568118 0.04904019325710264
Ni 4.557088909829394 4.271988232936833 5.294885084561858 0.5048818713547564 0.5141774377240693 0.677623237017962
Ni 8.822303415773982 2.756787887937517 12.06294136887317 0.060991709192023985 -0.8365711484415012 0.5646101404533245
Ni 1.279145113004667 4.3040627456136304 1.969543506161657 -0.6476742560643556 -0.9446904072489473 -0.5706686879425784
Ni 0.15188252043086806 8.774512025738149 6.762001121601352 1.489634436731912 1.1741775623436295 -1.1958002828197276
Ni 7.695136936893991 5.4067614241554125 7.128485382200211 0.6880176928784086 -0.3243258947431382 0.3878074602365515
Ni 4.231400793094105 8.290529232142168 7.797079697390269 -0.03887945067401691 0.9472635672927622 -0.7023899024396807
Ni 8.097056943347422 2.876161095648166 7.457470656317402 1.462505955946236 -0.6842006331251635 0.16770148924645312
Ni 1.7936554464913768 8.548214622086382 8.636208997189708 0.42662031933869105 -1.3256409924646653 1.2170913309880202
Ni 1.491830986876068 1.1048223334907026 10.810986362162785 0.636472216700949 0.3896666249324773 0.1524769589872148
Ni 3.397170545573382 1.6931571375077696 12.206534312055147 0.03807366694326991 -0.058258112310944826 -0.4095078280281205
Ni 7.942588506868839 7.771213213965014 0.5282335382255953 -0.76335204394535 -1.2759945330821316 -0.31426516807302646
Ni 7.492556731400211 1.1490529400130443 0.3989505509989924 -0.8848942610269213 -0.27554564001564164 -0.10984344058740438
Ni 5.162751639787436 7.351919513144985 10.803819026710178 -1.7261440458910142 -1.4325636598608489 1.0368981370324593
Ni 1.2190877849017936 6.946832331638422 1.2651509591860917 -0.189629399667796 -0.5375837324631515 -1.8247545938770768
P 5.966353656881058 7.328403696059741 13.147175233781494 -0.9854920146463415 -0.4144201777280734 -0.3562605386682058
P 3.0837575205902574 4.902814443302557 0.5869928737777923 -0.2158510523684863 0.455222556456416 0.5899918137512227
P 7.035412542589726 3.280396984438135 13.616524030968685 0.26480434233873745 0.01887498252763201 -3.2342423457550686
P 1.3018554057989402 2.3428765539707848 7.261601017388508 -0.6462678626351321 0.022782030891522056 0.316529538627171
P -0.13404290349142442 5.485089507767102 9.192413451050717 0.550957068446264 -0.3447911045760256 -0.24752447221236729
P 2.9242087888674897 7.529272162435211 10.256041455374927 0.6359345990299241 1.6057259151115573 -0.02378450401410742
P 8.44227902413873 4.054185449080749 3.0993682152018476 0.378205161260097 -0.588474862886064 0.32611486832276093
P 5.152728354575937 1.5552843321601888 8.523591209101056 -0.7883711916975068 -0.7143064513716085 0.9963875785129227
Ni 2.186174618321785 5.483112311780175 4.915177410431919 -0.0816716061388787 -2.502185255268259 1.203635205483114
Ni 3.9765621992236593 7.900124561575556 3.6008839772855943 0.4675473965703561 -1.028610957323003 -1.3941449508733346
Ni 7.774014241613158 7.507440623412903 5.640321361585081 -1.6706966635559872 0.004211981198818552 -0.7592783880966084
Ni 6.517597728773015 0.6771026655134262 11.794136997608035 0.2084182502395249 -0.8274581303966395 -0.871653593966931
Ni 2.7917275040583314 5.651842189682974 2.827093681905956 2.3723638288970306 2.433898555076718 -1.3790798290100958
Ni 7.071926592551981 1.5976658942873498 9.403876392589465 1.153362168260175 1.3896560618640454 1.9229157130305463
Ni 0.7493014415656444 1.4826040722704137 4.995092743044222 0.5697410339219865 1.500723604666538 1.249462291119558
Ni 2.6149606906160843 3.2184082287739595 5.907049677063943 -0.5544059462268129 -0.54449074399563 0.21203167862239614
Ni 5.261803666521348 5.398870947577959 1.536058847292872 -0.6892934742670387 0.04066045383383965 -1.636411517120872
Ni 7.17958308330307 0.5517667473125755 7.433167622311438 -0.07689835311995143 -0.4095569360985011 -2.284794369216478
Ni -0.21799867271775172 3.895405626908452 5.4433001890675055 -0.9000195467041339 -0.47199180549495484 -2.8615174908832524
Ni 2.877570763157363 1.5664884427527688 8.81376394292119 0.1353287293427024 0.8224262243996868 -0.1994150182996501
Ni 6.437988129243875 5.2357980470821985 12.268724448792067 -1.2159317634622802 -0.31330151860817657 1.2676304773881524
Ni 5.069365744145688 2.1259891386271668 13.76081356958865 1.35212335502591 0.32542144180016214 -1.3792371805235664
Ni 5.9488060424970906 0.19341004373589862 4.104476710524127 0.7432881833159393 -0.10056690038148486 0.05030234779897789
Ni 0.5148178973068983 6.115705183374958 3.3202768444207273 -1.9351521071957385 0.8733433229645282 0.8748677300288545
Ni 4.304145128779752 4.157173560418262 12.382882802087199 -0.3920402673709764 -0.39251206480107237 1.35256301366649
Ni 6.301762987218733 8.425125018215123 9.157727392007855 0.3795189949755141 -0.20661359293061834 0.27074281931035954
Ni 7.165825094560711 5.747745348734004 2.492951221589533 1.8696265146891027 1.260905757069809 -0.7691753354953463
Ni 5.329385323796688 2.4609682457639823 10.851727583915606 -0.2889655129659733 0.9142894263595868 -0.33337874897402586
Ni 6.882619230488954 5.107161310025395 4.605135687680205 -0.37208722128781724 0.2466150730242204 1.1525275881740216
Ni 0.9316803793578191 3.6855116270000714 9.73500545976285 0.7321748470115972 -0.5888111631795602 -0.006449355169769538
Ni 7.4390168271060935 7.4999529089809345 11.305160868776555 0.06799667975494741 0.39851404802077817 1.3363570933305888
Ni 0.019612685748089675 0.08347520075728282 1.6853453826223874 1.685054732049872 -0.005085899163339628 -0.46194573411286244
P 7.500126828998303 7.863784431630668 2.8032465014192 0.3937063422194897 -0.18900436448928742 0.2521671131907012
P 2.180792251468487 3.448293876994591 3.783222638863221 0.016207462997797892 -0.9486815306862113 -0.23346902256056565
P 5.121761437799223 1.6186186795376893 2.337702891138329 -0.15145545970123594 -0.8711370593418288 2.610838275091987
P 7.272685214705955 3.597462329785998 10.664419386683804 -1.4931658469239382 -1.0307637419999476 -1.0632290616175044
P 3.0779998526468484 3.242857721741918 10.76641340781678 -1.4687511655249996 -0.07115887953301293 -1.2816848985986895
P 0.2913736973084882 6.230538163263778 5.532647478832256 -0.3226513352541927 -0.11069961794011259 0.6306137010376429
P 6.536033250614074 3.722309441201192 6.2617979979644804 -0.42341903879257403 -0.4618009810048821 -0.11553329188333006
P 4.8354067060445844 5.771590698483735 3.7890370596544027 0.6995981986271566 0.0038355716960062976 -1.640468717909381
