# total energy = -381162.92814782384 ev
CRYSTAL
PRIMVEC
9.33687261658956 0.00000000000000 0.00000000000000
0.00000000000000 9.33687261658956 0.00000000000000
0.00000000000000 0.00000000000000 13.66545685993419
PRIMCOORD
 96 1
Ni 5.078352971842262 6.030938053371938 0.5383248543838572 0.06119148390765591 -0.9615501591187632 0.8301822141960218
Ni 8.219771740327166 2.965614795889022 5.480463126783555 2.2064466852445097 0.5427431651769039 2.003003776732389
Ni 4.192405149456292 2.6529882934498104 7.040225028001487 0.3983034746718689 1.2413342626957846 0.12265679030198876
Ni 1.5816195197769087 8.880672924470078 5.758199604006541 0.7030031105436473 0.20493209146313737 0.3521979385630579
Ni 2.6438381583845407 8.767332629003436 3.527177258589658 1.6089619055503515 1.7292676791216606 1.3248866307971443
Ni 5.308152078195751 3.6360676006153745 0.902658023127107 -0.03257407728127939 1.1671098568635707 -0.35883986935960777
Ni 5.443247286623698 2.138461259733667 3.175660814748547 -1.5004582668202933 -0.7868915218281868 -0.6197952702659003
Ni 0.17504581854761667 6.967052891784127 5.965723733599608 0.27464678235045603 -0.807904633744744 0.9118638476372296
Ni 8.842111640980727 8.488823058736159 3.558539813369496 6.8191317406463074 3.456983697485485 1.7370370386544343
Ni 8.175356237770545 3.1414654528474815 9.127882497003373 -0.857485015776033 -0.026521700439612387 -0.6276813578821965
Ni 8.193805897861335 6.678636899777818 8.533571887641585 1.1261987204715056 -1.0824454866449553 0.5821388933657072
Ni 2.951245349087542 5.619648819060577 9.83542509411062 1.4052199777405736 0.6287514510179235 -1.19789213235175
Ni 3.934996911074228 7.747335327911263 11.100710439372381 -0.7509783528713454 -1.992913739486239 0.6377307716983985
Ni 5.119771338321382 7.12939309421254 3.014873334219475 -1.1543975515032248 0.2851116864375219 -0.8350446844946458
Ni 3.567665672566225 6.771482760072759 4.8925884236467585 -1.7407229721464537 -0.3148966310094383 -1.5481895114579853
Ni 0.6197909344568079 1.872061613119099 9.504912878680562 0.9098858979752522 0.1262419365500858 0.4175330123254422
Ni 0.9325350814897158 4.63450606306907 4.748363621273076 0.6305208842135206 -0.8930965943320555 -1.1162614067531358
Ni 4.881839816006821 0.3449096728490857 10.524410657093151 0.8015365254348712 -0.478458387055905 -0.6980272545956108
Ni 8.344951190143565 5.738348479351163 4.317505235856308 -0.2710408101667526 0.04006241523852455 0.7654166397838624
Ni 4.570651191935009 3.8482667022769927 10.794467556672073 1.0383099297783216 -1.2952700934822918 -0.08040302383910022
Ni 7.40802404382252 7.438331532008097 2.9530370949232823 -4.542329388496372 -2.9954475401062153 -2.1800987913786
Ni 5.241216039131548 0.4967328220759484 7.209744351707131 -2.0800880206109014 -1.9790192408923337 0.32785884759706113
Ni 4.508850432754375 6.016176457924803 7.015831514867279 -0.5249989538196055 -1.4436757106136104 1.3646276581405081
Ni 0.4728257599998022 1.3778142665067983 2.237335938611919 -0.08289956500870883 0.4905577414226003 -0.033677851868419414
P 1.9841507676686534 3.143622270398581 6.672514712469352 -0.5964463111273148 -1.069196592054849 -1.3089162235108167
Ni 1.3356396133539172 1.7727919845334377 4.46917806143567 -1.039026239119056 0.7587047749813256 0.843375315847528
P 9.02586129208737 3.398154752045845 3.005676514791627 0.3804800733372028 0.4477249625277902 0.260982397489486
Ni 9.318432192363112 5.444143626385195 1.9913438942546573 0.7314755069517273 -0.6376096727395019 1.1924365085538173
P 4.738761581578052 1.820559424323152 11.993420024834135 -0.44530298334985885 1.7321830529962428 0.7880626593181524
P 6.377588119257928 3.531718713381237 7.100953914217332 0.32946347308001966 -1.3524606837606707 -0.41129654449742714
P 5.315817650531043 6.071450743217045 10.171362966159483 -0.5242479345861939 0.22747860930508565 -0.49937456838328187
Ni 3.4633821434396967 1.3759562288761975 5.260066251053255 0.5464766640774071 -0.6646689908501392 -0.1901338501080403
Ni 5.190105998981256 8.158848647162998 13.772183873028538 0.8700811072734886 1.7243077640132238 0.225917692575869
Ni 6.076053821367227 7.505603698482862 7.735686645760824 0.7540827028282818 0.421493539635087 0.4521752849896599
Ni 8.665467349858444 0.5273120132517289 5.281808092393038 -0.4106787084077701 0.32757705469058424 1.5333922985441526
Ni 0.82260834661477 3.1030068749558017 0.13778516139968605 -0.11416109412615179 0.7464323853718758 0.27184710811813184
Ni 2.2296171461032883 3.930281790453859 2.308136509210321 -0.3791618687464115 0.8351963795811617 -0.15019561915220586
Ni 6.0474363071069694 5.584318093461618 12.175881187533626 1.685496190462665 0.4644029374041034 0.2778462631243602
Ni 8.428973705911282 1.788552625339739 0.004422876510630902 1.0493895846312509 -1.852431748077371 -2.5730885671470394
Ni 5.643635244553106 2.0554564630701484 9.098024112385795 0.09999637258999552 -0.05453721181593188 0.08680841314481179
Ni 0.09083096320607882 6.270961035129988 13.449583723368184 -0.022397136748277556 0.6307422561957072 -0.16141642756868976
Ni 2.333592558436802 3.7460652957214386 11.547256637989827 -2.047782109389344 0.3588033596947176 0.26708259684995295
Ni 7.222957893691182 5.315752292423435 6.451229900162821 1.1560952509206217 0.6003862696116692 1.1346679342847814
Ni 1.655399486395033 7.1617733680965765 7.926470696620704 0.6474346292497236 -1.0044248469951025 -0.2532816864111186
Ni 2.7939657315625737 6.6954059228158025 2.0662302802658776 1.4992598756368178 -2.3066459178739307 -0.2142456555545794
Ni 3.773188910379203 4.080007878113722 4.398213161880994 0.31060905937767797 -0.0755480097396441 -0.4493038769791359
Ni 1.256621661254552 8.191873165250609 1.983472910724022 -3.6480945667948137 1.0064724735527506 -0.7231253352148191
Ni 0.5295752711495059 8.7411240278522 8.989971287824726 0.12085444698592734 0.5268758591273442 0.18360736184343218
Ni 2.4661854850305733 0.9083973986624347 7.748259678290307 0.731850888013275 -0.1795131371694005 0.35437514872003484
Ni 6.564932466283069 0.794191575113598 12.586145233242776 1.2939804281365908 -1.3030078284461817 -2.407293808004996
Ni 8.478589846459082 8.75086238588595 13.247075361690486 0.18189757824117705 -1.0926550801881052 0.34460032872145807
Ni 5.386927271609712 1.4426495092549956 0.6101898284490356 -2.0707983677788593 -1.6324054812852722 1.595236585544459
Ni 8.77383109227428 6.988228918649465 11.17067722725514 -0.528614953305638 -1.3695472069293124 -0.7914683425655917
Ni 7.696794836984421 1.650889776970007 3.5781771236442665 0.8220791254729133 -0.13795665388385273 -0.19911522767104417
Ni 3.126675846782801 2.088901140420961 10.240087016310422 1.0620322130959257 -0.5132724094112967 -0.39210917293569886
Ni 8.096917171767146 8.59868070075449 7.225938223398155 0.9455954355617199 0.42906543844507394 -0.30583606346906683
P 6.8527975828109575 9.395041231353456 8.88861393454458 -0.6343541419166816 -0.6159653549968489 1.4636840354147373
Ni 5.54509389202366 5.784341913362917 5.059826749396846 1.4358333317510563 -0.5274954949892141 -2.1657294100308055
P 7.309333301332826 7.160550237797036 0.7772610241810942 -0.31832982506070334 -0.1786639017952278 -0.6974371864200957
Ni 6.533896702041275 7.723218186203517 11.051719869283126 -0.5803218947616263 0.508070296385067 -0.39296020808208454
P 4.383717667300553 4.925293620694337 2.284454465761801 -1.3127674789361068 0.45912369128303504 1.656746372023482
P 4.096095309458069 7.984734648492436 6.4085659948901235 0.13888687900760596 2.613666488569402 2.0786546305984843
P 1.5130682017675103 7.045258535974637 4.200583316092689 -1.0071306759620398 -0.6909055559491649 -0.48141489858106773
Ni 7.579364991355955 4.82354038401953 0.48715599193671655 -0.2628952982414827 0.04565019373894718 -1.2005429397110357
Ni 5.225679483265621 4.296968784758287 8.664486978244307 -0.16580272956184347 1.7973736307609625 -0.2249818110251609
Ni 2.2224464280113216 4.876321724350112 0.012734560424001451 -0.5094154975590517 2.3966317003054596 0.6214708581961104
Ni 6.753639996695483 3.755943706842924 4.135331648830297 -1.1849862229233592 0.7997992310287904 0.07647823486339732
Ni 3.0466775230692993 1.897019073353248 2.8944799652545616 0.3969261347083681 -1.2203820859241497 -0.7485458321704528
Ni 6.095539874307246 1.8056857864058309 5.581300416264582 -1.0647691524111147 1.0965652138757889 -2.106731848450675
Ni 1.4071600568232707 0.6602718789353627 0.12367808071589415 -0.2948037169143052 0.3252733462580721 1.566086189232748
Ni 8.773504301736235 4.290003477861664 11.860017591393262 1.2177657313472254 -0.5306139860135378 1.0072828852691877
Ni 0.6301632661343672 4.7127210441320955 9.583899085413373 -0.2202862053217045 0.6437111576515495 0.799874564351416
Ni 3.0827645353420214 2.8450384242228037 0.2082318645297476 1.28904005341218 -1.6607817184351203 -0.20993648665626427
Ni 0.2720643271697713 1.6002279067004626 7.225487252455653 0.650702244257402 0.4448065033294146 -1.076502638797959
Ni 7.509282426254001 0.024310414968819253 1.8288206891249386 -0.3424336600874425 1.0856035726579627 -1.7377672319522395
Ni 7.444120392967759 4.986300745711145 10.245416503142316 -1.4656972091900242 1.1922189932263725 -0.9107485030858637
Ni 2.4110792634436122 5.269161298570683 6.407459575497026 -0.17266808922310906 -0.12741410248131604 0.5214307768523728
Ni 6.465111962218987 3.313235896516632 12.250972984740189 0.6905227186884494 -1.0306282448633475 0.44677468279937893
Ni 6.890126399128253 5.391735760955235 2.697000443113758 -2.2314694325410924 -1.763665182764924 -2.5394739644163873
Ni 1.2839693608526899 1.2539046313525177 11.6516876897021 -0.5404988492274175 2.669432173475796 -0.3292768109905103
Ni 3.8307787400553086 5.404620645026738 12.123651656368716 -0.5286591762800121 1.6239061855650099 1.1910396282062907
Ni 8.404893911693598 9.265324061494486 10.75505568409655 -1.1189042436926213 1.1919865655005921 -0.34383491131034327
Ni 1.6264365078516994 6.184128120735081 11.51443192897405 -0.5042221262835703 -0.8737055913999534 0.9378566721565654
Ni 7.274973610475485 2.554764394585894 1.4962721017992309 -0.6632096326957934 1.9115056714213916 2.3845413447998287
Ni 7.303488419138072 1.520789795337896 7.3789499564962515 1.6083628385137723 0.7146448085476338 0.9003707593959654
Ni 0.2061441398352636 4.496058917408029 7.228425566236306 -0.18011786063293495 -0.07395726821375649 -0.1544281691763147
Ni 1.1216851796593699 8.415799378791798 11.74097806894311 1.1427815645308512 -0.7045627417212834 -0.8940551015905828
Ni 3.9946782001938246 8.026349089294381 8.752588773614082 -1.0990177891813395 0.1157181542006265 -0.621787875215897
P 4.428413276032642 0.09249572757560699 2.4499290562936946 1.2329558088241024 0.14350458028527543 -0.39526365940428054
Ni 2.5923826539511716 3.656832805090027 8.62776785970228 -0.26668201897742455 0.07422466294253025 0.21505889548449417
P 1.7688518243318623 7.886127937855381 13.675022510256895 0.7338913154820715 -1.2690291575078918 -0.239262232203575
Ni 3.451580336580002 0.09833407395960002 12.681939677878137 -0.18191120508793188 0.5588979205598955 0.075191911951806
P 7.574649870735586 7.707504229759793 5.241522288550059 -1.0729624868551844 -0.1899955247579631 0.6899100248051151
P 2.482328937610014 9.496626404322983 9.932887104177265 -0.48296193135321336 -2.2342269406815713 -0.22267681704106812
P 8.370188756553182 2.038855503737445 11.399997352048581 0.16019875311150475 0.7636754887230396 0.05504449046965359
Ni 6.109274413777666 -0.1141105874491779 4.093733080711627 -0.12789181344868297 -0.33096731131905577 0.14242651672974826
