# total energy = -340892.1379844294 ev
CRYSTAL
PRIMVEC
9.07677774279847 0.00000000000000 0.00000000000000

0.00000000000000 9.07677774279847 0.00000000000000

0.00000000000000 0.00000000000000 13.28478172134034

PRIMCOORD
 96 1
Ni 6.430760837631496 1.9078388246764948 11.372609724792433 0.3304546333486954 0.16608477957863654 0.3979628035029985
Ni 4.536146878040965 0.29348580660949136 6.056705013907688 0.18741825094909012 0.049660857560237054 0.21238469108644067
Ni 2.7326093057342784 1.6746110220794868 4.695625861953377 0.3478134363421171 -0.760531029556787 0.4976534719271171
Ni 3.497763510961855 4.377230654344976 4.899267907688547 -0.36866405453888124 0.3452567313585344 -0.1451511147497629
Ni 4.865860827421636 4.495755217346017 2.8832629387042865 0.7562007776125493 0.4236836053078703 -0.740802440779608
Ni 7.008288971347777 6.1394053507445 2.7676719902507982 1.1904292483158014 0.38442620246914433 -0.8779088308480234
Ni 5.341474901299068 4.593775339558319 11.685413637347331 0.00023242772578024485 -0.7080111052812 -0.7558793897173886
Ni 5.643123454080012 7.7307913982370255 12.282896159124684 -0.4278881303075211 0.6451432621123857 0.4714930114816654
Ni 1.9905373461577691 5.75153648674079 0.4743342482239521 -0.37526201947137305 0.9605934516324489 -0.9670021833722703
Ni 2.4740028327320847 1.8319569632360986 0.3445989571050848 1.4971158327106215 -0.4848228958213521 1.132284264543953
Ni 0.5507643470364778 0.11811247729417504 4.784075429775397 0.9874280553267898 0.1824696486945632 0.07430770957463977
Ni 8.61994346340925 2.454651142709247 1.3673757126338815 0.20220723633280657 -0.22123134284379323 0.2357447059686198
Ni 6.995163950816339 0.5218057955126212 4.724293956591337 -0.98674465610652 0.5389924398852202 0.38633910322114107
Ni 0.7746185613189528 7.311444269224308 2.334242240660955 0.55665951814768 -0.16964909989112717 -0.1723788401174644
Ni 7.59637339751085 4.058753755737418 3.675274421421814 0.6617842131031765 -1.5404507480528309 0.2996870131485355
Ni 7.463089993995206 3.920296588941747 12.762171805119946 0.4829534467127812 -0.8425443353058005 -1.060990916315605
Ni 7.685924886143738 8.935878864265218 7.047244685813075 0.19596639762941734 -0.6585389666930014 -0.047424512030550585
Ni 6.948954075625783 0.5681028077689473 0.3759247322489958 -0.4002917087464913 -0.22570763344759193 -0.16606498208429465
Ni 1.8218091257850981 6.716243649356777 9.416890897831479 -0.8790321458191894 0.6311747157474356 -0.8523592645136934
Ni -0.28651121063690754 4.890368127169132 1.2602352442044376 0.40560180810549495 0.7115700262770519 1.124623919785218
Ni 6.257757454969539 2.226633410503003 7.029668413505278 1.5856563980551919 -0.6237038612916871 -0.33127147282303593
Ni 3.6709121220667598 4.066124099217035 0.7273167497729792 0.09848327837957878 0.7784009678586723 -0.6093465641287507
Ni 5.969751299048035 5.548888348162046 4.780196922670913 0.339511344234325 0.7310713295347732 0.2916188914284204
Ni 5.559317565721259 3.097296079532394 9.240309449406388 -0.6611666341238355 -0.914132074846116 0.7832261571614576
P 0.1300611474377322 5.648251833471618 12.49249075566519 1.0160313208857792 0.752271360651156 -0.1732681847009532
P 4.147824175153041 6.031909072629833 12.649477256425506 -1.2517878539289409 0.23678754541083735 0.10769271279298873
P 2.466142343257517 8.668631298907611 1.48449428277163 -0.12439742714217933 -1.52297367431399 -3.322233209243756
P 6.389806416720123 7.7177752990377995 5.752058401457634 -1.6737480487878011 -0.735295652028766 0.5764279590238588
P 4.819405879233603 0.7674406455262415 12.63158238922099 0.08992279040407739 0.33636945617123354 -0.25451195927379394
P 4.048397152399679 6.148191671542862 8.125436984459803 -0.48870269049173254 0.38652447975906984 -0.2566603730753644
P 4.817608677252119 0.9217195435033424 3.953723638119564 0.04472176838740685 0.7586932050170997 0.7638796343140457
P 0.18491211498370302 5.547799134839935 3.5091085753894093 -1.0282016376997258 0.8724871456118201 1.189496709199203
Ni 1.4272597534057734 0.9527167392950833 2.5476626989953752 -1.1093677649570959 2.340743373778272 1.4963581286089906
Ni 1.813676332980003 6.557209427550893 4.926794143693827 -0.2318273731920846 -0.044928999302206486 -0.1321989254644691
Ni 5.868536151090874 5.481629425521694 9.177286658911278 0.7065216652198671 1.083019099760238 0.516662151819136
Ni 8.698366822601239 2.3473182465928963 10.236296095600094 -0.03419130116972821 0.587323265780124 0.10469917738230355
Ni 2.326677654138894 5.064669489039937 7.11421315156753 0.46658246155392546 0.7741344792728345 -0.5111080547701262
Ni 0.40617581691509075 9.368959157914217 9.25684915370264 0.5897719844309327 -0.9974157626671211 -0.2514556889459734
Ni 1.5525918996700072 1.1558641006464607 11.652068279168672 -0.5736442256311346 0.7968046671768406 -1.2388441492840796
Ni 4.127737266137778 6.7636062753132355 1.4391403477166986 -0.025055400306731045 0.5580265736985357 0.561980159029645
Ni 5.57942262829189 7.783010100254562 8.010337997356801 0.197537341660963 0.4880102924103982 0.19190765417901143
Ni 5.41299990945102 2.9215515100097917 4.907770125345391 0.05632155740986428 -0.4160448578156899 -1.0249466210975382
Ni 0.7785106835899626 7.852946672311769 7.139361271819536 -0.7453221830268325 -1.2293634634871535 -0.08994644455316121
Ni 5.118304168376217 4.686449239714593 6.758593170998219 0.20369976171793305 -0.5283413879292772 1.4909760383614707
Ni 8.1682103916191 6.952730015142434 9.037889137947518 0.002275169187421888 1.265432698405885 0.7596763948659755
Ni 4.602607044245103 0.21300564959424984 10.371469284229601 0.47629171842188944 0.5467733693822197 0.45854622151301033
Ni 8.25428547439892 7.385710464236907 4.946747624077131 0.6799796530652805 -1.7861394526080399 -0.9095909924426527
Ni 7.313241471205791 6.030057409982245 7.008001237495186 -0.09617159952726663 0.3297750907831675 -0.647415345976014
Ni 2.154427644024731 5.148148613402057 2.7417396364068733 1.059313271502866 1.1263439878001185 -0.5332179992952881
Ni 2.355178736067464 5.485505209592873 11.316773926867722 0.49190448525848185 -0.8517090325242042 1.2445447992132823
Ni 1.0853738451505133 3.4035465585992575 3.7415394369057395 -1.1695369782478244 -1.4978434549052655 1.0235764802228886
Ni 3.7676251882925285 2.404656251224354 2.6630938961616204 -0.8228946793956732 1.2699002472589356 -0.3014420481664293
Ni 1.2970806078581458 3.3635088922339955 8.520021756272097 -0.2853775385043989 -0.8471116429615089 -0.8658704116262507
Ni 3.7944379895718265 2.7697151729075244 7.179189264620291 -0.9392484102977695 0.24194183591826718 -0.5904196453172605
Ni 4.270732821775578 6.840386737744374 5.965916360476436 -0.6759201382839263 0.7188053676832266 -0.35662460687584385
Ni 0.7716105171943896 7.743099508776879 11.695217464924097 1.257230879321383 -1.2287687673259484 -0.20833931737247346
P 0.43992418402293026 5.676008619630079 7.96406730775576 -0.5687077075614657 -0.22494401580869003 -0.3265632687140892
P 8.398088863250617 1.6514743157623133 7.912694561418397 0.7605564834780837 1.2774623758769097 0.6277206957605641
P 2.072736644866409 3.230298102939826 10.610767635741842 -0.7018455999004364 0.6631078170106064 -0.3183375383701872
P 3.6773747877779512 6.279251264525862 3.717028506447169 1.7452391148492523 -0.21171774692640313 0.361405573204255
P 7.2274659220895545 4.039111608828684 10.484654886596763 -0.7488975590829168 0.3721568981834881 -0.16564075006268247
P 6.379422583049333 7.674814910258206 10.18073895475029 -1.1783360645966932 0.6612203701799065 -1.186265603856415
P 2.472187477195233 8.448101908290878 5.883643539868554 -0.3796454932510494 0.5702801942549083 -0.43855280911021893
P 6.723323535950498 3.913634234121502 1.6441112337048434 -0.5967985522604108 0.12304939775471713 -0.010655165721001003
Ni 5.41790136940052 2.6163630139319864 0.32030677698870524 0.2640564084291194 -0.1693703923084438 0.47814059870517
Ni 1.6632468964187959 1.1060688982706213 6.967987170751902 -0.42427187371117253 1.223653814696886 0.27465783809404953
Ni 6.752813986646653 0.7219169747286142 9.237878688342542 0.31800123807669106 0.026515272681709175 -0.5644674442278731
Ni 2.923920548985383 1.5582104250565627 9.219385661488635 -0.5567070835561637 0.5375603354243839 0.2353515842952592
Ni 6.349977516241601 1.7805460944324614 2.6000048451894164 0.8685294465156526 0.9523170705562695 -0.13687884743864168
Ni 4.0264767342921965 7.022067519872481 10.204917675145618 0.8443297093409975 -0.6622295281707111 0.7150176185060201
Ni 8.27856585470431 7.453940602089474 0.3056804574282919 -0.5244127422988323 -0.705871690340694 0.31238054945580396
Ni 7.562045024308985 3.9328043885906547 8.28809647127278 1.8664643149110371 -0.31172748925283733 -0.5313238675963688
Ni 3.151520749418151 8.240724768538637 12.639353926274254 -0.0015382910213973507 0.13706988040352522 0.03942503876484178
Ni 0.36868781740133694 4.937993979678433 10.070143864734217 -1.4914102976854122 -0.6209111290378984 1.0309797146654953
Ni 8.695407793076171 2.2640660416728826 5.684279379455975 0.18685080848139432 0.09246818253375041 0.17703510794255317
Ni 3.882745959661972 2.620002801783374 11.617090008684615 0.06618122381276344 -0.3672810581484255 -0.3514718590303108
Ni 0.8360737923079895 3.510534537163606 12.575400766066508 0.8695386045064575 0.07247708412380421 -0.2391871559912655
Ni 2.9955817088025998 8.211570158616802 8.039299271913963 1.5125833322186015 0.7894160880222534 -0.006935036556936443
Ni 5.449270713077316 7.8465112369336305 3.508988761923977 -0.06523222963593281 -0.26767112236357127 1.2068799376726569
Ni 2.956760330647028 8.357470283113564 3.455146224378727 0.17294756813674086 -0.38443571555084116 2.4986602728341354
Ni 3.5827403036418777 4.419637359685829 9.282595433604039 -0.6068230263759485 -0.42388492268539907 0.6815279713890069
Ni 7.431366655988724 6.282609672269038 11.405184464545698 0.42664063105366523 -1.5888769618750185 0.06124547707404291
Ni 0.5826991739630025 9.369957603459484 0.4078849741530365 -0.4932486579912022 -0.7224064547709236 -0.12896524901851983
Ni 4.475014780337488 0.37002754978753344 1.9296013068522717 0.6829572476363658 -0.9855670908586509 -2.916621116725616
Ni 6.328356631797698 5.77916619801167 0.39710176226413807 -0.931233253302777 0.21764799636790902 0.3411805044066318
Ni 7.9084693214063755 8.788108923565497 11.213232400790085 -0.28000264734573066 1.4248225824628493 0.5809968093414639
Ni 9.129513762603493 4.7941815140490505 5.878183858091472 0.9998701377448844 0.05652184634612846 -0.37490412191132205
Ni 8.046309267319517 8.73622606232228 2.625577758637045 -0.624393431159544 -0.5020063495791742 -0.6206992701374086
P 8.487549584106665 1.557547820285612 3.4328409508974316 0.2682442212582219 1.1252625818104813 0.8085312115851495
P 1.7896954863381933 3.3665949966466435 1.6586449701328771 -0.25416743145018167 -0.7970962302753304 -1.0405115654153305
P 4.832993815426937 1.205495921023983 8.201811714928455 -0.44691789324546255 -1.6712227112627864 0.9497271983419063
P 8.490472306520994 1.7588707493224534 12.395883887738327 -0.42164703449381574 -0.8673074011830935 0.39112109799081674
P 6.301362294964714 7.764756700331519 1.455732697323522 0.3133393138246474 0.21946576630293815 -0.4455986602134068
P 1.9576249502746499 3.2703357693050874 5.941618734293446 -1.268851494279447 -0.8498190145903428 0.47995245510292817
P 7.163029877309006 3.9416724003881747 5.9378055799882885 -1.3546312090494284 0.7671374791297111 -0.11829645645076402
P 2.379540807372012 8.82812843637539 10.302387744630252 -0.036188534105415095 -2.1587033564219595 -0.32913694297853635
