# total energy = -340897.3342338291 ev
CRYSTAL
PRIMVEC
9.01771929930019 0.00000000000000 0.00000000000000
0.00000000000000 9.01771929930019 0.00000000000000
0.00000000000000 0.00000000000000 13.19834371956914
PRIMCOORD
 96 1
Ni 6.420670312777315 1.9107555440601236 11.259849971393564 -0.4367450664775188 -0.32659643594486976 0.17427734269175793
Ni 4.7628257267598935 0.5366625164029566 6.008783274273148 -0.9799489733409253 -1.1694215357158828 0.3649588377731521
Ni 2.7618388824724542 1.5328860484149915 4.802798571504808 0.04772815931389845 -0.1242462462762957 0.3925231205446659
Ni 3.296030543762251 4.568710299147142 5.105700158763995 0.13543851544768934 -0.6337545606594698 -0.584234342442155
Ni 5.054332523796491 4.54862783806317 2.755629280899745 -0.0969652990731556 -0.142755875044709 -0.3035758066799804
Ni 7.235682773625258 6.087122907939423 2.6291629806151247 0.4147855314872921 -0.008358399267024315 -0.17929587895227184
Ni 5.065496460402668 4.550918338788508 11.408014708077042 -0.1478829118586292 -0.9435136133320267 0.38346692387966863
Ni 5.622854642808193 7.817019071891709 12.333086630549444 -0.07795147697481414 -0.28793758592209123 0.41734429335340384
Ni 1.6748339693502474 6.414944060963967 0.2765743554968799 1.1183900230603643 0.10484907269660652 -0.16770148924645312
Ni 2.6924024431610087 1.6823186764448579 0.2987534363392827 0.40185313969634023 -0.8214800584363336 0.6805805198740731
Ni 0.7264746883222764 0.09595123963708797 4.74966165999277 -0.8200587526087748 -0.6279153282698734 -0.3546132328727699
Ni 8.59205598267892 2.2647912073545866 1.2108686995905573 0.2625330298060575 0.05475241315053152 1.1503421504869284
Ni 6.74957359212879 0.785797755336607 4.766463474762261 0.592771947599521 -0.5761996450631367 0.11555514626020098
Ni 0.6971689038450898 7.1179744824132705 2.2891210142717657 -0.08438103465024177 1.3951525662022426 0.5856196528254559
Ni 7.705920768993395 3.889062824078954 3.6185763309430037 0.23688653288254688 -0.16710962129872511 0.889498592568152
Ni 7.499270711427019 3.5964558652766425 12.649042268399183 -0.12992504182862785 0.8767222667390902 -0.28271207585709374
Ni 7.83840910228739 8.924809828210394 6.943423898791443 0.1413178570466018 -0.49951212240241066 -0.7691532240081592
Ni 6.888094779695429 0.5849172346366551 0.4120141883475811 -0.4367185841149576 0.48981623527088547 -0.9297677245008439
Ni 2.0300058652879884 6.46133120951177 9.327731450095932 0.533095871895127 -0.02165640192751109 -1.412717571669199
Ni 0.02162539287178939 4.824146218619352 1.3952765522787927 -0.2783741106033722 -0.7622181874512228 0.02428098403455173
Ni 6.25530337458338 2.2527074633705166 6.970084786171221 0.9219109474605864 -0.47233736175983165 0.11467454342746057
Ni 3.269283988048257 4.24879768602859 0.47447902879776993 -0.11806300028371926 0.5077108561631192 -0.30206888311715074
Ni 5.9759524632859815 5.7423033538626616 4.7781170735313765 0.027557597903294477 0.10034527128898202 -0.30147881494163564
Ni 5.342060896408219 2.9583620411626286 9.083786810443796 0.34310934599822845 -0.10716203710049932 0.8133476591371863
P 0.07729177467303033 5.332808716312952 12.37887229721386 0.22818591978475541 0.07340808057850584 -0.6352272885502545
P 3.908892789019976 6.119938388803624 12.723995748434103 0.42609915672789844 -0.7418452802218256 -0.573994666992018
P 2.457400675829024 8.426211105357257 1.3808238534106816 -1.1104967363552165 0.7426880878380951 0.34077966942378735
P 6.347852228694207 7.773409380916363 5.7085870028312895 -0.20729082150330105 -0.16928991677949556 0.04494751124496776
P 4.795641207624095 0.8571062731936446 12.599626969679852 0.14901496858054336 1.552217658780772 0.33028056966467634
P 4.034996576985074 6.143501689572561 8.206532246814625 -0.3266679126127535 0.5586667783856959 -0.42209157823040216
P 4.6502124470038755 1.227771512817229 3.781061206019543 0.5205180352301164 -1.0659351476947578 -0.09626955855771162
P 0.3047177559445542 5.526662630063362 3.6758577862871897 -1.010132438902841 -0.40664978975403515 -0.35275252551494735
Ni 1.5471069918947513 1.192845885615511 2.542621731162646 -0.6883545073925371 -0.5068605923476819 -0.0746694637894327
Ni 1.7300584829013246 6.533148326742466 4.930043100972881 0.9859674116208631 0.6313806611106546 -0.41053369818947366
Ni 6.0286971040045065 5.574285206167745 9.152853523260209 -0.5634829688274168 0.03322250949855569 -0.015571886296328023
Ni 8.644061170407374 2.3439397304502436 10.068620962864875 0.310327266471201 0.5128654037808651 0.4959385461185395
Ni 2.1479846880817086 5.339103084447939 7.130946471757364 0.6096517540739952 -0.386170953074393 -0.31227899088093314
Ni 0.5107942865576561 9.19320421044761 9.237125012741947 0.33815431598579826 -0.5681469499619893 -0.617065272929247
Ni 1.4571101523716048 1.022934016848464 11.386950217351378 0.12287610540164645 0.01062842624812363 0.07531275380038642
Ni 4.143777325999876 6.870636474954265 1.5673427542083727 0.0010994037117658484 0.2903816765872096 -0.13548736640775375
Ni 5.677177384420159 7.740693094965464 7.899063184683847 -0.5368702513358947 0.597852704556538 -0.061904193703964355
Ni 5.181067552118966 3.0705424703878736 4.879322036485718 -0.2958714960571872 -0.3516646917674073 -0.5034235416416749
Ni 0.8453147033178463 7.567120032125632 7.035218871561175 -0.1449361705254794 0.2630793892278308 -0.0262987857955289
Ni 5.116275238293936 4.605241080400476 6.933882249903724 -0.5611774606226916 -0.3564567138394119 0.45158238860066746
Ni 7.986939958378146 7.326031304204657 9.00647068792841 0.3932558849456324 -0.2167152001409945 0.17039549113884847
Ni 4.583959262637487 0.2058059990313691 10.387175507443128 -0.8937661095952544 0.3876547367087711 -0.3534099565932881
Ni 8.254667029380421 7.138453723150451 4.804988975544906 -0.3096649502968538 0.3602742878132892 0.04821589758359438
Ni 7.2286940410971585 5.903368839907043 7.037040450878176 -0.17216003923843898 1.7689824812127792 -1.0912072919979852
Ni 2.2709412919793146 5.2639674464813195 2.626985201382175 0.21788145253495378 -0.5296449372320491 0.06768377650021891
Ni 2.4309517048549374 5.112343512639417 11.430267734218452 -0.4965980340794092 -0.37531421286554717 0.11212092376767141
Ni 1.064370437450554 3.316473713621867 3.9453541338339977 0.23807772497717067 0.028422002786118797 -0.6793489614598172
Ni 3.3541497452378697 2.7885042787119283 2.878835675624484 0.7538297062772115 0.9076338687162819 -0.6602832030776177
Ni 1.2162288319966252 3.275370948637248 8.27540147157637 -0.43513452745728937 0.31435207135987797 -0.9581655589172468
Ni 3.6065016046783245 2.6236152796457217 7.159349582523501 0.1463137675992964 0.4546240036404686 -0.41767596566120974
Ni 4.105280681919283 6.77111692375412 6.030296847424487 -0.13996417123218477 0.9438087759749424 -0.07772084902124679
Ni 0.8320063530404656 7.157066295973675 11.124052135083035 -1.5922715893788641 0.16474214950781307 1.5228410053908676
P 0.21423756666204466 5.750410283595258 8.063647384834633 0.07000496843422782 -0.5836900399029109 0.18083982640062407
P 8.524017289873093 1.725711942154816 7.870066707981775 0.07193612401866965 0.4476311172624033 0.5137002409773346
P 1.9592257857872692 3.218685564544813 10.338262495693881 -0.9908689626875387 0.06291695123919487 1.0908838472202955
P 3.9289842678233398 6.205814130565041 3.7323069061315777 0.43902640631252776 0.12804556541772785 0.4592872134440929
P 6.994810470969669 3.9245926384798757 10.339371675178985 -0.5802185364145427 0.10197200825912761 -0.018012120306704463
P 6.176073692013203 7.81514338625836 10.135945452294926 0.9422190628903191 -1.2493658747510097 -0.17126503822799538
P 2.5595263479331964 8.466177637698598 5.802665262150847 -0.14166804129716892 0.11512191537752434 -0.030602555377205357
P 6.855171086198535 3.7806518015591872 1.632146791068612 0.09456440294114682 1.0657644264448483 -0.9320608914103949
Ni 5.046721568630405 2.887203217447483 0.7675513019206616 0.8422082921226204 -1.0634105815006913 -0.6707398796345674
Ni 1.470835121284854 1.1063389034967188 6.849122000030987 -0.5824847067409001 0.38719682323574606 1.2065294963117736
Ni 6.996947670465359 0.7584722620377053 9.08290217217153 -1.5484448220019011 -0.26180283650825237 0.41167346822087164
Ni 2.6717067771584415 1.5831508163009655 9.190692775597189 0.8001100774009897 -0.9845242514164334 0.245966383696628
Ni 6.418920875215441 1.9823382005866503 2.7477631242748917 0.20489275358476972 -0.36722577943045787 -0.9785654627298372
Ni 4.229761280393984 6.683401567236922 10.60204521623449 -0.1751638590617693 0.628156497746402 -0.8264104058584154
Ni 8.258725003106415 7.083941609431271 0.07230948470944933 -0.4598549130221048 0.18392000798784455 0.45573472020614414
Ni 7.800913425059209 3.992838738831696 8.181112197623062 0.041479093080393076 -1.4595054785570154 0.24960629444206045
Ni 3.1655802150506434 8.226495674002635 12.518298863807365 -0.25044704517580096 0.42227155545169215 -0.27102024134146224
Ni 0.2186905164973683 4.819267632428768 10.169112624215382 -0.3456022876234113 -0.04922248447123781 0.1557656570408156
Ni 8.526542251302601 2.3687835473727157 5.726681958561464 0.20796265075934509 -0.08758077253446207 -0.0027752487522919944
Ni 3.692936445041988 2.3690901498320125 11.3977462310064 0.5890726443710629 0.8543418421613608 -0.10300636306091292
Ni 0.9642647344899877 3.217666562253619 12.485686281629464 0.41556560418642624 0.7130083013854752 -0.238930302785453
Ni 3.113566009602797 8.60365276981587 7.9319535126189935 0.5061594525155992 -1.3106326919812912 0.5122195426667501
Ni 5.6721545147193195 7.853838420165556 3.3929773396201157 -0.43451412026447106 0.31887284204836697 0.5190100832260224
Ni 3.1052877432017696 8.340641966055138 3.5146795787504197 0.2392000115070719 -0.10578006915130815 0.23255448116609626
Ni 3.4700364571328555 4.368246397083059 9.25353004785823 0.28859090323537395 -0.34647903380140976 -0.028835179064137437
Ni 7.072083308431979 6.006991453430136 11.301649806087115 0.9271374859668484 -0.21420606056589558 0.18717451036940025
Ni 0.5090286171008794 9.087336184796133 0.43709877837779526 0.4108854251019375 -0.1816173279965969 -0.17622675310864488
Ni 4.6763999041156215 0.4854445755773438 1.6568805918145129 -0.7163597343562115 -0.42802902676075966 -0.15967861894197663
Ni 6.049888744573584 5.501476139804029 0.41753122907105417 -0.5128201523652265 -0.11568370141826528 -0.14612453440662576
Ni 7.817596205932738 8.61286887903357 11.317104373579577 0.6917596764193441 0.5536778098115368 0.03482045011329487
Ni 0.03105522203905938 4.842109515646417 5.822542119232702 0.3860035742585933 -0.4808703389315074 -0.0007335357319148657
Ni 7.823313440026694 8.677273430924785 2.417276333398339 0.859322583205404 0.39930414802224135 1.0582174673355258
P 8.51567589943633 1.4907732988585691 3.5572702674345704 -0.0810170032740153 0.5479139107445661 -0.2647858303959762
P 1.6770974169174127 3.272891075804696 1.5658115454557644 -0.3809752678060665 -0.4999998606721066 -0.069417471361874
P 4.794234443399083 0.9897578272086185 8.264526101990707 0.28747118780863395 0.5283375312745353 -0.3991285416763255
P 8.496423068536338 1.5503533708755461 12.212704585537997 -0.6309965382983583 -0.5234434364070275 0.6418483934111978
P 6.437939245411265 7.550121631073415 1.1723179491936182 -0.5614394560348266 0.1921791626728432 1.2139669264264255
P 1.7725409589527819 3.16695090839809 6.014208334258832 0.08597614705150354 0.6477238783553684 0.32641902982674104
P 6.926816866760799 3.998691238716518 5.769603597547269 0.4084266791487999 0.43682219957235735 0.712345985211128
P 2.355148755653377 8.378813972237651 10.2911449118754 1.0561233038106586 0.8185253466833838 -0.6241139522459123
