# total energy = -340875.178756515 ev
CRYSTAL
PRIMVEC
9.19746969337292 0.00000000000000 0.00000000000000

0.00000000000000 9.19746969337292 0.00000000000000

0.00000000000000 0.00000000000000 13.46142659073456

PRIMCOORD
 96 1
Ni 0.9745455025310437 4.044927640401103 2.4283877105378155 -0.05914411446032395 2.286538348490778 1.1808922553596437
Ni 3.3378629538972384 1.675300724768536 11.702206602949 0.0970275197696587 -0.3912211139037908 0.45630164845320764
Ni 2.0528292666661914 8.067652588762815 5.517151911502296 0.44918740600592966 0.15155444717294544 0.05455572375869314
Ni 0.9659366708206579 2.6301084571601696 11.918787701488522 -1.9692896723093953 -0.6598085774340443 1.4405950148057578
Ni 5.207938496113252 8.650174337029142 0.6170095006855952 -0.16094334458701315 -1.5869396356429895 -0.052245844678593896
Ni 0.572586641414236 7.035760862178078 7.324927472443235 0.0841959152226292 -0.23269769161217987 -0.2167249703330074
Ni 6.7978958988297915 3.6477165131826945 9.265418843264714 0.05162080950008529 0.3853888234927298 2.7105119742352413
Ni 1.0765822322265777 8.633913210465082 9.5848322526354 -1.3107440207481749 -1.1853610897642746 -0.3584619171948987
Ni 4.168385277205065 1.1250161080672738 1.683862649383064 -1.1901464269680597 1.8673611156936938 1.0142086658547436
Ni 6.197641428835233 1.4931172434444746 6.2166884689944615 -0.09613508986237639 -0.8312520502214329 0.25875402237959955
Ni 7.58730553223866 7.824407105595536 3.520715091274019 0.24983923638847297 0.6166621239535572 -0.31075946891261313
Ni 6.80220951215476 8.314006816714398 10.063749102609377 0.728063653056701 1.3468538790968545 1.3712608471863095
Ni 2.796674634804493 7.656544084712789 8.215037443189178 -2.1006689300860466 -1.245628004975132 -1.3188579081045608
Ni 6.264764563260868 8.416622987005825 5.481694745768633 0.6586937471033107 -0.8387686703134521 -0.028715108546505386
Ni 7.3390750204527615 2.456359055620749 11.684773718735467 -0.24236735349146 1.1977990584173113 -1.271896451753358
Ni 5.721083729858813 1.4546350299014679 9.814995254793219 -0.6738100339194589 -0.3058879997529248 0.34306923678891244
Ni 1.6861261466949506 5.746229612226542 5.294338607442519 -0.8385940924088009 0.4828297766507233 -1.3423552198955528
Ni 1.9076747986605198 3.0207249985491487 0.6583861579671259 1.1881666775338697 0.1261771447504214 -0.2664279939850896
Ni 3.17797413931033 8.376834732754618 10.631781156990511 0.8570774959249691 0.2749789688788941 1.0524522827169744
Ni 4.123915510837849 4.942646677892775 1.6255074628949393 -1.1332486853397516 0.7707948733766402 -0.07541354104430883
Ni 8.73808375314866 0.3169346912660392 11.365549777242169 -0.6345158643055266 0.021577469060459615 0.03437127839101822
Ni 3.776168376075053 4.783392488720414 12.183317969211542 0.010624569593381702 0.5408168946884686 -0.24573549863274452
Ni 1.9385139148196262 4.1370311027385 10.562252884218436 1.048778176299497 0.22226955430032044 -0.7659082347083003
Ni 0.715943004078689 8.225536354938543 2.2991172728353884 0.17366336325684284 0.16729062696127964 0.559834830551868
P 7.280717074723703 1.5091484332641352 3.8863816564014986 1.3451705778571608 -0.0595385216852652 0.1019036169150374
P 2.093242948862169 0.6672764322526588 2.0180159238168525 0.9785958017471407 -0.38334093982476564 -0.5555009790632047
P 8.363424821821132 7.013935266399504 5.74607693422826 -1.1584282699291728 0.9171166113957366 -1.853713443003272
P 2.0450666021752024 6.167694467244403 2.877164452055667 -0.12948435474678344 -0.27643267060628524 0.6812875732434267
P 4.045470291117891 1.84445139141993 6.191650197023111 -0.8804799340093094 0.8093945880267093 -0.3256777807853423
P 5.180033372812708 4.2145381805413 3.396493144731667 3.4597352920886935 0.23342659935840443 0.037440404234645196
P 4.1575230653995465 6.663152966610612 0.3157206252556002 -0.18324817873180055 1.4654961489228115 -0.03277642310007258
P 4.248899927624635 7.873181287817945 4.512687959536728 0.4017826914697209 0.8220279605200037 0.33085598255217213
Ni 7.42909985462077 5.020733196291466 2.036633442137539 -0.4150884074396916 1.647580646363814 0.4931689537932022
Ni 0.3667730207415386 8.024626825150436 13.333880049581804 -0.6200629221049901 1.147801643453262 -1.9017460209314665
Ni 4.141188359077276 8.90593757656163 6.552268270990515 0.26551782346599434 0.12840294875714658 0.1613935447505543
Ni 7.1604325649924805 8.641032052071747 13.075608660041388 0.6838941576283384 0.6645481490015588 -1.301498590890507
Ni 8.22791849961054 3.7025886178666276 3.8133666228373224 -0.4828593443370781 -0.6630383972252517 -1.2860087227850239
Ni 4.806036659309057 7.748095698863623 8.941739647411895 2.5617965391729878 -0.8094835481960898 -0.05374531204225582
Ni 7.467057812386542 0.3770088848553082 1.854957661145116 1.359938737305271 0.13624378495780404 -0.12570149066558353
Ni 5.078244974801128 6.991530230025039 11.709435814192975 -0.3204013628777514 -0.19055782501933632 -0.11582202676834247
Ni 8.7408337966117 3.8742685887064363 0.6003961110291104 -0.2639319670361132 -1.017114269537313 -1.6471458728192407
Ni 6.632985265745158 5.850869225868699 4.419318925358147 0.1420555065435747 -0.5175584383811603 -0.04463743620371667
Ni 8.311955780954339 9.442766294980526 6.671725008441894 0.2323588202155224 -1.1208886211125018 0.9921406303111105
Ni 5.379857601167239 4.291199091124703 5.7226546576965625 0.6787974598317212 -1.5387448211053176 -0.2344982351560284
Ni 3.226591964546547 3.5492024144113885 3.1489506036850163 -1.4261166186839245 -1.827752757273452 0.8826810554256863
Ni 8.491131689661632 5.13896667026263 8.216370156559728 -0.9335639583184825 0.9792059245273136 0.43105495807127703
Ni 3.578993019016025 5.24821421626259 7.967562963418871 0.24929827628333842 0.19486570836607084 0.9554802987755996
Ni 5.242760116685391 2.155537411655377 4.103877903183738 -1.4984677187528257 1.3568832383083986 0.6106912510821031
Ni 9.124681000245504 6.168393474947383 3.570037442695082 0.5556902122558752 -0.6948195462915905 0.49617945848475187
Ni 5.727135664971455 6.744863288101068 2.3502165754171847 -0.06661908268113043 0.5270154700290021 -0.6312089114194808
Ni 5.020503259547065 3.086284563112856 7.78777174398356 -0.7605037758632773 -0.19540461158867636 0.802446181733334
Ni 4.983087952498081 6.492530704795049 6.26201360005085 -0.47906619584323307 1.4399607236558685 0.8303300526277959
Ni 0.1965609660779879 9.142662053657686 4.545264477736532 -0.6984450588593197 0.19896096148136702 -0.23852355426533758
Ni 0.521507573265947 1.1251448726441386 0.49773211389484956 -0.7994516178813844 -0.23342377114492702 -1.1301584764502022
Ni 3.541255800524879 7.939062763823815 2.326134840302544 -1.0049681210930823 -0.4473459819218167 0.5797631940446789
Ni 1.11812720320501 6.06400219298918 9.548661363247113 0.20718823448716578 1.1257125248637063 -1.6164592423686612
P 1.144735483267132 4.721521109536904 12.689279059315028 0.23396730235322283 0.28598586151235905 0.6157038738053461
P 6.447932173850967 0.20487088002065196 8.108733087517555 -0.1339894417059886 -0.3211194719906986 -0.29757870855628105
P 8.755007097536597 7.228282299530425 10.693919262797527 -0.48282489155471686 0.8647054447838721 -0.2654409474814719
P 5.834736863881501 5.3413753876242325 7.860584433212663 1.3101647512059371 -0.6579386141048411 0.9431513448966015
P 3.6734786260254193 2.898499822695178 9.981769295254482 0.9994255940082981 -0.6550479228206073 -1.021165556788551
P 7.507830195903785 1.7214996154536513 0.135920208350514 0.8493621295585823 0.13818239674141364 0.9598295768832307
P 5.073986546294814 9.155667275921026 11.72124076665054 0.2942601857060093 0.8587818802105855 -0.45441625850503675
P 3.2208251509969616 6.160860747200795 10.079485973396205 0.7209802638473584 0.4737866926118485 0.08294558775529587
Ni 2.9474487568433325 0.6864632739524833 4.082083578802403 0.5142777107473595 0.2175873183333027 -0.1165535056177283
Ni 8.577735065072948 4.824652338135788 5.708721410732819 0.4470081389664238 0.7433308636284166 1.3840518283033905
Ni 3.520984577138458 0.5927704888377847 8.774723713495522 0.18435992373874058 1.3371387086916195 -0.09267618477949845
Ni 5.687660124692635 0.1028194343734762 3.22845353242922 -1.4003533936768915 -1.5985929036112017 0.23640779347391538
Ni 1.519826695674133 1.5042185894641706 6.055017184764953 0.7149530838166719 0.7654163826735463 -0.2334101442981722
Ni 1.5082010938772017 1.6083523422686448 9.911204467638646 0.1832301810096715 1.2678101974991263 -0.3613464378315454
Ni 8.311689054330833 1.0707786287978882 9.074388315763066 -0.34113139633625117 0.6332339122693094 -0.10861753860010324
Ni 2.9700837299621994 3.9358088589780085 5.913362354009069 1.245741647734861 -2.077075201926507 -1.4231356816787297
Ni 0.8955098052514634 6.232564221574906 1.0279791229420023 0.02543515224365297 -2.5607732401147962 -0.06311055530723969
Ni 6.745148409664126 6.038065328220709 9.962411380616823 0.00588396958460277 -1.1191001617535115 -0.6017612955823249
Ni 0.4832580557082746 1.8292203814707861 2.779286818192864 -0.9115596861332494 -0.6775131938026591 1.1439401036153267
Ni 7.21645435339842 3.2833679454741236 7.16474985730536 0.4469909125752431 1.713135035225856 -0.15843986143886907
Ni 5.271511407205333 1.6993429107631393 13.16348496526971 1.6864572688243538 -0.3798169858319072 -0.6994945831697565
Ni 1.7970292372546 6.78867083664441 11.764681336149819 -0.22477200900719999 -1.1271184040722975 0.9155230416563717
Ni 2.918550306806974 8.644058019628067 13.361395200163846 -0.6589778540026328 -0.3261984291755027 0.08457695271113176
Ni 5.874249194039426 5.3414213749731125 0.13423523188754105 0.13042949226887215 -0.8581424468543737 0.018558222618161587
Ni 6.583456891001112 2.727721203893422 1.900268995996842 -0.48169283483280273 0.023553618950223953 0.38307843019199833
Ni 8.833231577981929 5.048840663927085 11.034546636206677 0.10789531572209805 -1.7576904532387276 0.11756652026327495
Ni 3.9391291455671635 5.703746499330952 4.305018289463224 -0.9608112240702097 0.9706145833138766 -0.9985627317873706
Ni 7.226286448589021 7.277028889343506 7.715928468068854 -0.8483177474544681 -0.08716142560885634 -0.4316496542324824
Ni 2.721485319385258 2.715626531137912 8.044347120097273 -0.6001741536008631 0.5991367134752843 -0.6111427367972249
Ni 7.5293338802401975 6.356628891384087 12.38242571467052 0.48823372127511394 0.7662424781192675 0.5280693652148131
Ni 8.45119627589401 2.353549738464026 5.672766661884272 1.2745850543291146 -1.3576450561750877 -1.4490377462564723
Ni 9.584499304229505 3.1999376971355447 7.939374558049223 0.1289721909970553 -1.727017192524587 -0.38761591305103565
P 8.833939783154685 3.081161572447594 10.047999355364862 0.5742546055216239 -0.7971733633701691 -0.5667295007891724
P 1.2952336812126903 -0.06819647914850158 7.395007593401873 0.032201267322892926 -0.5675609955515323 1.2581667608720912
P 6.041873080707996 4.5839085667475965 11.544089221040958 0.7984820548792636 0.14914043841481414 -0.6422641407923778
P 1.6194536882883412 4.832985245752893 7.202172522330164 -2.110252974230056 0.9050555664661445 1.9535514356385326
P 1.559412605590266 0.270451598764844 11.854671219932676 0.6201449402958352 0.2675070859818812 0.03394061861150283
P 7.946816230845027 7.325987020961437 1.260351357340031 -0.5126062365822075 -0.9300320339058242 0.6580882523088278
P 1.4215425336472287 3.043783055277714 4.4435901283501735 -0.7765415460524303 0.30227611403195037 -0.16669593080007422
P 3.9997036815122495 3.257541450342966 0.28868834183680225 0.23834460548531206 -0.7004304647204647 0.3183953881913162
