# total energy = -381164.55667649384 ev
CRYSTAL
PRIMVEC
9.28669356693753 0.00000000000000 0.00000000000000

0.00000000000000 9.28669356693753 0.00000000000000

0.00000000000000 0.00000000000000 13.59201474858257

PRIMCOORD
 96 1
Ni 0.6720092716353402 6.436737130786583 3.1574794321890636 -0.06166482399964863 -0.08950215792689102 0.8490098884254862
Ni 7.950663157093885 8.095591292527676 3.944430106635118 2.635518551447487 1.2260138302886303 1.445975819501697
Ni 0.9732733165364229 1.8492592342003369 12.138933040691162 0.6196340620976877 1.005801415627655 2.2198189927863576
Ni 7.1457854499269935 7.113857798406978 2.118681993828971 1.6437620439486722 -2.1373228338636547 -2.309926645507731
Ni 3.3834766853392955 7.56417884257716 4.969933643555157 -0.8473669535054245 -0.005110067533055715 -0.6613147296659255
Ni 8.32409038084937 8.975161873800294 0.5140463335041995 -0.345375773434902 -0.98501327523771 1.039238869350494
Ni 5.300352333360818 3.0627885927595435 13.071670869700036 0.9901811925918946 -3.4667196938263265 2.167979896627879
Ni 5.70625512354024 1.7318104242021868 3.0783465900229183 -0.10721757292878309 0.3006133816175468 0.1511088749950946
Ni 1.0463503060102464 8.998452900563585 7.827178925128645 -1.0553866827549503 3.2117480213072946 -1.6700094076809753
Ni 4.736334303280352 7.0233961191002665 1.5803704594356935 0.5980576214784926 0.5408372064034428 -0.21810745250283084
Ni 5.432111937713926 4.156788922024357 11.29399903937032 -0.5341703359062284 1.1661989150135272 -0.6785853438209152
Ni 2.9009215287706325 3.3877485642512233 11.684266752732087 -0.0070918738497748835 -1.006515410975544 -0.49009494285356886
Ni 8.61281367513596 1.9776570555836235 0.47446366070787505 0.09635980427867276 0.36139374612971303 -2.669264023329048
Ni 3.6054007948139377 2.067338652654244 7.558641187370242 2.059619211233588 -1.4523680961812857 -0.23938153139025867
Ni 2.6514345136207704 9.077946995098587 11.468982628957505 -2.2843799073868785 1.4893382456477318 0.938461652730416
Ni 3.2626475189847506 1.7757550568353206 4.010323838851602 -0.6302444906236824 -0.6606750391993977 -0.8211003064994118
Ni 5.917295228482753 1.646159252018037 7.808911070764182 0.29135561046470465 0.16827613080300052 -0.4211760083946682
Ni 0.6321805014669156 6.237407546078724 9.951828548063714 -0.39367548898155424 -0.5119130671699248 -0.7837786872308179
Ni 4.720416910986777 8.284844815019357 11.489288912498422 3.509717023323459 0.5532034412782795 0.25804954011340725
Ni 6.070813555206833 0.891351680376252 0.6454614015363671 -0.5833097737453568 1.8896330397180168 1.5497393724436084
Ni 1.5012311165842478 3.4842187341144943 0.31796523410806254 0.30762066617331535 0.35647522578217317 0.34467643337503223
Ni 7.898128333170462 5.953652632700572 5.094300111382644 0.30549693496209324 0.7245186160179199 0.07032712766033694
Ni 3.6344402847217587 2.3331052411358653 1.3633060765580338 -0.4873711161645025 0.47033807194161575 -0.2790742219941903
Ni 6.476214863948767 6.024472955705703 7.143337477576593 1.224027138875905 -0.9871316071322935 0.22534459368121834
P 6.031372968817796 5.636103442451759 3.1041171638937866 -0.9733584646076011 -0.8162506917165943 1.0017863809309908
Ni 1.6408101166848408 0.4615783737724411 0.589534148555276 1.2503362090840788 -0.9083568629252357 -1.3119688942942114
P 2.651592387406646 5.869245877416853 6.442043547330661 -1.5457906722085055 -1.113656622140437 -0.2925455170077478
Ni 4.156733201864636 9.3617297685566 1.752853142520745 -0.8765345762083162 -0.14043416889006782 -0.5776268644279665
P 4.592975619012032 0.010081634232149278 4.562390823341287 0.3989511355581968 1.224993359443916 -0.6890091102574004
P 2.2448259347515513 0.8742121592461353 6.391128322716455 -0.833185776909036 0.10457679287182634 -0.8631609831148876
P 9.015085368240243 4.109816827379727 3.5617737670912124 0.7167747104064429 -0.43959307744927517 -1.847277200459625
Ni 4.627568551505359 3.757117503040377 2.9994719179301463 0.35137338577923355 0.770988220334369 0.44191298383170347
Ni 3.528934162290432 7.433422201099027 13.231757674585868 -0.7917442219347978 -0.2700681618408381 0.5878120324910844
Ni 8.368350761054256 3.60394278396791 6.266870509200424 0.8207586068892768 0.18413238110896674 -0.053442693200172475
Ni 0.8223496919166762 7.024157627949784 0.8666537195800094 1.506930247697882 4.032108107206572 -1.6430166811422156
Ni 7.321043925635469 1.8194396620564246 10.329020597277667 0.39268741403667207 1.1643279232430594 -0.10169715733118614
Ni 0.1122231876856683 5.693448773497743 7.327060774215987 0.5500582107810785 1.362700616321124 -1.2991300906583303
Ni 6.618310557930083 0.8444984554056923 5.376742814999371 -1.0887284914401893 -1.37686868029139 0.8458898547392658
Ni 7.24128051699515 0.6798175233508811 12.399722890240389 0.37241477983056503 0.6062095611616657 -1.499374289727495
Ni 0.7788173884654759 4.838432209275423 5.18046019435891 1.67892830743716 1.4272440474201484 0.31420140471462665
Ni 7.895435192117291 6.632677072444761 9.032926963382842 -1.4029859462037322 -0.0509554080019445 -0.30023105857746357
Ni 0.814782894226592 3.8189947404103206 10.459571074164833 -0.06271409119976941 -0.32879035827239506 2.920066652072055
Ni 3.520548278252453 5.965669613813691 3.1177769610493393 -0.6618850003470989 -0.23907865543785922 0.8878222333069935
Ni 4.4532294584322765 4.308050582279743 7.522255923072563 -0.5162885705298011 0.32186534901778757 -1.0667928677093628
Ni 2.369926980018024 4.8156705240294775 8.81640585206246 0.3976524713514313 0.4199333942368187 -0.1263892607612275
Ni 8.995239704686353 2.331266475865079 8.117137349622379 1.3314012919872102 -0.06545591561096469 2.218803664147966
Ni 3.1401281744520078 4.274321312262088 4.972678790090735 -1.9687281433789705 -1.112101361838175 -0.18584756402786057
Ni 0.46559672595763907 0.9900450846123824 10.313226718004808 -0.9004365796368945 -1.639685302776137 -2.3129582332452037
Ni 7.075150860787598 3.8862118264201735 4.281824031768494 -2.2045335273821967 -0.9501797124982927 -0.9377085766144754
Ni 0.35723308800196457 8.579093691811591 12.341630909054144 0.41363470571230054 -0.394572803984843 -1.5017301915541814
Ni 5.492094689653362 7.403751216047704 8.896095895825813 0.3066328483387493 2.5619135243668265 1.017098585808029
Ni 8.091440140628476 1.6019267318930124 3.9666392336304988 1.0941563473239801 0.7657231152806877 -1.4652326108487799
Ni 2.2575579912477535 7.316929920509417 8.092128284601028 1.2682069187169125 -2.738531342266303 -0.6677442873413533
Ni 7.433004299901121 4.549188860164773 12.974705719084579 -1.113678733627624 -0.2695058615794648 1.68726176700352
Ni 6.244056818472072 8.073368235492364 13.576478800722528 -0.7523880887346784 -1.6574768224316037 -0.6352689404214672
Ni 3.8848373958137272 4.673268369169698 13.401536072585804 -2.417218523317876 2.302788234690737 -0.02521635136462754
P 1.1115707529634375 8.25538742391363 9.770048956329246 0.3937143126392897 1.0450035397484132 2.0627508148840348
Ni 8.497407937660904 6.336710157394469 12.196264441697219 4.207374553284477 1.1078161041992596 0.617994983832368
P 7.681971260226923 7.851555566337163 6.520959080873894 1.2112377004207204 0.14508323762630496 0.3040010671428571
Ni 6.059994557527711 8.776203756823906 2.9267413221159204 -1.3340325589624702 0.9645573213762034 0.4953525917080824
P 8.377693174500775 3.050520870927682 11.968135892437665 1.2965713287922185 -2.5226602352931584 0.3505840571087188
P 3.667296605570455 1.176419732185157 13.089776206931981 0.061839916124932205 -0.15846274425700452 0.18272213102500143
P 2.4111691849046997 5.625312304852498 1.2320916011008611 0.04752401372289235 -0.30546428195194486 -0.22165660330666986
Ni 2.097631846155783 3.936313536702456 2.7224127104117772 -0.7244350551651781 -0.15460943194918533 0.23032919138000332
Ni 4.4263351946737055 9.109698199446154 6.862920201765718 -0.1334428251738992 1.086298027621826 -0.7025094587366805
Ni 3.2687581631674645 7.3446599866638 10.166324231578244 -0.13123347622740625 -1.961066770178971 -1.1541628097845993
Ni 7.372092878633005 8.285624897255449 10.703548294187637 0.3174584781993436 0.8749798301266867 -0.022660417711993234
Ni 4.8746317397073655 2.526909243338079 5.501585690192472 0.28648825507007436 0.2011625971183761 -0.18489445608597188
Ni 4.371738724840612 1.4208733595735739 10.973635052386278 0.8836233647342976 -1.4347930634119999 2.05039306464963
Ni 1.7932419002943636 6.296340901676753 11.752688322861239 -0.6000378851333149 0.7781618552646727 3.0464515419579077
Ni 0.9919117099630291 2.511966953839619 4.746616530087496 -0.016057310573178798 0.3424295463223844 -0.7380765572080127
Ni 0.7515163675409434 1.8229593188121214 2.0895821404147856 0.5910896748010916 0.8682067730689111 2.916443967717803
Ni 1.9753818157283578 3.151615814047778 6.8115016383753675 -2.617023320856777 1.566899686272979 -0.5487065818491905
Ni 5.507714907761759 5.242254780158602 9.327887200880845 -0.21180619287515137 0.039130133232242285 0.4230616554531553
Ni 6.536355489674079 6.456954262071945 11.707141735636132 -4.123781047532536 -0.4825418130966593 -0.7219431419812599
Ni 8.124324321557031 9.41624265815011 8.488049736835798 -0.26121816764937594 -0.9044094482417134 -0.7194630558718835
Ni 8.943912150890213 1.133895963624903 6.317160739356427 -0.722055499189408 -0.7389083090806888 -0.6543280139354474
Ni 7.708373329241293 4.504594159001563 10.610252316089795 0.3129773024995384 1.5872579382143566 0.9294057131757348
Ni 4.483262624521785 2.8964824893795424 9.507573571948466 0.24229484838231177 1.8552504484730887 -1.2008509578697575
Ni 5.734635258224699 4.908946071402089 1.0315213141698854 0.8080938669374148 0.6869293449102363 0.5640396126618351
Ni 2.019177861268903 2.456915436035473 9.180685682930449 0.6941420606085916 -1.079991625787824 -0.017546236413879458
Ni 4.381647626577628 6.8565606742029175 6.982312716668795 -0.09916050695226149 -0.8219533985283264 0.9716273408491073
Ni 2.265758141419997 8.404280977380882 2.7951163748154713 -0.13638365296977803 -0.3520117906941808 0.279499482457067
Ni 1.0188245471081734 7.418953532958194 5.698561098152126 -0.7308034205853672 -0.893531624986945 0.06676203601689792
Ni 5.922263609391191 7.651938094137414 5.304039150595677 -0.14907950326989167 -0.15490639436431386 -0.6094486369242537
Ni 3.4177538702608716 0.22796324611904753 9.0238882248068 -0.04457135885247162 -0.29650398743486356 0.530130618619216
Ni 5.056010146291843 5.1502515097662815 5.29266202265002 2.563136341030334 1.2292968719152766 -1.017478337744951
Ni 9.117322574634617 5.270077713245852 1.1403567161445294 -1.9103754144716907 -3.839881122014928 0.6861600708443796
P 6.221926628369629 0.31464059791138843 9.371014604504742 -2.24564803803432 -1.9066180043117873 1.1137275845876884
Ni 7.140993516191005 3.163697802013904 1.488882600520791 -0.838574294914459 0.10561011923234716 1.5541220748923366
P 3.4820549345786698 5.365693507326738 11.123024515275045 1.9300993752631792 -0.9110611492302763 -0.7774062080455708
Ni 7.177471647421553 3.697125464407654 8.679656507406355 -2.3762186838667465 -0.6444038128431999 -1.8050234339967364
P 9.094291575283354 4.41451323411961 8.82639554803107 0.5589678545658825 0.31768833482196257 -0.4190283659240461
P 0.15929836462578245 8.91125085060054 2.24769738031583 0.785988293287627 -0.3770821033992473 2.129743735964816
P 6.33919899119533 3.513016769996858 6.687624579284095 -0.7763535984113403 0.8997711781387535 -1.004714096100747
Ni 0.746486694456813 0.19230141522840966 4.611824820376248 1.3048775346650687 -0.660733660351475 -1.5226088347754034
