# total energy = -381175.6692735459 ev
CRYSTAL
PRIMVEC
9.16465674745315 0.00000000000000 0.00000000000000
0.00000000000000 9.16465674745315 0.00000000000000
0.00000000000000 0.00000000000000 13.41340152759713
PRIMCOORD
 96 1
Ni 1.404456123194055 1.3521717575436862 4.7220132236840815 0.07519525438591566 -0.41076278348114426 -0.274078825662128
Ni 7.231124809561969 2.2871591840145515 3.969253078770138 -3.04294352880465 0.1400803850950749 -0.8039045114464155
Ni 0.2902694176922768 3.7127856638523142 7.623090755190422 0.497691267143588 1.5231266549520865 -0.5360025040189608
Ni 3.2364801333385596 2.8653756954278866 4.137967074235655 -0.01644297604737168 0.06288275556714977 1.224079589380395
Ni 4.965704190897579 3.9661151003654602 11.88679508443921 -1.2642037110947903 2.6400722322564403 0.9090706011628086
Ni 7.374194263053275 4.57575721910835 2.1310942475272365 -0.844970171138474 -0.1462057812665224 1.3213917302700082
Ni 4.218262296182918 5.203939438063458 9.712683771970745 -0.2394931172674585 0.8207982018779606 1.1902143040915178
Ni 5.303586748793776 7.208579754434903 5.715289698780621 0.1819939946097253 0.0138657022384987 0.5131446255841808
Ni 8.936924004964574 3.868667307208515 0.7996236162116053 0.5202624675758847 -0.7221570577642789 -1.197446560173899
Ni 0.3790465292818577 4.144239365182387 4.639507486575578 0.03139651203341044 0.8589698278516755 -0.8841093032317806
Ni 4.6245040273282125 4.495694779437602 7.597163025328641 1.173003082419554 -1.343201369945932 -1.0002666018523547
Ni 6.028529411664149 7.359320025463346 0.9078985346234754 0.41939500523484546 0.9568545534153069 1.074618791511685
Ni 1.1734334607375259 6.125271526266304 12.810937972807695 1.742992999127553 -0.42665065835599425 -0.7963539527926672
Ni 2.243297137738887 0.9928164093374434 7.00463865210052 -0.06434314216276016 -0.6054415726473895 -0.3926149089275239
Ni 7.045824618661915 8.121929426777719 7.343206726307083 -0.20957421822083905 -0.12358367299163231 1.2695649754067038
Ni 8.835095505973996 4.66283978570078 11.565852477720602 -0.23528550694401415 -0.0935254201536712 0.059811058620361506
Ni 2.3350445145181764 5.292689972149027 4.528377777646602 0.12138203735462322 -0.07676876952062263 -1.8422242114167497
Ni 1.2128048253008887 8.222291580719382 3.9527411170537015 1.4450587070040661 -0.3298362830384062 -0.10573481773566952
Ni 5.238077783733505 3.605412547645527 3.032407976415429 1.4518430769157513 1.4112101338857375 1.1776233548003847
Ni 3.8262441120120982 0.09447569503592604 1.1895779197260778 -1.3421117364261788 -0.5505636896625873 -0.09481997059537864
Ni 0.15402213454104557 8.858776978513971 6.05036970470208 -0.40068174509605836 2.4780917046541644 1.1863640771074921
Ni 3.1566926333644822 4.032183109475628 0.5745405676688364 0.4955094290009208 1.4815817416307646 0.3946213978345914
Ni 6.095559709712668 0.6715108822192288 10.060560387840953 0.4858508228652343 -0.3995239773425313 -1.0832286446678827
Ni 1.6066009528435181 1.032123621304916 9.214362903478845 1.6372162724103545 -1.0912314603677014 1.0853258935165437
P 4.925819605567096 1.395044020911333 3.741534275001945 0.7082093373349351 0.16458659776655524 0.21798583932330198
Ni 1.8218787353373247 7.634662967023326 1.4376890007963983 -0.14883139181482755 -0.5164451507123236 -0.4494193195110776
P 8.028330789374175 6.859333022409617 12.182077569267465 0.030002202789045102 -1.2080521036038874 -0.23515129535899504
Ni 6.6650331387718476 1.7135341655356313 7.62947577141279 -0.117176741024024 -0.1313121519841416 1.3891732086903559
P 3.5042347392704047 7.080302056624523 4.602808535863863 0.3451613434312507 0.34410487714227833 -1.5244507730801489
P 1.813428921992953 3.0752921538365983 6.016674928409329 -0.001162395739217353 0.09920293015442269 -0.4191124409974201
P 7.6288342454538896 1.8693883149221646 1.004249318390701 -0.12543589570902267 1.0895656426295044 0.49837800879796745
Ni 2.3166510488108507 5.238096113046618 6.728041069058062 0.28816847098597465 0.03965798071125427 1.7587345782325259
Ni 6.732796609344824 5.275487911793945 10.719614668869651 -0.11926987610762685 -0.07502993245264498 -0.6885707371684012
Ni 3.8483950869072676 6.563021346650155 0.36569637407714384 -0.7999221297598997 0.11373891898706863 -1.1730740448668053
Ni 5.713989234015365 7.058517667991583 11.929329171979951 -0.6240291058415898 -0.26873941572708554 -1.06433643574907
Ni 9.005878880889792 1.5614191960238304 8.03753760335005 -0.9369040784353091 -0.3283267883724152 -1.0251898474565957
Ni 6.147944886585149 1.9423481457622325 11.888029563677266 1.019020228310774 0.05095463667099612 1.1189703210438664
Ni 1.8676012068937997 1.1642871334949196 11.829962299740238 -0.4713048067302593 -0.49229940670405536 0.12852379060572705
Ni 1.526419372637545 3.442373307519311 12.531094268413202 -0.7166263577540368 0.7163666763347469 -1.8269608574997762
Ni 6.058406192035789 0.5229041432369569 2.032438552636248 1.9676490513821792 1.9395132123779115 -0.9430819251112468
Ni 8.637807944299064 1.8951868231265099 12.568530973977655 0.46046195047848437 0.06110895149617863 -0.8727787087103098
Ni 4.642860834409315 4.595433736733477 5.153254304982061 -0.3896177739724129 1.1301440782724987 -0.10987737914913336
Ni 4.008409990370097 2.249694068014778 1.8749384309323074 -1.6522417992849092 -1.368752736052475 -0.6374232677603087
Ni 8.637074771774605 2.4159042793092724 5.687375987843217 0.11741199696328165 -1.8110452147107843 1.9186620799605147
Ni 7.664814687091637 7.469277574818846 5.223983458416468 -1.877376590948167 0.0976435560871028 -1.8302870936595317
Ni 8.947701641074097 6.329670861428474 3.3468986649188115 -1.6033666708507612 0.021390292750318 0.1189348613657113
Ni 4.735268066460616 8.267509996165293 3.113183426366213 -0.5170583588162901 -1.4270201043348005 1.354571045235454
Ni 5.961654912777078 6.063190142757873 3.3575351653173775 1.403912057562427 0.6524012292263797 0.8932323485789714
Ni 2.731003501007955 8.040189854957275 8.552236629572672 0.18131290938230066 0.1065107766697456 1.899452339801284
Ni 5.065993027586797 7.833416873747174 9.390547926968583 -0.7972515249062722 1.5117852617973382 1.1403233327983457
Ni 6.490327290850203 3.4614082991855364 5.9695942547512955 0.6036384580003797 0.5399049243971605 -0.03596356257880258
Ni 6.599505844398466 0.5189963336815988 5.833488107311023 0.24819887257157255 0.17051838986995793 -3.023463565703167
Ni 5.721238477350939 3.136530388941903 0.48356210557457235 1.4180366698892675 -0.8713540604486414 1.4115634034600981
Ni 4.637206241314438 9.125752588638578 7.237656460289228 -0.08582907995067798 0.08182792921108488 0.6869787100909329
Ni 7.686204995492681 5.712238784613223 6.7341172363545025 0.15087953259310788 -0.603376976808877 -1.2919819096493232
Ni 2.5650590647535765 7.7397907423739625 6.355055127156501 -0.2147925291969849 -0.16380009730951792 -0.5991379990268649
P 1.1566713038971184 6.615049101916965 7.973730515012177 -0.5295773172189073 -0.01973501653508214 0.07557397788157307
Ni 0.6979839091460748 3.015492769810541 9.856610120850013 -2.0617455135479723 0.6583209371449243 0.6647600079020487
P 7.4824380216328565 4.725636012420557 4.490377445703975 -0.7567049709424775 0.556987333800744 -0.2982911612422734
Ni 1.8372295350681518 3.472479204304843 2.5604978151857956 0.524244077931452 0.6156334255787268 0.8917567924747093
P 4.3550631245901155 6.534895015680657 7.665986846665112 -1.390864994570482 1.571756757254964 -0.28911617961122466
P 7.553720720323229 3.0703432392965104 10.510043718013089 2.012325568353947 -0.114919312448415 0.48863892713333257
P 2.9393986264284178 4.95414755898082 11.712716099025977 0.21230987198444728 0.47788091728588017 0.0016509053398616727
Ni 0.3890589165689792 8.49888091557094 12.384217816588649 0.4528000630578525 0.3213516426061627 1.5755208522830866
Ni 4.54196713038742 2.1738382057031034 6.02804918366063 0.21837381879034004 0.6213021938287299 1.341955670464289
Ni 3.5840772271838164 0.33980896870420835 5.036638632638833 -0.32105339463945354 -1.374115285915969 -0.7799035205461278
Ni 7.52974597877347 7.668663842845038 10.098251870857654 -0.46524600213068906 -0.0226421628795481 0.6627527476640328
Ni 3.638964355296009 0.6827769945231725 10.357788529255986 1.0418421113012961 -0.38623265955026387 -0.46319246203577
Ni 1.0075898357052602 7.825278658725696 10.445283505393421 0.8264728836652347 -0.7823627807198977 -1.4772332348540818
Ni 7.202045354310677 8.87863678927021 12.299887396359903 0.29326722566512076 0.8005893310302535 0.21422817205308264
Ni 4.903375361662144 -0.011137807112163601 12.518244503456431 -0.9244519687148854 -0.15539464685464205 -0.511537428998061
Ni 1.2552555144669726 5.437858131991594 1.929357245094503 1.3200645268181523 4.268031247734585e-05 -0.2672818573449526
Ni 5.557484394013376 3.241548188413871 9.942898111719062 -0.6995606605210016 -1.1605517440300788 -2.6864701027946896
Ni 6.600908036851492 5.332409593661507 13.265545262460133 1.1102689366151266 -0.8028567869081914 -0.3867666776768629
Ni 8.620633377913649 9.031356626114688 1.0560461243123058 -0.11275470069692839 0.6443480199045999 1.274642132819295
Ni 3.3643729155735986 7.21064180215994 10.918803896779895 -0.6951977555666156 0.13709096344944777 1.574948010498752
Ni 2.8828618601361953 3.028983144260557 10.449039181649956 1.2722744039180671 0.25294590033825465 0.16887082696420594
Ni 9.212129476676218 2.140891265385299 3.0083040132082357 0.14188709928651047 -0.10703810992812533 -1.9753880718976493
Ni 0.5503064663385525 6.792486017492212 5.504967246086492 1.0759987025783468 -3.6556880628713557 1.9284803516025175
Ni 8.562538620006954 5.740795854440839 8.949501579621641 0.7874785046799083 0.0386904745916624 0.5590938386207855
Ni 3.888957856822874 2.137866928721912 12.742087573967211 -0.9519686860779153 -1.1326192792858687 -0.015394480178199292
Ni 6.244989434853644 6.284287482164561 8.552934976402218 1.381985175582349 -2.4544023314570245 -0.5352720536108394
Ni 8.253763011331717 0.12333794792684746 3.777321342386367 0.6067026987480002 1.046754461001249 0.7128080124492111
Ni 1.4126676554679782 2.099439523783788 0.9118466686676784 0.46677272318786056 -2.6065633018657173 -0.19943712978683717
Ni 1.684207264557335 5.400273875456596 9.885542941596414 -0.0951164187898749 -0.18179164879093207 -0.19424632961451707
Ni 9.034426786060854 8.398445444376831 8.461321403608643 1.0761838220059596 -0.2551732470068767 -0.7249994123090804
Ni 8.702290467825092 6.505256516379467 0.9335568235825178 -2.0941856363545486 0.7559716923208787 -0.08776743462397144
Ni 3.744137953929424 5.911982474245089 2.717474635000405 -2.0941097888112905 0.11596857964853576 0.07046853833420767
P 4.6920475461438516 1.8462017338361991 8.468752107144018 -1.3659666886669055 -0.3741587591048653 0.25649273714924864
Ni 7.11953595133955 3.9537519786717974 8.147769175936565 -0.033451080569594005 -0.07471702919791648 1.4170853617195918
P 1.632894352501872 0.31280347523147534 2.364340255664183 -0.3521344323149742 2.5252120551807353 -0.4454767899235619
Ni 2.7541259294980307 3.117422080023232 7.951035159517597 0.3227089279650055 -0.3681871149024627 1.1940863854524146
P 5.031460601684853 5.017603640972608 1.3728343922142072 1.7418141483281036 -0.014819838621651897 -0.6321033982092921
P 2.731727508875857 8.302793923904806 12.962456323177717 -0.6412161591438377 0.46320506044126036 -1.88377323850313
P 7.254622988970829 7.9003830191998015 2.709494052071686 -0.7401498947972738 -1.9075942521821274 -0.9551033750521551
Ni 8.767561151814913 0.7166404004965491 10.385553772757188 -0.9229275616505588 0.6140568251202263 0.5546730838452705
