# total energy = -340855.4674112779 ev
CRYSTAL
PRIMVEC
9.42765555352128 0.00000000000000 0.00000000000000
0.00000000000000 9.42765555352128 0.00000000000000
0.00000000000000 0.00000000000000 13.79832686459987
PRIMCOORD
 96 1
Ni 7.692768916667607 4.5302430200036214 8.606030619900226 0.43035536090109106 1.3902705555195927 2.126882612366937
Ni 3.9232151369252652 1.5979781815539895 4.351454132585735 -0.5886209015456251 -0.2735957153781224 -0.24247302583138888
Ni 5.311154581337199 4.932304244605142 0.7595428373510744 1.7875959825489085 -2.3873075946910562 -1.3962337150815631
Ni 2.0026602943877228 5.352956805875458 6.562925683367909 0.08661352352518631 -0.71079046779855 -0.6640205586328628
Ni 8.450969255873835 1.5003830916983154 2.854115230852103 0.2230902504294029 0.17673788841710852 -0.24968548441942806
Ni 7.460942867638335 1.0869898251719 6.503993408765144 -2.4938158002576407 0.12916065285877756 -1.1123417599837555
Ni 0.7137366875170555 1.7240825016766224 10.377707697661409 -0.54429482593474 0.17633551077236728 -0.13873107015603206
Ni 5.644478769603931 9.178322306246237 8.82543761832412 -1.471397344898595 0.21199336918529293 -0.6903465981219014
Ni 0.7862353584009557 8.708768495837456 8.856317903952236 0.2659541396724645 0.6090452308382478 0.36555893325099625
Ni 7.614387388744492 5.79575492994243 1.3788125311111916 1.1025430287257787 0.4139026146617065 -0.04932712836990214
Ni 3.979941340138325 6.824849522617837 6.272608574013813 0.09162666046906155 0.6127213941382544 -0.17847749681603456
Ni 5.667623663884812 6.913054667583997 1.9975005385262459 -0.9321894465684591 1.0233777339485213 0.7662473632152739
Ni 5.679370522652216 2.5073509768880897 0.343025245788128 -2.4169395586248763 0.9194956531508744 -1.1608718463736587
Ni 2.8381862640997704 8.907428052777059 5.163568405365924 -0.40428771727976176 0.9191650092843332 -0.3156188538874435
Ni 1.3501722564326222 3.6396783974150844 12.248305393643195 -0.35859381478707275 -1.3459915310965593 0.4582171203083657
Ni 1.9587557026703857 8.012121319466205 0.04283832387897965 0.5712602987799904 -0.021951050349794454 0.5780626664138044
Ni 5.358104305784771 6.689147849184437 13.157146469206442 0.6950370616190352 1.0114511577142646 -1.2531405113020935
Ni 0.8573623054079237 5.772468620828876 11.194431151221202 0.3950430587530422 0.2875640046327564 -0.22489516484862557
Ni 1.4955278491098616 9.435857571855534 11.917738794613593 -0.23287175529619894 -1.2794133289556933 -2.252728599030185
Ni 2.0374200602588464 0.9100431016409726 7.486779357567767 -0.18577223070523488 -0.6780726658505548 0.08377811095892022
Ni 6.696652262971638 8.2054731063528 6.808936582879874 -0.022125628254445768 -1.046840592957152 -0.3461226789032555
Ni 4.480106747993143 1.8411174171971338 7.96865794202681 0.8748016526776095 -0.07599126792464977 -0.3206042229171769
Ni 4.28494485124833 4.58195371048453 6.971921891363731 0.6699937454971623 0.7221485731238466 -0.19248975193472656
Ni 0.5048434105196543 1.542967811644034 5.319903445651927 -0.4017276698620694 0.19937670886254696 -0.4822577061973372
P 9.34170357626158 7.373652205256796 13.598623778736245 -0.9646933327334355 -2.983506565694255 0.06693918502471051
P 7.935917579966263 0.7124083308554767 11.147709576037009 0.03409642746307676 0.19727637469009252 -1.036527641066918
P 3.598998063882701 1.467716265350758 11.969082749295103 0.38290822316272116 -1.113544779152921 0.6192249995847271
P 6.536127572576298 6.719288063854895 11.034162893055775 -1.8955008113527037 -0.9100437637093554 -1.49562896375245
P 4.1815234702865105 7.965388431095401 0.6402386851489301 -0.4024162112886618 -0.23461316346733785 0.6407114515932771
P 5.148169272853341 4.334081791774583 2.689197252988375 -0.5417998274270281 -0.6299004770207023 1.7503738649726563
P 7.159804695288069 1.16867103252406 0.747468838937419 2.736539251536939 -1.6885254642072922 0.7738308319894867
P 3.7234996825683684 5.92299056872645 8.84147123205263 -0.721965510578763 -1.2778022757148317 0.22211940187570134
Ni 6.089530103338166 1.4345497732610883 12.017528642672357 0.9019666431281758 3.1053801979733167 -0.5338286362960936
Ni 2.9087711209148233 4.3766005181317205 10.58803586382767 0.503943418700887 -0.11600508931342603 -2.04436614172926
Ni 8.982953001080169 8.00538054577544 2.8680370497460244 1.0225678364527162 1.2386315190526411 -0.7883053714565778
Ni 3.546636865171494 2.6107440748833737 1.1385459021024196 -0.13807029664358156 0.6207679185918148 1.1975949128263053
Ni 4.740385461356304 6.091971866115661 4.20570257837701 1.8964526337430114 0.17403180233985513 -0.1367531204940548
Ni 4.6529251011755575 2.2412836830408303 10.133215593452356 0.4667076742778801 0.4042987730233554 2.817925722335231
Ni 0.7580758941534756 6.399520844213787 8.671599963983128 1.3130495289528998 -1.271722645179655 -1.369314522093216
Ni 3.8765388144875295 3.44251783770182 12.77130364038146 -0.05962233964832312 0.46354521738949844 -0.38263182957288294
Ni 0.5562241330576589 4.2846903045495175 3.1631424653344413 -1.4333586449583184 0.29147053877601414 -0.42286059518594266
Ni 5.5915047732844725 8.901384925594147 11.224939044456612 -0.4189805434052462 -1.8396708488672766 -0.8016195720669806
Ni 6.971487276444649 8.388878716674698 0.5543763125773931 3.501972860601666 -2.919296349564934 1.7321673692669588
Ni 5.152204309412289 4.938234239921913 11.31028195320946 0.6273802817020098 0.5171617171633739 -0.5299863797318679
Ni 7.82576485296919 9.176304787966762 9.165207494664106 1.012697885637172 -0.07039783299727231 0.0332487347508008
Ni 1.6868904006835161 4.727224454262166 0.6790843969187639 0.388946201826685 -2.4411300398281504 -0.16796811264427847
Ni 5.0696840407196 8.761610504979751 4.353523502970522 -0.5576936158391492 -0.11675070923019892 0.6225016134534699
Ni 2.170095456273037 2.801550394781846 3.0375915485903366 0.2757778106311057 -2.0553408955732086 0.26301176921468894
Ni 1.095286162022073 6.483521254821791 1.9271155480080375 -0.571981493216731 0.3799460552106037 0.6074061525729282
Ni 9.612814665807527 8.726605620065328 5.12734829565606 -0.7374841750396525 -0.9184355873174762 -0.9686271205702028
Ni 7.433197277467812 4.74211072231492 3.7460110383988723 -0.8060097307148765 -0.07503173222485787 -0.06419761772383137
Ni 5.250959000895885 4.114869945819779 8.972347831395215 -0.13403315045973047 -1.0597627003354586 0.7525960909804265
Ni 9.219200620544363 5.196514290316624 13.312943190362734 -1.4010545335089741 0.22159592527206354 -0.21914797795220323
Ni 3.112681881974365 2.722631490494573 6.393675697796619 1.0472612254343383 -0.32666071352390197 -2.3992791652306353
Ni 7.08126289722126 2.310030147031129 9.382241552195739 -0.0468185030154355 -1.132314089340624 0.16086903970565197
Ni 9.396874216315233 5.730968081266987 4.975635634867375 0.7866575514405098 0.9784096538782634 -0.3713613988653862
P 7.378686573299969 6.898441801541079 3.404350917128818 -0.5671102811673587 0.29629392830658646 0.03151324011693283
P 1.933913830397424 0.46479755820319885 3.087692938275423 -1.1757258806673556 0.4579181010107081 2.8441777140532243
P 6.032106253617252 5.9024005690892025 5.978510974799582 -0.6781983927951417 0.360707775806282 0.5161489596281433
P 9.42212147777519 3.51217878427674 9.346379693395315 -0.46730571287319517 0.8427320258365744 0.6354933977274475
P 2.6366795551956765 5.475459761592675 12.448823141484123 0.5743173404387593 0.09522131979885537 0.7264996510036907
P 0.5217679376940076 2.7622653542651734 0.7851276088783473 0.14092113582881535 0.4887623400850743 0.016652006734384224
P 4.656601886825066 0.5198362110796889 6.367528095235306 0.02880586848809878 -1.2658613013028714 -1.6524922247328189
P 6.501650636370521 3.2419916049709285 7.35370800002209 -0.9688690613776798 -1.6167641752035897 0.0788253949393352
Ni 8.512494135742278 6.554040118048262 9.988912127130208 -2.689112682623859 0.7471368676380681 0.8072335758196485
Ni 7.59667282403827 3.2257760374910442 1.0710580301229138 2.7952123398981152 1.7714903352362974 0.5433088078723869
Ni 7.198722057239792 9.23670777682933 4.142257285080862 1.952391868112792 -1.0652352934142557 0.06275831417414354
Ni 2.055832271472924 1.2453650101106042 13.582396898069748 -0.28131519550956713 1.9091407707336412 1.3758860046631465
Ni 7.851992590602352 4.646127761551723 6.3893842290077565 -0.6029907971140518 0.11504966737869217 -2.307871048530284
Ni 3.394700768947185 7.497314762601935 3.1646735165895183 -1.5056570374124132 1.566340214225083 -1.3445123754478716
Ni 3.549663142590705 9.551723458092614 9.992251402712402 -0.5140252284169212 -2.0510625799128293 1.1508036635043795
Ni 5.558130872773549 0.6437891402145838 2.134836024659801 0.07539502910154758 0.09097745692083688 1.753656135268354
Ni 5.463392362537878 9.531453998742757 13.68429759819755 -4.5705045653790055 0.96798177367672 -2.3329321052639695
Ni 6.1927535035342425 1.8602367025745785 4.210587046697549 1.106694331889991 0.38863227013069196 0.16422407222081395
Ni 9.1778037851931 -0.10417747893384559 0.09931092315877807 0.15978172017874417 2.18583749363459 0.8059397967088893
Ni 9.115703818338453 1.8437665883958825 12.596658207560903 -0.30611785637554373 0.38810133732788643 0.3367533218732136
Ni 8.105134568743262 3.628742317021674 11.234542054360686 0.18681609858871698 0.4737530111604357 0.006513889859117814
Ni 1.5586554304152707 7.588414197810144 6.628495027450811 -0.8743051726571651 0.2772698217955999 0.8568566381634147
Ni 2.996467172483359 5.046869114381623 3.018784318610325 -1.1894182905527837 -1.4890055448986614 2.608252259532366
Ni 3.85521345772038 7.088305355888394 11.035060405860476 0.5127581887790396 -0.6934872006334121 -0.14895557609751767
Ni 3.4452235748336375 5.97143929040036 1.2387392538170796 0.12586167039253163 2.761514690535354 -2.923821748239113
Ni 8.86569182182738 2.6089151097141308 7.388079346486137 -0.062374191361847416 -0.12471264438975298 0.05411812200064228
Ni 5.822114654752754 6.252025173735423 8.795812153644592 0.978926702723998 2.4439703374904234 0.2772201995045871
Ni 1.5362647485753143 3.3765242491208967 7.823251440009808 0.6424711145968612 0.4976131056074849 2.1270271083646013
Ni 3.316517221789814 7.908511385394156 8.182945723507927 0.0932495407844652 0.6759211667251908 1.183352801084994
Ni 7.698368944041474 8.070817902681181 11.977610063705308 2.012645413587211 1.0382222551605216 1.3079266059040378
Ni 5.081883426951559 3.8782829307571682 4.814387843294298 0.039969341304086005 -0.9345402061888227 0.11578757398598125
Ni 3.228868308498836 0.24525480153993887 1.577548452060438 1.224027395986221 -0.12593751793578956 -0.8147759069432806
P 1.8476319271556223 6.813376065860269 4.547901018776774 0.326846861392779 0.188457747957198 0.06920689801296467
P 9.173825314567223 0.13339378336417151 7.113755311941853 1.30450755292016 -0.1394059847358696 0.5845629294261674
P 2.667555126996037 1.8835135840326214 9.472633913240582 -1.2342511305967583 2.0200401633893854 -1.8740439270305078
P 8.588433900887898 6.694974140290581 6.859976024288361 0.33513969752919054 0.41793436152891894 0.7512431764969577
P 1.9748204276620847 7.817807911717433 10.439027997405253 -1.022841144718761 -0.04353751827131857 -0.029362255212201042
P 6.49729505952418 4.254955479066055 12.779458562398961 1.168920170599432 -0.8942731311386598 0.9579511289135952
P 8.230805216712362 2.9464440323390186 4.627048072327427 -0.1919495631605404 -1.2045636308346543 -0.1721096456164778
P 1.3072292855774643 3.443564307463603 5.597663860630176 -0.09230825991711844 1.786513033897375 -0.7855144389750021
