# total energy = -340875.23334826535 ev
CRYSTAL
PRIMVEC
9.16439805291884 0.00000000000000 0.00000000000000
0.00000000000000 9.16439805291884 0.00000000000000
0.00000000000000 0.00000000000000 13.41302290199639
PRIMCOORD
 96 1
Ni 7.884800418108883 8.472806508986562 6.165563975267211 0.08645205824665757 -1.8211131404697476 1.1312450246461614
Ni 5.081676902276352 6.925755353985907 12.863370513751299 -1.6273612339931456 -1.1950839734789933 0.02517598504499535
Ni 1.5341110253239103 5.34792098681515 11.649196863166667 -1.2182519269550245 -0.4220427272703377 -0.08018833672513287
Ni 5.954191722484438 7.0831722147914595 1.658587374720051 -1.2952071014548403 0.04109908403315503 0.9747530309622825
Ni 3.249448016906761 6.800707146167792 11.400680389709095 0.45530328909568035 0.593635581151397 -0.40528941907139876
Ni 1.7170873915603706 0.4171496407159327 8.72177753657442 0.5121213265259891 -0.871143744210048 1.296915856615831
Ni 4.615896384698065 1.9517143037303522 5.458804701412036 -0.360411841832418 -1.9339655430868048 0.206192960453432
Ni 6.265194725820134 7.762400721251517 3.9990655134575905 0.4697922267404748 0.010189796048808257 0.24593347357616355
Ni 1.8089971369768514 3.347644539205853 7.693200353553856 0.410418512767848 -0.8446145875712681 0.16707388296478323
Ni 6.395338338808413 7.1953352793195595 10.867284945250482 1.1735679537840886 -1.8662123468012308 -0.9001272759265917
Ni 2.059542608104698 9.11257311857122 0.3094679667061958 -1.925032502263233 0.00295471175294975 -1.1339557387091053
Ni 3.1942966710181997 7.443342212260113 4.85432010687164 0.20196760951817472 0.7543169303262751 1.653154540907166
Ni 2.227984239449291 4.261096724333216 2.3871285892378937 -0.24036729234229573 -0.7787328972767943 0.18012146017736078
Ni 9.078637353562025 3.5479599460573277 1.5686928803771651 0.18786253757536034 0.12385415304419958 0.8179823296957203
Ni 9.208020321533894 7.987469166528549 1.0086656959464406 -1.6177787325110333 -0.27427860037775986 0.6978207950117595
Ni 7.472320038065967 5.388528433414055 1.6646230471032692 1.3672149592517098 -0.9775784162262195 1.5266071573015192
Ni 0.2406002666482409 7.378329974351597 8.16315250500527 0.37617116154920377 2.137580458400415 -2.2585241226660395
Ni 5.910450051842014 5.250778370261684 3.7972269836937396 -0.04215272210864999 -0.7663728330495446 -0.8967334197536944
Ni 8.583448283481843 4.270572711646073 10.43856433588734 3.0368646696004213 0.40949677228452697 -1.668413009728133
Ni 9.238171190256619 5.0493357424822785 7.83262841794122 -0.6761119425797582 -0.21015528753528967 0.10396718431228547
Ni 8.592979257181428 1.1294295477986371 5.067319040261793 0.6663196390796847 1.6729116689294352 -1.0180437233301176
Ni 6.541987032212993 5.166484239407084 8.74868420848017 -0.07912749956078631 0.5576182825165236 -1.2530345818518485
Ni 2.7356827125101773 7.585537008339694 7.395551710674924 0.5276286781329688 1.875691747046576 0.6082924118326233
Ni 3.454070690718625 5.108748533342288 4.1455226709484 -0.4725492206603216 -1.8972627883491326 1.6639711719066956
P 6.466545709621661 0.5380647051316322 5.103829084609656 -1.1806605989648118 0.8452409083013571 -0.002372613997234624
P 1.171484969248057 2.0000381732668067 0.264961985288248 -0.23578584361920035 -0.7646684487639283 2.097942789404135
P 1.7423261430686954 3.8008606674167065 9.785483689196186 0.08396245905558443 0.7971057433570272 0.504563311673073
P 1.9476911331013926 8.725313161241054 3.3417206724756494 -0.04971176540283051 0.7744142152967824 -0.4013052376126702
P 2.868511494050358 3.5307125494201936 5.51665587888896 -1.0277414102338558 -0.6281773236820084 0.07896603428225756
P 8.230472338276819 0.3433166699364054 8.16804812630365 2.3513314337067635 0.5725723327231945 0.7199093993806828
P 8.113818718832569 2.4388936901437663 11.643992401662825 -2.5537759828613567 -0.000888059031908148 1.0342403876946382
P 6.155249445556747 3.214989881223645 1.8926845846978828 -0.14513465968953068 -0.3487416045833413 1.3964473737542658
Ni 7.198469503363078 0.17623870098267644 10.814074618813432 -1.601450941885287 0.8057950436009089 -0.39242181908011126
Ni 4.146211833662062 3.1051454093359254 0.7829612414629168 0.013544057233021836 -0.3911367817201006 0.6231875837769009
Ni 8.69093750513803 4.3635271984103925 12.835189074113227 -0.9244779368568142 0.18006026792212215 -0.34476822175789007
Ni 0.47255392398344465 1.4204633283541446 2.353462257523667 -0.13162839767297976 -1.7761496883851797 0.13971040335016585
Ni 4.597622575508667 0.3007727860848819 8.653853769488634 -2.0465883461915593 -2.8820045550930113 -0.5234406081935502
Ni 0.4507050832169243 3.4333408229220272 5.844590107138102 -0.13136177427515439 0.7109966702720851 -1.5896498354853008
Ni 7.110408805017583 1.4397452213002286 3.164279602503179 0.26687767992799843 0.42346351887726424 -0.5320576604385998
Ni 1.9195839250854043 4.011605158950997 0.08408609902481183 0.5685228452441693 0.37631334355402285 0.19882057924876081
Ni 1.0811515002511225 2.6446985712702906 11.68539806730907 0.4990758061959405 0.7343993654667416 -0.9750191401394755
Ni 6.677427667122772 3.0808139332086193 5.015290004699625 0.7349729785820245 -0.061312325756236345 -0.5242173384585747
Ni 5.706936270162506 1.7561918769220342 12.407850455936526 -0.4686108048378639 -0.3616657688441771 -1.2417525811801258
Ni 0.07373124596407976 7.995478850195315 10.552199202700205 -0.8236333573339105 -1.266952220374205 -0.6161993253845258
Ni 4.352878168180664 2.4094301512551444 7.973331250060904 -0.5910181981332079 1.2687903020242084 0.373760238114866
Ni 6.059499817467067 4.252207258478795 0.09094198501006155 0.027420043884165676 0.6827780417460241 -1.5650124965525951
Ni 7.001957321593649 7.71479167474253 8.384936430115058 -0.4175438109587196 0.2882813424147551 0.556107759409268
Ni 5.290652665037545 0.9497157071747272 1.6836694150262 -0.13484253373490324 -0.12256705880165987 -1.4892096904896674
Ni 1.8279766047959294 6.223835798602607 9.420180712526438 0.15108367818411397 -0.20441787083088023 -0.17604394767387743
Ni 8.519975664401722 2.678680158268427 7.931804614363855 -0.24300627262703955 -0.3901721038139861 -0.2687252746596985
Ni 4.813526622997636 8.774745922909865 10.928032072428433 -1.0834767561229468 1.3837198988852684 1.6215191733900718
Ni 2.956324753655575 1.979876498133069 10.28753322746051 0.7070831941502919 -0.10414484754073032 -1.1506321709235217
Ni 6.531576276325754 4.812436059660857 11.167588514168614 0.03762423811067714 -0.1613225823033028 1.9609703538104226
Ni 6.981493221332904 6.052085819656524 5.842833292082131 -0.2585388210449999 -0.3502883802451709 0.7933552751756594
Ni 9.05116248899341 1.2633030706866573 10.106216533663469 0.36765592498934097 0.5568904032115635 -2.150927569131283
Ni 4.783742330186433 4.065711763491719 6.461723403505582 1.197182764989551 2.125758783175139 -1.153255981699614
P 0.5853493319589206 5.644013514949668 2.2133496126215335 -1.561541507284859 0.04542136555759274 -0.8568761785474404
P 7.353897689848621 6.109693224152286 13.127526032034195 -0.36560418466663486 -0.11788662260685503 -1.4775844475459134
P 6.9877891626133035 3.990527044038452 6.901039889591281 1.1483413180068158 -0.33957716447525393 0.9121698089134226
P 3.198558115989649 0.8718164930966366 6.8201594969127335 -0.3270216964077465 -0.8120870472572078 0.32601588085105143
P 9.168613411045223 6.411513500904344 5.919367927329579 -0.8930310312014427 0.0008921727969662055 0.19107898763012898
P 4.282541415157283 9.054159247070109 13.213048192192398 1.0779833371085434 0.23199835155231013 -0.5227556663113836
P 8.241790369545077 6.322820459111473 9.576320972720117 -0.40735144380675004 -0.7912618829817405 0.8005114266044665
P 4.283980225610009 6.6754848147917025 3.284245235308035 2.913286653035744 2.786847255762871 -2.4596013591594605
Ni 5.480548151603992 8.200825511432436 6.485974232932354 -1.2716051457651842 -0.017067754115564153 -0.418592306827892
Ni 6.794512013263061 8.145454219996962 13.104442746885624 2.5345706135774995 3.3416031291299353 0.36805084643491454
Ni 3.482535310248348 7.948997024614261 1.4744260518495944 2.9619182980005183 0.21216666153836364 3.106246402628354
Ni 2.175701350068393 1.5332862295229848 4.588715697298449 0.13060612705605248 0.06753028164149015 -0.24461501187505616
Ni 6.375552403983987 1.083983299167634 7.580222574062397 0.9443278817032059 1.0703070515102084 -1.5630718278864564
Ni 8.84989398477198 0.388996610711004 12.428426361850283 -0.009912631128021638 0.6902836060944498 1.6572845039151394
Ni 3.2298178768447308 1.703689041994223 12.69447341183664 -0.5915275336694586 -0.6267997266081914 -0.3816743507556201
Ni 4.25823743222334 5.267934122920938 1.5625903078900942 -0.06721814971771004 0.9790210622100171 1.0260354832863428
Ni 2.8519056052583887 1.3934558480727237 2.0342186276969443 0.15882681246464259 0.1366821580468033 0.49389297644342045
Ni 0.9707571644961192 8.351139963952242 5.37872894285928 1.4365432133338873 0.14758234989907484 1.6952100753163188
Ni 4.34097361545397 -0.0093815940156398 3.6035695118352926 -0.28641626418155836 0.594989266965814 0.6792286338318689
Ni 3.4779897689454686 4.73550094023007 8.321372167057056 0.9617537904891371 1.5155141327121513 1.0795203425783602
Ni 2.0343771717786776 5.7402305273265375 6.271432931394469 0.2552732629198507 -1.7902976977507876 0.9352632003977763
Ni 4.427531352562223 3.027559617662187 3.310011856128952 0.32303931472123076 -0.39423984612545654 -0.33566831633915095
Ni 3.996300614644932 3.6404012265455163 11.641765453000327 0.7173421528741387 0.3536585822689845 -0.7172421369611647
Ni -0.2934696774875747 8.164406194622675 3.566616827074266 -0.9461970737014607 0.33609357680202767 -1.5145317141942238
Ni 4.753041597596423 7.072798116495374 8.751393204466323 -0.4186092761087565 -1.0735728667456736 0.6719524118854299
Ni 1.0537682796603913 1.3178220731278423 6.822037282019507 -0.7317498436590365 -0.9345517761530485 -1.0500688700864624
Ni 7.3606426866206345 1.9188507732623594 0.5465298593684657 1.3123167645519336 -0.07499496544965148 0.2502678392854593
Ni 1.663668116853753 0.20105405731319267 11.307231941904 2.7896754692402856 -0.23768151798001647 -0.4259101806455439
Ni 6.851505403107023 2.998105243171353 9.551131708959845 -0.42324806043234847 -1.3355387111943515 0.28952524212418523
Ni 1.247338689739852 6.199128582165991 4.111923239338025 -0.3066040519833429 0.26299531415445676 -0.33590948581567953
Ni 8.28661343912649 4.869731874631825 4.032518314703356 0.39806873295324346 0.9608281933510743 0.22130281951167693
Ni 1.9632889381366754 6.612305456440798 0.824598766373201 -0.6857144986665288 -2.7433642448785722 -1.2367116763221087
P 3.000423835811733 8.167100527572366 9.817018381984909 -0.7621785924625389 0.5183603654571654 -1.645649233669056
P 4.808816122534572 5.183731636044218 10.132653071962691 -1.4835807743386644 0.5981733211207505 -0.7887316603607191
P 9.029699469373769 2.910182010792679 3.7718764265324003 -0.48395746249726335 -0.7299894093245041 0.3006925715949144
P 5.212828599021317 1.7722845594378722 9.963045729219457 -0.45462760318489437 -0.044270539782601176 1.8788812005181512
P 0.9634806326523975 7.45759285082055 12.467940495793075 0.05656581221018646 0.02392720023955879 -0.16004114448771792
P 3.7083827293373655 5.277804179338682 12.919490536486057 -0.8330078565702751 -0.5606830374847762 0.758475689689655
P 4.485157085853561 6.272471257663857 6.654441524590752 -0.8600556047166866 0.022714667988696362 -0.017255444646338026
P 7.221426319822174 8.71804579379512 1.980151430066711 1.1756392344908206 0.6935116261134443 -0.17650314669848313
