# total energy = -340871.44350522687 ev
CRYSTAL
PRIMVEC
9.24154522991662 0.00000000000000 0.00000000000000

0.00000000000000 9.24154522991662 0.00000000000000

0.00000000000000 0.00000000000000 13.52593559368984

PRIMCOORD
 96 1
Ni 6.742621950864736 3.6452257468515383 11.396519817436713 0.8200500108580264 -0.03131089429813963 0.19787209929256244
Ni 7.710202465138449 3.5533185823661846 13.664170377578381 0.9519748567255024 0.5828891412681704 -0.8014732762971035
Ni 2.4357108274433776 8.055475825856128 13.415455450917246 1.94310555771486 -1.7788940838995364 -1.288496007983252
Ni 4.958199761927225 5.188748583688525 7.486456344611707 0.38352271681826855 -0.444811388425421 -1.8607292121994727
Ni 0.2666823383446367 7.511721804338857 12.106077320979944 0.9256393041547673 -0.14528378367288527 -0.6477297918926392
Ni 8.436828178041964 5.482232326530293 10.60971686046454 0.3816609810191814 -0.0748664102915872 -0.5260559343292102
Ni 3.901928140809274 6.250112296071577 2.1036611933885543 -0.8229270752955052 -0.9693825106789885 0.4071647817172407
Ni 6.552763651499516 2.4778060646712095 4.179825093945563 0.603449224807709 0.13979653530606892 -0.10881011422688358
Ni 6.298805996390666 9.329339622721456 4.87427359565701 0.8510341179443665 0.2732643001806326 1.9772978873258529
Ni 3.8836483649066063 8.650529663367186 2.0393733101280294 -0.542843181089878 0.1781687073263641 0.37886002123527657
Ni 7.102811165124834 8.947460502473714 0.34542030128231554 -0.6513825581538781 0.0562901899512966 0.5544278006036838
Ni 2.0712150532385665 4.530630443467759 5.017932487683996 -0.047793979554827365 -0.5010954077291305 0.4053999765073341
Ni 0.5120555223533931 2.4098899508649887 7.910629395303615 -0.5909042982631629 -0.9057860168742659 -0.13361046110001504
Ni 4.071510490563547 4.097238951692479 11.193414687546275 1.3130212468181257 -0.7790416867664648 -0.03597153299860257
Ni 5.215179402233333 6.695499313186424 0.03255241791686385 -1.1122576849103811 1.1822318001066736 1.0720201775465732
Ni 6.245694837587514 1.1759496281652446 11.198067805426453 -0.3519223163041681 0.0853523974245756 0.4040259789779429
Ni 3.935216185703818 8.808495391124668 5.7608852380431435 -0.9112658090419143 -2.030030441832878 -1.4147639126752667
Ni 8.411413929441187 1.0687107406149128 10.105632170626844 0.9895438161182118 0.8986491487191685 -1.0299291619137942
Ni 7.309904945813853 7.814373159766797 9.515833999726427 -0.791088847738986 0.9629848346827609 2.9143315493604907
Ni 8.852475903521428 2.4972410336920943 2.0107929082288436 0.7551499677505318 -0.32268527381592166 1.7789784160832265
Ni 2.719130527839239 0.8135821817614365 7.7811729095492375 -1.095027951295656 2.9134229215032925 -1.0231445348917927
Ni 7.675583637771719 1.0133261617551113 6.826904840769857 -0.08645257246728982 -0.3186378432194254 0.9618419793275692
Ni 1.9832447869000962 7.127504573219843 5.73636279852963 1.1458373206380394 -1.0138764793263055 -0.10036352612142715
Ni 1.1205003584908229 8.811101506799364 1.4466261622354288 -1.2957493471115555 0.8112149290648997 0.8193414148267761
P 4.847319705668274 7.096896576359563 9.098842553611851 -0.0030120473534464252 0.8712812982291769 -0.79657558188517
P 6.130739260007493 6.340466881006047 1.9652376365733277 0.48475064782252003 0.3712402999064897 -1.8297715874756937
P 5.732317774306881 5.465911758156122 11.905690129458048 -0.03450754685856638 -0.771046327265814 -0.6962729909086653
P 0.5085899429987418 0.13320485638436874 7.731546737345124 0.04444331791503958 0.4757787833412129 -0.9732921301460399
P 0.7836950254069232 2.648284844285219 4.51641787149571 -0.7998917907425966 0.1092950242831021 -0.34179448384154687
P 2.737659825455441 7.462575268317428 3.705930683136601 1.4804342582898826 1.2255844560606957 0.1489866864457692
P 6.702707718244099 2.6697067454694374 1.7908339728208638 -0.7914732276615982 0.2435991690160321 1.451142708414617
P 5.047537776917664 8.9927995219775 -0.08385223391064969 -1.554253458263878 0.3129963286629319 0.26451149368866705
Ni 8.559186233123521 1.3560488560677664 13.419945917606379 -0.24857219675059125 -0.7091958696179205 -0.9567013156668944
Ni 7.067822675960274 7.105842391867036 12.319922050251826 1.8662871659032245 -0.6249565027518657 -0.8660606732601859
Ni 3.1300096161267037 7.953338271115843 7.842080235668611 0.5549631042818636 -3.0828835595326973 0.40317674360377015
Ni 1.6659825489129465 8.94358829514145 9.600438495395661 -0.787200054207541 -1.054154610120062 1.1440380626457716
Ni 9.057536544322387 5.118364977381792 1.7036723416651456 -0.7292340192157183 -1.3543702420785577 -1.0196601758876183
Ni 8.411866765143529 3.2035723138947696 5.9700093861567405 -0.5519454005014622 -0.2143832095737082 -0.5587624234232957
Ni 4.3649849918603705 2.2157066084651635 2.6343384288076077 -0.42162106635188673 2.4296287240567707 -1.4152418807529497
Ni 1.239559182026752 0.5489690253301502 12.127489056464723 -0.14124458060650513 -0.07027801958995639 0.4686673691074122
Ni 7.740413075566064 7.062518029161421 3.1723996586383043 0.7022124963215519 -0.2326367564672574 0.6653971272654153
Ni 5.399437325361436 7.536073275270874 3.532825456449013 -0.2799121445144534 0.6381490901827397 1.0364697912457892
Ni 1.5748516742030345 1.92591948360169 10.26347960660902 0.14441860745911256 1.2046299652962158 -1.8452480858447382
Ni 8.648062170866673 0.8620466917658702 4.545972332232177 -0.6936877466799923 1.1433063266860697 -0.5851000328765601
Ni 3.3711122822160347 1.684724402062901 11.62197007885145 1.6709422039078898 -0.4761022281189027 -0.190901067291368
Ni 3.1016288315983456 1.1057231281225894 0.733280549418939 -0.30237304462113085 0.981448183594271 -1.286724775015442
Ni 6.154517755152875 5.429269032446276 9.473064129717558 0.3070768778547034 0.8382171686853565 1.9462996391721255
Ni 9.064902055644138 7.70827098224479 6.006381334599678 -1.3885970244719117 2.590018767243475 2.033315797452369
Ni 4.875284620674073 1.2914596984420108 6.730586686881903 0.740796270132021 2.727899059363437 0.48784317070491473
Ni 8.309664519588623 4.262015698074968 3.7122472791070127 0.6160566291590744 -0.008507523250378898 0.7671228238416918
Ni 4.6709078541991005 3.347574067239243 5.382686100992793 0.849249515240118 1.5179613087010633 -0.6040632042426242
Ni 1.2645945272847532 5.899146143667325 3.2654444573064785 0.3980774747039918 -0.044789902621180926 1.7424168149091088
Ni 2.4978879418382958 3.5546123986585876 1.718551229027782 -0.8831839632040338 -0.3895717512258258 0.12356516104887107
Ni 1.9404194676215512 4.835897156115342 11.50207674380692 -1.346876504804674 0.33798693716999856 -0.052384941359619464
Ni 5.398734967945559 8.106442946231867 10.938626217546801 0.019329039345915098 -0.04700670776684162 1.206455962761361
Ni 2.7661145423433653 2.1448147171864154 5.1876968958736995 0.6541320958745573 -0.01377288541437628 -0.39764424382131514
P 1.5049209035986428 6.44501647897717 1.2858620946683779 0.33280590718969133 0.4267830701688005 -2.8274264627368146
P 3.0842270024655227 8.67061154053427 11.339250887562477 -0.7159486149607218 0.09276617339014345 0.3783108336000259
P 8.865367858720733 6.0771475408671645 4.864088488972312 0.14733578110590756 -2.1866594753152535 -0.48774778277763103
P 8.026845519614236 8.945815507473371 11.627354202936838 0.07859348143418722 0.1749679410008793 1.336339352718776
P 6.502415714635141 0.5887159859872704 9.129667726778358 -0.7177069924127252 0.6038665148507858 -1.1039291104400277
P 8.649882755220982 3.377849368481477 9.66424027339204 0.18507571885884255 -0.34534080643190845 0.9044539283264036
P 2.7322720047520765 5.4037346437612035 7.026412237212922 -0.353479633488959 1.0411677109420907 -0.4582140349845722
P 3.565286383070914 3.0644593378265914 -0.3457779490717156 0.9422038933816677 0.19119108772796103 0.9134707871130333
Ni 1.5056694687392478 0.4286893937068893 5.595760085416199 -1.0111889051918133 -1.311720011508199 1.442851157829786
Ni 3.437198570123 5.479644693945487 9.234236731993866 -0.7400858743285577 0.2920032713510326 -0.14491971546524718
Ni 5.649670637857156 1.977662893752871 13.49332378447553 -0.34305715260405434 -2.5232443899314028 -0.49713462330916963
Ni 4.090640488601222 0.2009426083731369 9.581582971242874 0.8491983502872084 1.2318484346925367 -0.44687238471950785
Ni 8.595450055490593 7.224476104335461 0.8576966965599119 -0.09087949789039187 0.16555127567266972 -0.010026788108382732
Ni 0.6411460429279198 8.317603006697011 3.8408655567348116 0.035773043834551294 -1.209857789354058 -1.198769906971013
Ni 5.922111382857481 4.538374858132287 2.9413767456212883 -0.23029062483258406 -0.9561937799028564 0.9339290549673851
Ni 4.240519864531184 5.914015789485015 4.839105820520502 -0.5774265754917023 0.3346416748468495 1.1876262316493675
Ni 0.13180568647958418 2.963292145305609 11.833826951805502 -0.20257310431265757 0.7967527308929827 0.08015311261182324
Ni 1.4631860866236948 4.204524046967539 9.12625944500237 -0.19430289388406538 -0.8009965937710012 -0.5612620499166979
Ni 3.05980159917394 3.2947216716945733 7.1859508759201685 -0.00947117271522885 -0.0780383802616656 1.4374137888642986
Ni 5.689205967135019 3.0991151313731047 9.313756529633954 0.08018653695291997 -1.077448547650996 -0.8726378122570713
Ni 1.7380388748548576 1.2449100365503336 3.045377395822634 0.2643986222598866 0.655145110520104 -0.057002385526972794
Ni 6.63112271109442 5.197620466836432 5.419368565345907 0.44037854946504806 0.007199345961916634 0.41850180399661474
Ni 7.357720699363097 6.8479478386113 7.606769245796773 -0.8965195039706754 -2.207729151501359 -2.700137315869137
Ni 3.277828127533766 5.084430024341046 13.592212012012894 -1.0557790330973624 1.6790473495135276 -0.7421376146512638
Ni 9.203303432751495 5.336382264196673 12.90129378047072 0.19791889337009785 -0.5440994220944823 0.12210323179136391
Ni 5.676886987722351 8.527681806403503 7.479977097450251 -0.24296256387329768 -0.17659750618450232 1.217161522104323
Ni 7.724342028905427 4.425720425243753 8.026303040925919 -0.543124973996355 -0.5608414174395115 -0.09989481401512473
Ni 0.050126139785677246 7.349005922479266 8.654786318969192 1.4717493289213748 0.1842336825735214 -1.1731768889932568
Ni 3.7438145483326606 6.563372945097223 11.477364852622019 -0.7238007640152889 -0.5445671057595202 0.34523359143008286
Ni 6.017631991416618 0.5991949738012414 2.745751722209928 1.350621573669403 -0.34981941102855235 -2.903498720411045
Ni 0.3181050668862009 5.1661807309310355 6.852941969499977 0.9192555121156105 0.9293013263873866 -0.27021368627976694
Ni 5.521222404656358 4.112829438015937 0.4954087274426372 -1.2765447491586468 2.6447238720958386 0.22255391830995866
P 6.181225820046054 3.1440937306240064 6.988093095249918 0.6051440960116288 0.355199187283227 -0.4218529798570348
P 1.2409176891337754 6.179377511056907 9.879410240209138 0.7131587109204104 0.6149667385290054 1.5907345839090474
P 8.17513534981353 9.146763660773477 2.411092275862429 0.7640688675067163 -0.2735674332433482 0.021729678367607738
P 3.553216925371782 2.8503234998889204 9.334653511065255 -1.1925630068293525 -0.7133014071458619 0.5289782501823276
P 6.185911283333542 7.4080963608623085 5.70024868919068 -0.23306458803329538 -1.6653248577211126 0.014566070739632979
P 1.147088283299708 2.2203366224829777 0.5082156604284395 0.2064554700861993 -0.3436917008642597 -0.3379072329719987
P 3.7046673639425185 4.407847277318698 3.3985264011430694 -0.4801074926235538 -1.3010154806065013 0.23465250134570556
P 4.369078996271331 0.9732917890501788 4.184518874623502 -0.09340072165034882 -0.9452305960231333 1.6103060782830718
