# total energy = -381177.82334682916 ev
CRYSTAL
PRIMVEC
9.12428373538982 0.00000000000000 0.00000000000000
0.00000000000000 9.12428373538982 0.00000000000000
0.00000000000000 0.00000000000000 13.35431154347287
PRIMCOORD
 96 1
Ni 3.106845907931803 4.077003600676551 1.616913368340379 1.8969894800830878 0.9149347732530695 0.6288596944610138
Ni 0.43845467006573124 2.6535332545987402 12.15874008963371 1.6908420281556107 -1.0807868679956096 0.22808898919557494
Ni 6.87762942973651 9.263246347637478 2.2067599752571394 -0.85152468442754 -0.35305617279829515 -0.2303137647610356
Ni 8.190358346856078 8.680724715522372 0.3068669905726869 -0.015016785123806395 0.6400365370134395 -1.9065724957858325
Ni 9.084839232170683 1.473042578386464 5.788853314079525 -0.12848059607261744 -1.175974506343052 0.06985327334771196
Ni 1.4432244198764916 6.930541149809745 0.7614908034461055 1.1239245797253483 0.7359517975555261 -0.29427946897971896
Ni 0.9064154481454003 7.967488597846108 6.385137103012437 -0.3502492994771194 -0.33914521914415785 0.4357387367001915
Ni 5.678506966597256 5.015673391029035 1.9049925467380704 -1.0240387645712878 -0.5603714197816284 -0.1601445028348016
Ni 8.683744853364109 8.104434969044448 4.4027824936799655 0.6877988919993832 -0.043250583158519054 -0.01744004985331835
Ni 2.6564530253218708 8.969690774277215 1.7921215100086452 -0.443397795907346 0.9077757936107851 0.06428169279720541
Ni 1.758194686634217 8.362013492525636 8.842811225075218 1.3991899694964096 0.9436475678067298 -1.3167776285367645
Ni 4.263932796941485 0.6862118147769879 3.3794557760670076 -0.6705796999076193 0.05575385783185237 1.5227088506883775
Ni 6.413385884758727 0.2264254822937338 4.565879061417346 -0.6380398182983851 0.000478482298315305 -0.4172810442156362
Ni 7.1813768277772025 2.5556661896728023 5.003660359360055 0.6541264394476025 1.1606715574373945 0.591970020523516
Ni 0.12967431724104278 8.633798525431555 2.15055165155182 1.752574472168401 -0.05166297559193037 0.5380069360434991
Ni 6.503223580196055 2.03156734487084 0.6930541149809745 1.309114969785184 0.2771422950788001 -0.6416558177844175
Ni 3.254622803656256 4.9473416318242665 8.605384594153739 0.9932171512047411 0.10520388493286396 -0.20938781324164585
Ni 4.454812807966155 2.6029117296864617 9.577244878201412 -1.5830112471228608 -0.20899520578891748 1.2462206442538086
Ni 7.639142131463039 1.2382565151127156 11.955313276354737 0.689096013544252 -1.1638851792786857 -0.18140752597863596
Ni 2.618778858709975 2.4043125748125145 5.3994681283010575 -1.7610953651552188 -0.638003822854127 -0.8021211942937476
Ni 3.3931659244688084 2.0292132797253157 7.609006447886927 -0.884731510196812 -0.3488580755565476 0.03757564426092883
Ni 3.2937568556297174 6.760327640934734 2.19408634546205 1.1640628425071307 -0.7704071510199183 -0.19145668268452187
Ni 7.343670458565721 8.33059858440145 9.707208435229715 0.781149477138087 0.03765380579703193 0.7250958286776287
Ni 4.921474288074031 4.549358633694531 11.05003836364806 0.718672441649788 -0.003784663853412837 -0.31933409795550166
P 2.164590274159973 3.4645634429328642 9.598277264119814 -0.38760485730744215 -0.37509669753810243 0.4134092199650557
Ni 5.233871506881997 5.957755663414179 6.664228862152993 0.8610601347218009 0.020142279275829827 -1.2943025873627
P 7.04662028462121 4.563419154583108 6.274309905789203 0.43399218632272996 0.011392558107657798 0.749476057294206
Ni 8.058831800062551 4.5335644989390955 8.678005679036456 -0.500978165424976 0.47418649915342853 -0.10596827390271428
P 8.664228010936682 3.991034601447371 0.2626461505425213 -0.7103603222396668 -0.05985039649872919 -1.0239161229504947
P 3.9976953284095127 0.13046721747804294 9.254858393806934 -0.08312479364563748 1.2647883799536668 0.46936388095380455
P 4.420396010567251 4.172571346158023 3.4011825199605044 -0.6773900379612334 -0.8005564209097891 1.2179266824051218
Ni 8.446650346362388 2.155657600603895 9.763323691243235 -0.8329291808135397 -0.43472623627527707 1.1340783803298986
Ni 7.123583616026234 7.032924735073025 5.471528069747924 -1.2336556631046045 -2.9520331776763227 -0.11258706477081254
Ni 5.231845915942825 3.6609180240634043 7.520694332652434 0.5496900288083822 0.4574563308829412 -0.3126687701201841
Ni 5.670130874335275 5.775671461692941 8.842449903448232 1.0734383980503384 -1.5148006515848946 1.3816663587903495
Ni 8.013995070895474 6.956773464900372 7.9284549129912545 -0.07273805109467474 -0.4462416931140444 0.027555798131081576
Ni 3.1173297096845443 3.3356555655066433 12.335724729301331 1.9624317688472979 -0.7556119949886148 -1.8878836611270777
Ni 5.155877131440368 6.752042791507851 11.70267646482245 0.7781633979265694 1.484770166661075 1.0822745082847296
Ni 5.811374783066722 -0.13258587610901468 13.349637011188895 -1.4139311323613262 2.553042447129442 -0.1644097058690588
Ni 8.920501761875972 0.4705356508861299 8.126098755381728 -1.3086400870312944 -1.6232035030710303 0.8198360950750074
Ni 5.606133149797654 1.3710969587316533 6.74761295186385 -1.4129106615166118 -1.1776081852917333 -0.3192279113949405
Ni 5.680906653160329 2.3528516158173356 11.79587645873313 -1.1073538198508606 0.6188930701666051 -0.42342418099889656
Ni 4.8705242889554 2.4475890514994174 4.9727044026964125 -0.9999431570746649 1.451014924587501 -0.8781268603961006
Ni 0.8954352853697269 4.526411060667426 1.8352428738758817 0.4116937799358458 0.4839129824125731 1.3643834033401858
Ni 2.499661337489752 8.287732700472487 11.344247235707622 1.3626952170044855 0.18769130210481869 -0.6488006563593148
Ni 4.226796963056666 6.401487819061969 4.433537716106393 1.6697533258061115 -0.1386685923492128 0.20239852640800626
Ni 0.5030938317340903 2.8321502285862614 3.9334722340691997 -1.54561969384828 -0.0628740138164014 0.06867262277604948
Ni 7.240319699250403 6.0606410842704985 10.673699990860232 0.3018904485577575 -0.23864079656949228 -0.25437080571023934
Ni 2.133029377499632 7.083418520016166 4.294866855324703 -2.233736117088082 0.9636746616609337 0.10823058757432973
Ni 1.4677687425178092 0.3352307382911998 4.022905723747044 0.19396530803898854 0.7241486342730109 0.16055433667871058
Ni 7.182873210272806 8.799513762536243 6.6922057402506905 1.4255710305930998 1.5571109823173312 1.5189879501933647
Ni 7.7945469282016715 4.303477441672886 2.2566378710633708 -0.4728428406413404 -0.8775383348824821 -0.1581251584119277
Ni 5.4559656917936366 7.9669502651190305 8.18123862548805 0.2910226526053181 1.0591942294264984 -0.7896469730861368
Ni 3.8101730537164427 0.9071928371004339 12.441730655117995 -0.6555562299155936 0.9002674010488817 0.8174542251063922
Ni 2.3699413988311604 1.5032804539378866 10.524225065974607 0.15763690592159949 0.27456296438739813 -0.12456197774450159
Ni 3.1580422627051976 7.046383053249956 6.941183714095557 -0.1394473794967663 -0.18780623041612818 0.42638814872322695
P 0.5332906480097187 6.651940277122017 2.8119910365997463 -0.1478453737524744 -1.3214544651871436 0.21716899984896149
Ni 3.350263543405806 4.4934541486300885 6.129242009838805 0.8083401786202659 -0.0729923331973259 0.5341155714088931
P 1.6379092571247416 5.705003885909667 5.987378562257042 -1.063098706687227 0.059611283904729605 0.36561138375548646
Ni 8.584162423138332 4.885588481030052 4.390576939628928 0.9241552634100728 1.3930895130256267 0.13530224698014118
P 5.074132675476218 3.5687810091816106 13.548482521717604 -0.24854699993961069 0.037885462191863783 -0.4902767198470718
P 7.084869281094222 8.03690614678854 12.029363224035086 0.7482681530290339 -1.7899637114501366 -2.5069590225078184
P 5.166817147368598 7.987032813124064 2.9701322059629622 -0.03576661607664808 -1.448075125232887 -0.39306099532600697
Ni 6.206219027669093 1.141064647166502 8.980093369906719 0.12380684474603194 -0.24969525461144096 0.7021847284074101
Ni 4.054083400499975 5.476832928180512 13.35274839186573 -0.1129724731346893 0.3717864022179468 -0.2559579476917011
Ni 4.3268994774425 1.9002506565980362 1.5272125371556975 -0.8201217446362263 0.244294909531476 -1.63765953059536
Ni 3.1334979400638807 9.123781674190438 5.639819092087423 0.265009259260692 0.38963242926043223 0.03274248453834361
Ni 0.6402363750278909 2.5694803549066147 8.038040295228805 2.8512616174831993 0.5847236233737478 1.5212255812746316
Ni 6.18526054844712 2.47024464745421 2.9347838192177105 -0.4349936310040508 0.41482049849028557 0.1698175071481914
Ni 2.282539887090944 2.2087518063473253 2.88955200857466 1.78166059090108 0.029154510076769145 -0.21372449294378676
Ni 1.0001127155073668 5.8717775399014895 8.51955610889061 0.06144730867220385 0.11498950356471808 -1.0578513422453586
Ni 6.2331904097240125 4.927678800860684 4.333247241480256 -0.43889836537509574 -0.3139931453585625 -0.2968186904618049
Ni 5.493594236987984 0.07201067031591316 11.051373246325541 -0.9647064453595581 -0.18861304258813968 -1.2665236174772188
Ni 7.731598496267676 3.630296928604571 11.397811342051808 -2.4512984957207204 1.2932183531595858 0.2492108587758547
Ni 2.8674155843515745 5.818062882879395 11.236704780547912 -0.9168515306598081 -0.23794479894373213 -0.4305026851122328
Ni -0.04545353073233736 6.7864778374737735 12.07321909272486 0.40939804192313367 0.6201809357400931 -1.1781504309484485
Ni 0.42856485916947695 0.11797424849644741 10.842097767316794 -1.452218457977299 -0.07838265097496178 -0.5018389707633745
Ni 3.5900223411923866 7.836938349388125 13.255756345728381 0.22077060115729072 -0.34450468368385834 0.823108338068376
Ni 0.085585779321769 3.9677859270644427 6.548433492558681 -0.02229789216625192 2.1698920260489274 -1.9873336742952998
Ni 7.236451003042255 6.703565473220371 2.9008506088448254 0.29865677211180824 0.25495341768658675 0.8353773852437162
Ni 8.388118067647126 6.379480047236372 0.7741388852473673 -1.4187228973230146 -1.5225394149900486 1.8823143945694163
Ni 1.3932872162274466 0.31889188381023054 13.03808105132053 -0.46759136243441407 -0.11592718488763906 0.8420411704171369
Ni 1.6424987717301627 4.847667958763393 12.902388356676434 -1.9606384243923007 0.539725975617135 0.9103708080314709
Ni 0.46973362636561994 4.609095317833083 10.565530697423398 1.4351375912356124 0.675605692367301 -0.19151504672628306
Ni 2.0046142113829397 2.3978799549381167 0.644318579470168 -1.009164932783249 -1.4832429313832713 -0.14791865019257106
Ni -0.26119721432116766 1.741086655053373 1.34142752604289 -0.0862797943348514 1.1262899946337313 0.06895878655790058
Ni 4.100133659373852 7.13217869109245 9.778747380088173 -1.4796847817183676 0.362619133896382 -0.6411508531235409
Ni 6.577750727903967 5.227922474033619 12.97698484893902 0.5289075448453924 -0.8423255344267752 -0.20992671646425135
P 1.557524319403549 0.8846613314013745 7.043558175075327 1.9746365384436058 -0.426998014393084 -0.6310721287313003
Ni 7.41661910522644 2.4800441279437173 7.531430877058396 0.7512246645541966 0.43488461623001234 -0.6660249906574014
P 5.071477508974872 8.329102201905847 6.0687060384647955 0.2557802844632563 -1.1398718470832239 0.13071282783724583
Ni 5.859030915838322 7.1602906085860925 1.0318633972647113 -0.5542694206489486 -1.3917376269834225 0.6177139622568394
P 8.302340678371651 0.9531044068649623 3.5483471762614505 1.1486063987427446 1.9204749647995378 0.6312492777391129
P 1.13398420316291 7.09045334260221 10.316739771390482 -0.9753220160918752 -1.9676485371615466 0.490467238591323
P 6.35006335720083 3.5175116601401375 9.554061898659754 0.6695196340742211 0.0860936464659743 0.6202711814610543
Ni 2.3368293739741555 4.633174302015402 3.9270751989004906 -0.39013302304593456 -0.07007773065369222 0.05943850577229119
