# total energy = -381160.9061958775 ev
CRYSTAL
PRIMVEC
9.26499566044873 0.00000000000000 0.00000000000000

0.00000000000000 9.26499566044873 0.00000000000000

0.00000000000000 0.00000000000000 13.56025766918926

PRIMCOORD
 96 1
Ni 4.773927872158384 2.0618413488166265 0.7308460023008233 1.3680184289896118 -0.9022000992952204 0.09380644172919973
Ni 5.730316290800096 1.3956881771317888 7.186366839682147 0.7533417108971994 -1.5095841403809613 0.6670251497871417
Ni 5.061698630329887 4.203593283249132 6.077124526374838 -0.9471810348812849 0.43822885011189683 2.1953148369974063
Ni 6.493668529580144 3.4255930866883646 4.677380134242165 1.6696137149044536 1.8032007789657007 -1.5419941812805507
Ni 1.766269464489927 5.251112196976964 0.49629337790063777 2.6421386278671655 0.5308947504787501 -2.677507237174447
Ni 5.720977175402901 7.525751960915389 3.6778538968610293 -0.8496755470339431 -1.0601722770690516 -1.4935841654082793
Ni 3.370225473976423 8.561902725246041 0.9872834724150112 -3.8510132273723485 1.672946121711796 -0.8058300106039026
Ni 8.948299359809546 6.973326608179528 6.816999266725827 0.01939126004241822 0.7993042936702428 -0.650590401269886
Ni 2.971432275522592 8.495861837794449 11.861129612714285 -1.6023929940835822 1.0216589514852017 1.528626758834709
Ni 1.8014393871563477 7.5759960311524805 5.608685430746152 -0.2323477644719289 0.10917983886147647 -0.1187075758462536
Ni 1.6877300981982388 3.708527517243463 3.7784300547918326 0.7312698186988246 -5.172152218201602 -1.642089798452572
Ni 6.835537596089168 6.089149563948271 0.5220926841853888 0.02084161933569959 -1.104617137645988 0.08831765070048661
Ni 1.2197644438362159 8.753873430632826 10.537919641861441 -0.2753337811151516 0.052681903774747976 -2.739418887077579
Ni 6.62908570283947 5.2957324149857845 2.768448270063738 0.5298285139977649 -0.48795192836863716 0.4309318022298514
Ni 7.853955159159669 8.555176338561155 0.47009382381314974 -1.005023914031682 2.5294024391129986 2.652270316984529
Ni 9.022586093197155 8.567989827245997 3.1874873365393452 0.17453933810389297 -0.4729374572376758 -0.66812969570523
Ni 0.6526123808584483 3.158779748187948 0.7920876221177465 1.2712922425104558 -1.4685573043466384 0.44050221952710583
Ni 0.9514409110801021 0.4600950407410736 1.3364552083248973 -1.881044269607741 -1.093046402089253 -1.0402876223299824
Ni 6.031752917236343 2.7169135859627285 2.5426158593657746 -0.6256504434950967 1.2467646896827367 0.5233498482519567
Ni 4.697324889912345 7.5177099448789155 11.119736339611709 1.790696475851103 -1.0468377647436746 -1.6185233239865415
Ni 2.081575789090461 1.7881070587272172 8.457274984812068 -1.018566171492491 -0.4548597738003585 -0.050124427460216905
Ni 6.336589796996767 0.45943629956573573 2.831937577772883 -0.6457857807923909 -1.5924273982304382 -0.8773478161382309
Ni 2.156501807162996 5.658929500983244 3.902994212400093 0.9557116980601154 4.800307451941894 -0.23773294004324222
Ni 8.214798936316962 1.3638443878260755 4.179922146415508 -0.40687373283938316 1.6008253924861462 -0.783470926182412
P 2.4076480383849836 1.0379944984219622 13.307819736709645 0.49349265568120815 -0.3180346624177878 0.20792151310876447
Ni 7.365467539911944 8.284110367156659 4.770593400301786 -1.0056247808404746 0.9905789422509457 0.08121883487217625
P 5.218740302931528 4.182339383724167 0.2539646428329266 -0.12175741841617095 0.5624969507650635 0.21334216990370355
Ni 3.1290205828548228 3.0995764273664443 13.153734524150904 0.22686257298764154 0.21825246272112736 -0.19931474527635998
P 6.705457060199667 1.338217410456392 12.919046630817387 0.24682590348344585 -1.1316728562121994 1.0827668745401158
P 4.158204070619313 0.5187016958566454 3.677962297307604 0.09601836177885398 1.2899620510058172 -0.30499248452184896
P 4.624502025803265 0.4700308218442005 10.022413442929889 -0.09037581878109598 -0.4005364777674456 0.5973009458181262
Ni 4.225736622335735 5.226726728995399 8.547355755915548 0.053211293915656745 0.8087464129197491 0.42263948031407217
Ni 9.276947277834646 4.776373830952888 10.816705207461316 -1.968263030817094 -2.0074633551656396 -1.2821086163996693
Ni 0.356690279704354 5.083851234411924 2.034404917838736 -1.7569232360554 0.6338319508646245 2.123683645813665
Ni 5.169997161954701 2.274102394203269 11.579063312231327 0.3635192771131481 0.6091295630219381 0.336826084092678
Ni 3.7249358241565904 6.1606475337103275 1.7386959115796174 -0.7076899744963553 -1.0130454987845778 2.550448718260337
Ni 3.208467918699016 2.6788529847209857 10.329621235021802 0.3904680377878501 -0.24430879348854698 0.404064288415046
Ni 9.03080414414687 9.018018450448329 12.114625446778264 -0.914585874554083 0.7221660566253434 0.7136047973188936
Ni 3.470129919738281 7.875440683570478 3.6114627925820413 -1.1447749408117962 -0.9262982778950047 0.33647075763578826
Ni 1.5691566866374245 4.106227446236114 9.574192420336676 1.9268602995005912 -0.5452538474138997 -1.2576779941611307
Ni 8.722103761290581 4.807078025820253 13.012992758015816 -0.119164203767698 0.39869479657301654 0.2093808712631104
Ni 5.232396906200838 7.910323391378453 1.3334088778262883 4.624420341560856 -0.23716524046523024 0.7274864403969922
Ni 4.766015566057983 0.3236994839639456 12.70451010255222 0.5961390642995411 -1.424841865736559 0.3442650568692265
Ni 6.8670200505729655 6.22967174969158 9.943465490339571 -0.3823834610075027 -0.3165565352103645 0.6934344930186058
Ni 3.9297107532327833 2.7496931398072486 4.26997604903223 0.46570494404497864 0.6266930258269982 -1.910012631815633
Ni 9.21176803495839 6.837418390162213 0.4870487654568668 1.4418810806070328 0.1623736492756365 -0.7401552941139123
Ni 2.3513631911251034 6.532062670657501 10.205151580366966 -0.5504101948038586 -0.020018609213771972 -0.7356607486776685
Ni 7.556067025974538 4.877825530952179 6.363177554392928 0.2701890036894185 -0.7744499536307243 -1.4931928435071316
Ni 7.633874457626962 3.6084007115911954 1.0363314317416086 -1.9330970244389223 4.290290573353418 -0.20960609990003903
Ni 9.16521143290392 5.279787357844343 8.172929495452415 -2.334002712620329 -2.9331088299679937 1.3812902063978534
Ni 8.493193519109534 6.3998604508136765 4.614162290899228 -0.018538425123819684 -0.3537593695129069 -1.7762674449099667
Ni 7.1811497207534165 3.263298161675801 10.371779743743883 1.5953929086166652 -0.9471039017864463 0.9544891385069239
Ni 6.739580038382076 4.3202859007369 8.417828340253442 -0.6219966487925933 -1.000582590430877 -0.3297015572327548
Ni 3.66298079969127 1.5324858347107404 6.078724591086242 -1.4705180276174352 -0.5650158605321753 1.390043270000135
Ni 8.77472893535414 4.050591148656595 3.916296892843836 -4.721409294783094 -1.5340021642140096 -2.446897795549863
Ni 3.318999314223357 9.040115464557763 7.9186887557555625 -0.39753265794411535 0.07545365025362488 0.039884752010079697
P 9.039957959635391 3.0894497873573825 8.688138288030546 0.3349936588696295 1.3487595807599997 -0.4045633395386517
Ni 4.534492595164625 6.2972320963943025 13.35069720907738 1.1318875433261668 0.6736295424775367 -1.57182077772368
P 0.3517928031180869 7.077391036891129 9.193461330480892 0.05454852466984154 0.4599477298462272 0.8536299036960009
Ni 6.63152239663854 6.489425161671498 7.691336885806469 -0.38382919231509377 0.6152660149369791 -1.2071252209142436
P 7.394643010532745 2.410223707115559 6.3617136851144 0.888862758756366 0.02022943967299742 -0.2659837073588193
P 0.26732754574698836 2.3947696947321058 2.7607870453395904 0.4173136972257845 -1.5067950076715984 -0.276330340700466
P 1.6988017677415403 6.84718369534936 12.325324413934782 -0.7060619519746292 -0.8593794045852685 0.3905842516507402
Ni 1.5844439291030712 0.6903014557832988 4.0495266006812605 -0.037688772800025416 -0.5593535200400753 0.3319016502078671
Ni 1.8926625321968054 5.823142280050588 7.590746830382515 2.0223775532733104 3.0715977022062324 -0.22591589280365607
Ni 4.634267330990412 5.358688058957947 4.042475012656652 -0.6218248991014194 -0.39323377345844535 -0.7824836225684781
Ni 6.634802205022078 7.688547195681373 12.512347611759957 -1.1043862525821044 0.05881809857947289 -2.5479971713960508
Ni 4.874036147819785 8.632501990451026 6.124191629677705 1.0596251463163298 0.7717376969058838 -0.7652495180783788
Ni 4.521567926534579 2.9484921468286887 8.07406180267959 -1.384272686064945 0.10818662171027175 0.9354529478110792
Ni 3.537060246751512 3.610392685609446 2.0340250530259536 0.7071852669457949 2.0043132395724323 -0.5741684735657209
Ni 9.21291689439217 1.8279835990739701 10.299272815979092 1.5284344403182453 -0.9116591878255912 1.5684690876426277
Ni 6.286975746449169 4.9092709254542415 11.840938408165567 -0.584206060307381 0.02679578003660546 0.8534648388730464
Ni 4.034201371734335 6.608850952812214 6.124381562084097 -1.4262436311800921 -1.5518147669153983 0.8814530965558561
Ni 7.802219424657748 1.6436935749017434 1.4817970446928301 1.3491683861626442 -4.009795045531669 0.04210669936206297
Ni 7.278070837985616 8.68091159159224 6.97565397503248 -2.9232589337571073 0.2054483689779236 1.6782407944518323
Ni 8.8817488976091 0.08283925067247985 5.852213982722531 3.517391252039265 1.264478304912416 -0.06930974213941611
Ni 1.208303644484698 3.4081378352912264 12.122911132194645 0.8790971947291698 -0.10582197813283711 -1.6173033355365112
Ni 0.7462536897071084 8.815207700404086 7.898442887733786 -0.9865729064153461 -0.1426113790470447 2.272881934049608
Ni 2.2476971572171527 3.7381940326222507 7.236716530867183 0.623871497217803 -1.0873236406728628 0.16936679276401798
Ni 1.704314440024607 7.2951184295836695 2.1471580592680843 -1.110030081131443 0.28093544357264516 -0.0372650549990455
Ni 8.68178250116301 6.631290771752697 11.451651095026739 -0.11266805452039305 3.4929590871388294 0.8464716953846648
Ni 5.805047743968523 1.3779827708579402 4.837757205199947 -0.1023605019467979 -1.7865963376398004 0.6768246523760666
Ni 1.0682261785222074 2.2738244443402578 5.8096209457146095 -0.9361193777504845 1.0276995012523267 -0.18425476561944398
Ni 0.4985586692841835 4.747707935080942 5.504270785207156 3.078463833198447 1.5795613409010474 4.943915390574253
Ni 7.546125685874151 8.339283414964493 9.172442761839942 2.365477129079526 -0.736691503935028 1.0426985457643203
Ni 2.617833724794472 1.5412505203910445 2.182550341824914 2.228603423847207 0.4793153357395616 0.2675397389920296
Ni 7.72378197331583 1.3902681548030595 8.581757610460514 -0.5959038083602834 0.16768966217191122 -1.4165096917217799
Ni 5.353823936355241 8.12644793986096 8.637341097566061 -1.1497780504533426 0.4162996541389734 0.40966183710748155
P 7.77309954400955 7.094790698315665 2.235910230026368 0.048479435657626184 -0.02881383890789876 0.3928717621333363
Ni 6.923990507494941 0.6139754969007277 10.772539900728292 -0.5546293750915288 0.26849156138233754 0.7079368003998389
P 5.163465340173925 3.7690557324119895 10.014629920266016 -0.809803907649986 1.390597085621076 -0.32960668352610334
Ni 8.412866008699138 2.483630265936964 12.497933131864167 -0.5995079807717739 -0.5417466055915896 -0.22201964307304342
P 2.979844891376415 4.327809077029085 5.395598874266365 0.2266067482230936 0.9676752981798947 0.5274610422068529
P 6.071536807628759 6.333763973389481 5.482967781206392 0.7502576726552369 -0.2195300438819703 0.20548385020154936
P 1.7143947550565 0.3852162741452504 6.324965007226073 2.3750382904053997 -0.09583195679966076 -0.4011214037366382
Ni 3.385948171227455 5.175333799324526 11.853509153970045 -0.5762690648484914 -1.098938599203972 -0.899167997337116
