# total energy = -381176.223466032 ev
CRYSTAL
PRIMVEC
9.10883396711182 0.00000000000000 0.00000000000000

0.00000000000000 9.10883396711182 0.00000000000000

0.00000000000000 0.00000000000000 13.33169924591817

PRIMCOORD
 96 1
Ni 2.009290405525187 0.9293925691747286 2.510305433759774 -0.3539393467341969 0.24494231330748786 0.8220390162635971
Ni 0.19529158307778288 1.3832675587548444 4.501395477707534 -1.0779414281270145 0.824762071621715 -0.2096050714587745
Ni 7.191205974025678 1.238464421776537 5.817873420712253 0.8280034613771482 -0.3787857163539154 1.4794037601428391
Ni 2.178350367927991 5.811390663425503 6.8851564326051875 -0.8040338379354282 -0.022605396104341712 0.05509899785667285
Ni 2.381832614701496 3.1032704995197578 1.4126535687067672 0.008910929336384652 1.1091479356368061 0.5127895562376072
Ni 8.896561909427245 4.693026220327899 0.9904436193907068 0.8642858407479502 -1.6364066320248656 0.4112001281288789
Ni 3.6689108845030205 7.684248950584893 5.540334530278873 0.2802096211502142 0.45725809882920604 0.3743405360983682
Ni 3.065186463808221 5.685260636518627 4.434882770516517 -2.0480590171998148 -0.402808561631074 0.018613244225813102
Ni 0.5072682428999714 0.9922526338590903 11.88842316896034 -0.24107485993228162 0.6126334624101385 1.2445874795257597
Ni 1.526503976253988 4.2855243055641985 3.316313378649835 1.7460680385084508 -0.6000214300730828 -0.8018345162912642
Ni 8.952071144927391 6.442031689125707 10.894771418171018 0.05553454273219468 0.2725780727468854 -0.10235304574763018
Ni 4.137241593928678 1.7605372528711893 2.0361241201395415 1.0718250308166315 1.7781937153984022 -0.16569911410444366
Ni 8.313888004525165 6.827717946025467 1.6616763428525276 0.18018882308018644 0.13061204059332343 -1.4456809139690974
Ni 8.91157326815784 8.33766206173806 6.120476179278584 -0.19399230462218203 -0.30379897843438003 -1.663402700997735
Ni 8.547620689614387 4.567296982124994 3.3721204730277052 -2.499889774365862 0.1625428278636491 -0.4769730607596302
Ni 7.1570478458462325 1.2558349685600578 3.5507383351368276 -1.3421407898919013 -0.37396026994081405 -0.9056353502290145
Ni 7.974775216793807 0.05561763062690112 1.2675698796356794 -0.2860786783364815 0.5523701467437069 -0.7698952443805064
Ni 9.185530564991177 7.180776358888221 8.197342292943732 -0.8109683602717324 -0.09523263265276502 0.014135925180749848
Ni 7.87523387686181 5.194904766042862 7.352885958974887 -0.9378168200575655 0.26321977146043696 0.4658846641559525
Ni 3.898061825999107 6.62929110222252 10.529136437954302 1.6685659903662295 -1.0843601871691646 1.3953019472959132
Ni 1.3162903010205866 3.366852834220725 12.793271984433863 -1.4112764683472985 -1.0093783343456357 0.28486408920309003
Ni 8.618924643584707 8.677740385892625 10.213455215270626 -1.600632816859366 -0.8523062997885709 1.0620476397148935
Ni 5.024287192995074 2.143827886381298 5.495233048714151 -0.2775446727235414 0.4766056501178824 -1.6708419308845996
Ni 1.768033823402305 3.200689481087538 5.280086028888219 -0.354511417187583 0.2180668290728825 1.1817414907338162
P 6.708018756050508 3.363072668035533 2.7988569047182077 0.1510011457726367 -0.2468274461453427 0.05443282502758367
Ni 2.853314980753844 7.740486892819533 3.0308953466497295 -1.2463702824577954 0.01685872342855161 1.6222815054773931
P 7.845648383441319 9.094004999138624 8.287690997420075 0.1754525939467817 1.1147082033334026 -0.72396274351445
Ni 5.240221216094261 3.9760516642584176 1.169485953172673 0.3851921341008914 -2.0448595364259106 -0.5969942132109848
P 0.6332926073303466 2.884439867150955 10.543374456662914 0.35941451091615517 -0.668083930068959 0.3868492100883402
P 5.413525895225497 5.026063415660406 10.34618550342519 -0.7759687042680958 0.8221454599344744 0.28056083384204583
P 5.501681192431012 1.6013877020575145 11.49235193021061 -0.5451700294508417 -0.1641392258164915 0.11857850646755708
Ni 4.137961191828992 2.846592661128129 12.915416896386473 -0.7925723742630478 0.2102974695401088 -0.9219310020652445
Ni 4.722821216934556 8.701049892562278 11.754159864013083 -1.687919712302493 0.2001549817894682 0.20798476224653215
Ni 4.143772628036588 7.229062288882686 7.861503220217092 -0.5490439105839512 -0.028635661458821647 -0.0867662470529667
Ni 0.6674871708465173 4.685830241324761 9.222389462505344 -0.6992187038005506 0.32170799750431694 0.3718540222310886
Ni 8.44945478364375 4.197906429575374 11.697779823965217 1.4704720048708482 -0.06608223634105394 -1.0022298962263128
Ni 0.3631828820551414 1.3680284791697208 6.9304309820193515 0.6055459594357376 0.2490429657394227 -1.229499474844386
Ni 1.595211912482671 6.172437523865157 1.8933549858338927 -0.6425353921758934 -1.3770291171286544 0.10754718835405994
Ni 5.093541659274629 0.5014732025939012 7.019805952121727 -0.09424738592136027 -1.3761693402315203 0.6738452580327685
Ni 7.51466978463376 6.859926783690139 3.910040853830784 -0.178214472962635 0.21091324874723677 0.373806260861453
Ni 4.450202918725853 4.054770209252224 3.372333619747545 -0.7913284745536179 -1.1815568855268361 0.17711224103739176
Ni 7.711675650304442 2.5286670217022085 0.015247277535886568 0.922705932558056 -0.253796164153692 0.5189892572904159
Ni 7.1011196039737525 6.493350860902507 9.233801920850953 0.6131011460751764 -0.4550778033484356 -0.5352779671481105
Ni 6.390985782374343 6.823992432845362 11.232223665431148 -0.14217840527468417 0.4030286480616801 1.4136776215896234
Ni 6.3692521040180345 5.5347098251719915 2.1077286656378416 1.2990539860047563 1.0037594454969616 1.0582074400331969
Ni -0.025706951826141983 8.414659037071623 3.1758105222884656 1.5110938921572685 0.49614372015081004 1.2156157748837582
Ni 2.2010040385366 0.45102119183115036 4.757883852348194 -1.4382707375479553 -1.4011429794577224 2.042554799552134
Ni 8.201330140548254 2.5811065800832935 8.394584988303125 1.7071479644044858 -1.9721029733884745 0.47643312909576013
Ni 6.302466131801581 3.084287689086167 7.1874795499621555 -0.20270500190483157 0.6459858126183391 -0.299356112171678
Ni 3.422380287389233 0.7967724979137568 8.89281726769536 1.4435476696761784 -0.31411090188334934 -0.31984934702902335
Ni 6.790526576063686 7.557863876320942 7.190878966878573 -0.5425549604254979 -0.0370933053078716 -0.3334155157492322
Ni 1.6007409748306505 8.081904215598732 11.931324867070305 -0.1834520672124905 0.6741813012159485 -1.803185095236417
Ni 5.836904507967004 7.31307306653576 0.27625818834750543 1.1036833129778088 0.6482303856781416 0.5473122726048251
Ni 3.199031673266562 4.827472612842198 9.152198608071965 1.5159992998786858 -0.3539678859792872 -1.8301724224585383
Ni 8.947753557525509 5.762175632344558 5.332893584170225 1.278201053815147 0.7062678973378481 0.5244376819994968
Ni 5.392420726427691 8.404366054446882 9.421831941319494 0.6077465666314823 -0.5489207547425257 0.23490498367614382
P 6.015492310923329 7.830199800670029 2.536449609626613 1.4639511730331949 0.1527466677088337 0.4555426587999961
Ni 5.9502275140151335 1.5071021594480625 9.0608233379834 1.0540013723716493 0.2011811090611374 0.3989488215653516
P 3.3441809459437546 2.2450543606368134 4.133466893043995 -0.9337359651199726 1.7532990090392515 -0.19432989046725888
Ni 2.5135372481272586 4.496657973049899 11.298668967249226 0.5186951230887648 0.45371306179042503 -0.07354563459763462
P 0.8987932625098718 1.3171738579361618 0.7671378167886878 -0.6324718372923043 0.2510880211939095 -1.490466445714904
P 2.962192875721555 8.411981039822352 10.18721812929514 -0.9367302718616061 0.9920640114369044 0.6258358200330254
P 4.334967057499674 2.678152099449645 7.941000570533389 -0.5387283875905561 0.6041272247113402 -0.5151788824053901
Ni 4.373916432458423 8.604787732935508 1.539798319741428 -0.7399490916403773 0.580611143867271 0.014856862507174416
Ni 4.034266223510375 4.304853251696675 6.141314459234882 0.2195840370483573 -0.3753314392567278 0.6871265485227069
Ni 8.76990357013786 2.3238822116407936 2.1737203475136946 0.3292315595748717 0.7469563761961459 0.5991485405498262
Ni 6.96026970103008 3.90538532868078 9.47891882689982 -0.5586780912396055 1.3195369364494565 1.0898340657995425
Ni 1.0799524893555452 0.5620023166112975 9.028374027096346 0.3989537066613581 0.022679186765070622 0.4618752858862432
Ni 2.623918100734866 1.7860784239152339 11.287323003393139 -0.07745036896867952 -0.02590643545311667 -1.607271919442438
Ni 5.401502234106332 5.217485565978022 8.070424351880181 0.015421733871708924 -0.34024873662098176 -0.2493478985743512
Ni 4.187813841302621 0.3948706944046499 3.8383033193534386 2.935559862611647 -1.616228614415094 0.1688255755485673
Ni 4.4144052003937935 3.019150415856509 10.190591130592432 -0.13240461371737197 -0.04060337534365911 -0.06689727604318156
Ni 1.1973653619510276 5.996709894841724 12.806631000643991 -0.8070286588976939 -0.4205962246317982 0.1705908949791062
Ni 5.980705673185382 8.43031712302908 5.05738049845874 0.3641749084192761 0.14585662545721975 -0.40563754643943684
Ni 3.347560323424974 7.3628073011650335 13.17741156128966 0.4550050411289713 -1.0750183409429483 -0.004989739905107535
Ni 4.875111815609798 5.4174062585866825 12.609481215393245 -1.4372037297360218 -0.01690860282988056 -1.2641371195229132
Ni 6.9170118475036295 9.118216280392216 12.067787955472319 1.5020238115352003 -1.1872629347726777 1.1905074098519046
Ni 2.8115691937014704 1.558749249255385 6.757545309260449 0.35779754413802256 0.6927775761608973 -0.2612608479618533
Ni 7.638996262372762 1.810526534857536 11.013356597725622 0.6382848444296556 1.7512174439198742 -2.236005629848549
Ni 3.0250711580742795 0.8652417826868928 13.32424687917379 -0.46717767193576315 -0.9335981539905276 0.784578557424294
Ni 5.140479481810278 6.408693356022567 3.954262422013604 0.10140148046763826 0.5291338019235854 0.2268306913084416
Ni 3.9570688538248273 5.990124207728727 1.97727740779541 0.34759900633846585 -0.1431281707824632 -0.947013398955169
Ni 7.059118769564305 5.2583204696122765 13.107433853576119 0.8837622043050071 1.583971039932969 1.3440588328502208
Ni 6.211450660663175 3.603946679122805 11.894142605942708 -0.8406306632228555 -0.42008071844796036 -0.7857733490633435
Ni 6.219548414250248 4.413940649850553 4.874429563929628 0.38802394712273175 0.12358238744005169 -0.16666302067960975
Ni 8.151823626773512 3.5836248700645803 5.601566846295056 1.4498093343151741 -2.1785995811252543 -0.3013008946028746
Ni 1.9744217882796082 8.441785145263191 7.185573070968034 0.4836291326235671 -0.46210977049455254 -0.36093737531858483
Ni 1.5276790158633609 8.27919245512903 1.0585940949675012 -1.212550505694873 0.43665919163193184 -0.4945061845473871
P 8.04917617438573 7.368536757865 12.765622118276875 0.5104174564610049 -0.5709134569635328 0.30722934427216764
Ni 2.0107842543309014 6.688698918752213 9.24942630412194 -1.061190948141553 1.3310801612023657 0.22042170245830428
P 0.41839152602730734 3.8450575198987877 7.258990274468389 1.8109881362206037 -0.24051770187723095 -1.1332000914900031
Ni 2.155988180013181 2.716390985342262 8.923999539747813 -1.057667765479643 0.7704714285989506 -0.3834568965773396
P 5.52271349055537 6.113721978733234 6.05540448965503 -0.4865779308392459 0.9271541981373967 0.581752970781198
P 3.0171737988391913 5.165483231637633 0.21321139256242932 -1.2450343372551913 -1.6536209390206231 0.4639859044713428
P 1.4916353590084095 7.1602086113071035 5.039289442891488 0.14773790164033265 0.7245394419535264 0.11946090907251038
Ni 5.847807782481883 1.1862799107525246 0.595510984913625 -0.31214272241338503 0.029128541934840154 -0.8039654465913381
