# total energy = -381164.82505203254 ev
CRYSTAL
PRIMVEC
9.24079662016083 0.00000000000000 0.00000000000000

0.00000000000000 9.24079662016083 0.00000000000000

0.00000000000000 0.00000000000000 13.52483992765097

PRIMCOORD
 96 1
Ni 3.4014448533145027 9.284875289371657 4.748003581983173 0.3466433272934159 0.8813690214824821 0.871889364126821
Ni 2.3150690721462754 8.371209998323911 2.8787890888940435 0.44203022613585813 -2.1222785379360225 -2.359892435902897
Ni 5.639177697969162 8.461695879504207 2.4263023900530847 -1.3588982118558983 2.987466835893584 -2.071271707870852
Ni 3.9276527799822776 7.3763735491585445 1.1502472438040627 -2.8332137588425526 0.8027292601913918 -1.1505226419288508
Ni 5.76913102180888 0.08664170975760488 4.804293895015218 -0.03200020705568037 0.0434290177179123 -0.21150074581959058
Ni 3.98070419377477 1.3125720025255925 2.5909807796913444 -0.9079904807247524 -0.5861091908673648 0.11714588778608859
Ni 6.9277513514929945 7.566327365901007 3.7925273822356336 3.1198578227642013 -1.511034756784559 1.544503835076282
Ni 2.2123945801329703 7.193045383642214 5.114323548016349 0.9234564375708355 -0.8407443059825843 -0.02337544150114684
Ni 0.749664251806802 4.339662941165359 0.1368783768785779 0.7179201368647958 -0.6149096600388249 0.4364337058846871
Ni 5.541835145645504 6.241160157488084 2.067921192455568 1.3262583143336901 -2.5816508548947534 1.437740833186414
Ni 8.13933068700271 1.1262683004753502 3.479575789321388 -0.5110790013044038 -2.537945957807635 -0.26271403546861205
Ni 0.8581391919018954 9.065840685448395 11.497845571138361 -0.6584410076625564 0.6848333816131561 0.8274403897848266
Ni 5.362009242074367 -0.022900542355087074 10.697052915330083 -0.35292221832359216 -0.4061463677550554 -0.21913846487050648
Ni -0.019654250478183644 6.704974224910621 12.00504055861818 0.9291977109299868 -2.4525529369531114 1.2505066732236723
Ni 7.401471552966315 2.654455812149214 10.477584918042098 -0.945773355900481 0.9004792599493718 0.6866382960323788
Ni 4.3291376737364 3.5527259359128123 7.7373172196779665 -0.998557589581048 -1.6982748302845718 0.26993395025581896
Ni 2.59523154616836 3.560885559389345 10.873200057739265 -1.5684202366825635 0.4752038846743494 0.515832456828989
Ni 3.2289376607211833 5.3084957884474155 9.487242268306673 1.444568397631209 2.211535412621327 -0.7411410550659494
Ni 3.422643240919446 8.104733144198478 12.058422792932147 -0.637062027766148 0.006287632780924655 0.1455853740737041
Ni 1.8103737201708756 3.907544806386656 8.603529171567516 -0.38587784731400643 1.4849899959813653 0.09318886274985885
Ni 1.1059939925393236 0.007229075249933266 8.936524976580229 0.4762513521022572 0.7340329832662583 1.2685828139990927
Ni 2.194217933045384 5.583437212340122 12.263148023182236 0.36288652862515564 0.9852266768000967 0.1782468688624672
Ni 5.707513389485532 7.653274021949354 13.128385995100748 0.7570271301685866 -0.5923495153501218 0.659518042776819
Ni 2.3115760509977714 3.1083822271143453 2.1740101588455194 0.021109785395421708 -0.3804893293085834 -1.5191815542614096
P 3.168549054357494 9.124778486731884 9.890769378129102 0.4306515519852712 -1.0623993666273572 0.45024618628774715
Ni 9.09199214007873 7.441373313070128 2.5097911399803463 -0.29554316618349097 0.3263215850169284 -1.8159922743034145
P 1.0869487105629558 3.679278646570918 3.8129902024241193 -2.157075076789917 1.8400279750963793 -0.12076857214034038
Ni 0.8261022738602315 3.7831636829505033 6.3364549492654225 -0.7106225747621181 1.3545219371650736 -0.8299829537010223
P 6.150591109137585 2.43456181413386 8.500348283895645 0.30454099880672714 0.024092522172829475 1.055344002442473
P 4.248715020150604 2.062527339428103 6.116460226566156 0.07007875909495674 -0.08497907324555688 -1.2050979060715696
P 4.154458893921126 7.39290533443546 3.656589718460013 -1.391718343709713 0.3030942390578716 -2.0688289027573146
Ni 0.2875042869916256 5.731068180246212 8.249421842438739 0.5903232289487124 -0.45283837249495557 -0.10287112303462928
Ni 4.318982038175009 3.624009441573026 12.155747787742094 1.0735733809663057 0.6129877604257636 0.2900703159943779
Ni 8.916352317407783 3.217229571316012 8.528331264429772 -0.12950800889586728 -1.7206436848980753 -0.2607592257350864
Ni 4.41573317951056 4.245351370155747 5.105370140104219 0.9304416106394169 -0.4112191542922724 0.9342653552608813
Ni 2.9821067403569144 5.5512053134883175 3.2228202533129564 0.8477657316057401 0.6215567330416972 0.5700845333043343
Ni 4.068602651882101 0.5556186102903777 7.714879641237006 -0.50834437598206 0.32946861528634225 0.8195722998906595
Ni 7.536895428446019 3.398413872000457 0.39706317253835804 -2.160465847639021 0.6442729436922904 -0.6163523060226224
Ni 4.752966813884923 2.3118347933050676 10.307091295047348 0.8946045463361495 -1.4835272953929095 -0.9959301792605301
Ni 7.937890559975616 8.934408834138411 5.739752680974689 0.1411967580877052 0.46636108957173883 -0.6959073800391306
Ni 7.129487184014141 6.696371043193008 6.352306611906015 2.407517493980028 -0.3394041292324994 1.2560957372756756
Ni 5.271819066388122 6.742344006721602 5.213933791847528 -1.190822369989162 -0.8474800820445212 0.012352350917765823
Ni 0.5448429172711432 1.6100424887464817 5.3286250158754225 -1.1514937475928686 -0.46643385179120317 1.8688603259470395
Ni 7.059386500330141 4.435138852557805 7.946046487133473 -0.5668079194355916 -0.5190959580716091 -2.821151171251064
Ni 8.046238901156068 5.058846425092952 9.747635905971629 -0.009579416158318987 0.25090932952420014 3.2932939005015864
Ni 5.719840612268878 5.107453015677956 0.026074756017815025 0.5139154423119343 0.44813531059233147 -0.7042752923878517
Ni 8.83024657385815 7.979880740131179 7.694998067160269 -0.3211238428660727 -0.5572138479892533 -0.22639746042576492
Ni 5.804088955683989 1.485402623003033 12.24608027169735 3.140309919970966 3.730498680224343 -0.6509074182896725
Ni 2.169803748192612 2.2543755194918442 7.359000851382916 0.23660011199037964 -2.2272595082248032 -3.510674245030406
Ni 5.392624001505568 4.360131305831858 9.734070416431935 0.3602886859909924 1.441431394664124 -0.12579430748970594
Ni 0.5227879078131147 8.486451973834479 4.352834772766093 -0.8357175421919542 0.17250199595889 1.3395005240555768
Ni 6.799951133281852 4.613744970965973 5.217423116677357 -0.42656581195167187 0.3647338662465396 0.5240635864895298
Ni 6.066684675199972 2.245559799450381 4.340243263197438 -0.9206307951965822 1.2277884056905501 1.1431883130509666
Ni 2.7302211042036726 1.901099862065091 9.41485725968111 -0.25293972969066764 -0.9113974495237723 -0.6875772629068804
Ni 2.179719123040085 7.0949728083801125 7.911341751087647 -0.246386244842866 0.15237540041234401 0.7181775042912406
Ni 5.179457303479925 5.510675179209643 7.235951326749673 0.5407287058500365 2.0268798120190383 0.6267771009003721
P 2.538511536090269 2.874081827060583 13.37351014031653 -0.1763085141891738 0.976175622341422 -0.134816051372342
Ni 8.26428473983359 3.1226222948123477 4.295028969077026 0.2247802365373161 1.3997427566760863 1.353550831501056
P 7.258488705794876 6.781118389629335 8.693090973078897 -1.0977916300837223 0.1785885684726021 -0.5463139132472978
Ni 4.693539250376907 7.54462073447816 9.314421812705591 -0.4374284656977886 -0.944444095566096 -1.177134073868792
P 1.5525554925431904 7.800692451531593 0.4328324483627754 0.5836000512922658 0.12206749345742203 0.3452647017783344
P 6.541301233952141 4.083674391282128 2.2539014666216897 0.27175943350033194 0.47455570956738913 0.1896491971621379
P 1.1898265001034225 5.067181623706578 10.423485597905055 -1.9974177980041794 1.0807696416044292 -0.2772106864228903
Ni 2.7356177294701447 1.4118643629506633 11.616538984212333 0.7710730667386915 -1.3205021285762033 2.0502161727521333
Ni 8.695977797964591 8.276815260144097 13.379705170416944 -1.1987534519107805 2.256683984133507 1.1000539437553376
Ni 8.974162741495194 3.1426101380510096 2.055180906060217 0.7789249586829424 0.0009474515149338522 0.6742026413721872
Ni 2.6165777865203292 2.733834255709136 4.720709964882057 1.90028871965965 -0.6121796627021715 0.9590507897356774
Ni 8.900957150123634 7.471904905331126 10.069514108487608 -1.8464986704223878 1.2207677513983426 -2.2550688171275874
Ni 6.148243946778536 1.7576734566525711 2.058670230890046 1.570395101020747 -0.10879443049759971 -0.10443718197016852
Ni 7.420867985216871 1.908862131283989 6.812542642850507 -1.8289449778093405 1.5061316630559867 -1.154466457067947
Ni 8.466602742546154 4.342231882644946 11.963031896869241 1.5546221544572065 -0.12897373365895207 -0.0661107755861442
Ni 0.19404471743675528 0.9154885002345182 1.4430058477931471 -0.6649456415502936 -1.1942535071578981 1.0304456965388964
Ni 3.528561252570648 4.965662231279419 0.6939496404084923 -1.189147039169268 -0.3881440176403638 0.5460370054368273
Ni 5.785496472745391 8.566089159701697 6.970608318378002 0.4676021610676915 -1.0430590144275325 0.600155898768418
Ni 1.0164691542146993 5.35412684249851 2.159295114197694 -0.05017636374407488 0.4548217214735716 0.04211749799534037
Ni 9.204702137296467 2.148512952620777 13.103716764259355 1.0039846741338903 -0.6576681340522738 -1.5836874472542788
Ni 3.018460034532087 5.311933364815785 6.572923240222462 -1.8534992701099369 0.01298921317081634 0.28898942422537327
Ni 0.3285204871761505 6.187443406333972 6.050148269524712 -0.44041274513709316 0.14025907676478425 -0.9974957239754371
Ni 4.409236899438077 3.701863153679236 2.932009609265948 1.7237256662575091 -0.31656322007858384 -0.74660079262894
Ni 4.471445942749532 5.931602709197768 11.466291946763542 0.47959275777066435 0.5957258880215224 0.21657713190123346
Ni 1.8731187296903014 7.314940732768981 10.402861063774509 1.5937142353626617 -1.2409061740194307 -0.6047424896978358
Ni 1.5989165695327279 1.066655921033551 3.4900308266955085 -0.38731843641527486 1.5747628910711395 -2.050460684662772
Ni 7.735082795038526 6.248136958988403 0.42238757586501297 0.5248423736370832 -0.8660362477801535 0.5165050574159814
Ni 7.989666743825005 0.8220252343609722 9.357160497392975 -0.09000146616081274 -1.0283764727146933 -0.3527157587397409
Ni 6.598529487848136 7.063064337412428 11.114090993991738 1.02472267801219 -0.23563569119458125 -1.075691198640257
Ni 1.884836059892162 9.138473347425226 6.742254370993717 -0.4661631146283197 0.06754262293666433 -1.5092239288280653
Ni 4.614752217805092 0.3717323006540208 13.361554397560088 -2.198809480414226 -1.0026836959342795 3.354167853168823
Ni 2.2909136296007997 0.8075680079407745 0.5036012416474027 0.4634925097746921 -0.7806550540001718 0.3240808686118677
P -0.2016757673426672 0.8842536833454738 7.316384145211829 2.64791024024362 -0.799860423284029 0.49093492225636093
Ni 4.966918979629145 2.967487799994656 0.6333845348280402 -0.8367256717414945 -0.8149049763219772 0.7403697241175636
P 7.316483945816071 0.12952085455466525 1.3783840324661518 1.5508984257487162 -0.6803612047744153 0.04161844687173478
Ni 8.243289649755809 5.34549593839083 3.3050245325004246 -1.444422616081964 -0.051547533059988646 0.09464179314630153
P 3.75699374672679 7.6033459974378 6.627590869355889 0.8839216127010068 0.49392048724724613 0.6210936773623497
P 7.377519407948001 0.04272205125334459 11.579074946275124 0.9422054360435643 -0.40824978725130334 -0.3038254607969413
P 6.487113202166881 4.617432048844949 11.532252753530797 -1.2341133194673133 0.47158274298199426 0.439624702018159
Ni 0.5759187924571338 2.0784584729202225 10.663200180738999 -0.4073411593941049 0.4686002633149026 -0.28641909239503577
