# total energy = -381173.3015396059 ev
CRYSTAL
PRIMVEC
9.15811178847562 0.00000000000000 0.00000000000000
0.00000000000000 9.15811178847562 0.00000000000000
0.00000000000000 0.00000000000000 13.40382231855934
PRIMCOORD
 96 1
Ni 8.32560270675469 4.661817701362988 3.9719811065403974 -2.141290817372467 0.9297692671627408 0.20077873141639613
Ni 6.018738478320555 5.273268186591373 8.081365026040617 0.06958587861893822 0.04695682836551268 -0.002465687931673173
Ni 0.4693092652791184 9.186868162717579 6.05055192671624 1.0595032760264849 0.16435237026856211 -1.3901774815851542
Ni 3.095047953094827 6.766324293850589 10.330084403342216 1.122830575330221 -1.9260601721967994 -0.29159549438965265
Ni 4.080433296819455 1.6263066323778839 6.228099322277966 0.8515725069463399 -1.2289945101835091 -1.998772512259861
Ni 0.683046770814139 2.301405993865701 0.47489479760007214 0.3181974132478972 -0.2556393880100178 0.1411057410357957
Ni 6.723510121690468 5.580174825613835 10.851212096197035 0.8524798492519577 -0.3460702283987653 -0.44905705107565247
Ni 9.05348026592353 6.854113952530146 7.23479376028755 0.6243250398154538 0.24764094318557353 0.20368253532675246
Ni 1.915748752403692 5.665217050785789 7.949243696093573 0.30037889700923753 -0.9335860698056695 -1.450416885992186
Ni 3.9492250306081043 2.189438920319252 10.741032686052865 -0.6360837230132788 -0.5679713436160735 -0.4874641900989411
Ni 7.3882791331897035 7.116503010617772 9.106999354840438 0.7906828705498189 -0.2361771655203481 -0.2235399363723118
Ni 5.03094455122093 1.9617591055443235 1.2212973850994995 -2.480863096751715 -0.650782462676034 0.10122664545267082
Ni 6.09592304366077 3.0356392825487926 2.796506333291843 1.3473575582061506 2.2639746042576494 -0.5395364853141482
Ni 2.9686110630750107 5.207943375892304 4.914283945432328 0.9321346820711236 -2.0632586077583888 0.25468216630307106
Ni 3.074240723330593 8.462113519635713 6.108725167995024 0.020232267886474836 0.6922682406246465 -0.6411305414085668
Ni 7.2392949721841715 0.8816761394908594 6.47560095399907 0.36280990975094934 0.3636396047410963 1.5269442289259638
Ni 5.185432737353357 3.610631325131307 6.428459574064476 -1.199878052433527 0.02067758295400955 0.22930280699801797
Ni 4.5670953521325846 8.618671439010532 0.5875633825021289 0.3264198011576895 0.561110354830182 -0.6353851542843573
Ni 1.3647051718957701 3.2990540491459237 4.307787082818148 1.8598177561287967 0.9095359708350014 0.9608549328239516
Ni 2.3629393463242807 0.9965399237654897 7.614738171676088 -1.4206553384590372 0.44677005481368864 0.8869143767807436
Ni 3.001158992028395 0.7497929204478075 12.908832820066248 -1.0770698241553385 0.6017538393831572 -0.23543823047179452
Ni 2.5716618698967593 3.3290743392723146 6.808552346862423 0.630821703283391 1.2760408129390346 -0.027638330542558855
Ni 4.6577972903301985 5.329865316847963 2.48229426857267 0.6537238046925451 -0.5469898562683999 0.3221337721878259
Ni 0.509193757508968 0.024469558629867317 12.473328892475827 0.9036008362974889 0.03565271620660312 1.852086191812494
P 4.657659918654819 7.513314832120644 2.3216756424736156 1.2687345090856086 -0.10100964434585828 -0.207216773732256
Ni 2.4010187747396365 4.290364691135278 2.3523846225992453 0.6752475376969339 -1.0879461047482102 0.09206091979300275
P 0.8525350280869005 7.201270492438968 0.5849588155369227 -0.6917640472947183 2.260611601322687 -0.475717076865342
Ni 2.8393534746540565 6.410183646371911 1.400323815699484 0.07270154142978447 -0.9558261121507927 -0.4250192934001583
P 7.386246032394078 2.8386940906122318 7.973732486757995 0.44423546131729297 0.01600537428932082 -1.0279830939310166
P 7.7057176006579695 1.5948851511626159 2.8304984964590574 1.1113390297508539 -0.11982986237615491 -0.5663911436131471
P 0.40639395376621545 6.805456905110525 9.494905828534003 -0.26405615131880333 0.5248398025339219 0.17253799140314802
Ni 6.324472879046438 6.985935812224861 3.84988607727376 0.3809115044476665 0.619394949503688 -0.6517656525249098
Ni 5.80711283334171 4.129465826818448 0.5862015712935278 -0.4559820603302599 -0.3326508696690658 -1.1026888102750236
Ni 5.883390745624418 4.776403994853352 4.450055600519933 -1.284227205404569 -0.2632172003572757 -0.9555918846527995
Ni 0.44521793666213094 4.90709940680995 5.655166023203814 0.9051003036611509 -0.11556311668000097 2.7635438051502406
Ni 3.6415033196450546 0.5280887735519121 3.552709931924054 -0.17153269006708521 -0.39927560877715107 0.30984826995225345
Ni 3.9895939869464607 4.7117294100844145 9.165440012980627 -0.0443175909704527 -0.5742952289515723 0.1445535903750801
Ni 3.2406527708860096 7.1718729539076325 3.7412076816359097 -0.18404779181496048 0.11087625272729291 0.5187719990732873
Ni 2.248481266397606 8.622325525575642 1.6293416305926143 0.06806635665061825 1.2454619117109131 -0.7731510323136427
Ni 1.9653490853275892 7.905135482751371 8.265252582326719 -0.05490899333305382 1.0063534314763831 -0.3885808480674663
Ni 1.3805303888995542 1.3807501835801623 3.0716599674557856 -0.30852183783134607 1.3632094376367425 -1.9138397188712073
Ni 0.5166548711044443 5.284770774876531 1.274533488365123 -0.1604170397698979 -0.38785708252756423 -2.157754105134813
Ni 6.180333359125977 1.6670968618540727 4.538963464637084 -0.2102229075484315 1.5762088794890468 1.1726084180842966
Ni 8.942126785860445 0.125108963824476 8.126817650179206 -1.2308852994483188 -0.5331017854323981 0.8984010372641044
Ni 8.31007054932505 4.8721612107049515 8.427451898503813 -0.07011475453921474 -0.45139572651115806 -0.32934057434891023
Ni 9.004466052147922 0.11939979699568028 1.5396699799603504 -0.044783989083909966 -0.058530392135725 0.2502956071996012
Ni 6.432859130921314 8.6261536162629 12.167467193997425 0.03285946973218212 -0.13004254124309864 0.29120185849565977
Ni 5.407031565964793 8.900722962900893 5.367091209253623 -0.012544926544546137 0.11714820177893373 -0.2573167757124407
Ni 6.72119311943239 7.949762961026511 1.1152748418523304 0.4202645523239923 -0.5824620810330808 -0.06130358400548797
Ni 2.661393048255021 4.195605709458106 11.106567724505203 0.23300211022647613 1.6297757569719094 -0.3374886573773413
Ni 8.385606654560705 8.484468470275896 10.694493909867605 -0.11685329624633424 -1.1264321766385503 -0.6317745541149635
Ni 5.27485253991409 6.336094522783593 12.705617069054172 0.1840904721274378 1.047320103696732 -0.015379567779863833
Ni 4.408421908956911 7.080548264114961 8.212642893900828 -0.35184903986407146 0.2940879217942032 -1.2648434015613184
Ni 5.460011242103041 7.533920583427654 10.2129484915568 0.3056828257206542 -0.7777761897904798 0.9479269119083737
Ni 1.4707561052891842 2.2967170406793946 11.681779561768325 -0.7396963521996229 -0.48574617896656985 -0.267606587674223
Ni 6.1456973807068165 3.3666409134329185 9.630337815857706 0.13386500031298235 -0.13529684766350247 -0.24961015109680237
P 8.021049702437075 4.191457084861628 0.4491595879343697 0.4144669718056088 -1.8583830805647994 -2.714309236494145
Ni 7.280616372138496 5.190075899981203 2.0094609619144683 -1.5182253609957275 1.570217180681986 1.3104468012227304
P 4.180192607480462 8.64277558898389 11.51163100464257 0.2845758685387099 1.082968963248593 0.05144031805816303
Ni 1.3264608974699585 8.511567322772537 3.7572517775091328 -1.277160785476091 -1.5890137445631989 1.0776488365872603
P 3.464348807074916 5.261545803625608 12.841773463012712 -0.15828225281508224 0.3780182420602715 0.4787319524322659
P 5.583828912178944 8.972302763885601 7.633060805738281 -1.189506736501532 1.3531980761473277 0.9158835103195839
P 2.8508835372742904 2.2567968318139466 1.6508686879358405 0.03958136183704796 -0.40484770354828986 -0.09103684940386257
Ni 0.8653435630993382 1.0724148791337484 9.832735747495686 0.1387683511518707 -0.7059112853293779 -0.7219775947636211
Ni 0.9671973339043067 6.421988452342905 11.894310943993506 -1.0482444152832142 -0.06626092801076329 -0.578195849557559
Ni 3.9695835128994306 0.03372749373931485 9.344072644777855 -0.5508038306978513 -0.028636432789770037 -0.010181054298059886
Ni 6.794622858978884 7.439042546298484 6.940391606969353 -0.03392004978621255 -0.5119991991258279 -1.146997916605044
Ni 4.019412798615628 2.889640665954854 3.8197137624932815 -0.8002309192495702 0.673130234243615 0.2732226483094198
Ni 6.460809687805313 0.5732794756961093 9.872745705855717 -0.188931602269823 0.9095287717461498 -0.5539917415075298
Ni 8.432981566343445 7.204448357196093 2.506058652602253 0.5529861830611509 0.07239943680833338 0.19152173159450242
Ni 7.67451591412331 6.6632039561986165 12.819388290603946 1.3470557106950156 -0.9502977261333956 0.07778409815901442
Ni -0.040763670952282054 4.3060433783519905 11.840051879651886 -0.5737997773723924 -0.24011352446027678 1.6217724270514586
Ni 4.403687165212144 2.189631240664784 8.450855452932732 -0.029698298395381108 0.37937269920563693 -0.2077500205279067
Ni 1.006705427743615 4.790095371832898 9.854624550250747 -0.5106401139947722 -0.29800474035010616 -0.541011784308094
Ni 7.916876181940522 -0.1429150803872407 4.150132021662626 0.18772189823243798 -0.5291602842861468 0.6063432585260525
Ni 8.65145747886791 2.4118986114297374 5.154131227401253 -1.3527956985025864 -0.7576061426005082 -1.3295626961165747
Ni 4.773803091132821 6.832097852022567 5.683368428159343 -0.4553850501762093 -2.3751097670732837 0.3927838304052203
Ni 0.9891584857417339 5.965136050587251 3.296201297353864 1.6606259095835465 0.1408018366421317 2.161604075008522
Ni 0.41724540031007185 2.641382574207991 7.16675540109414 -1.0433143249714485 -0.12779102620476057 1.7585330037446811
Ni 5.84178544420764 0.16346496721293 2.7675676161562777 0.41602146077692226 0.03548276628764212 -0.004191412373528265
Ni 1.6645509068036954 8.376173799517941 10.547856057077565 0.3332499367056454 0.04006241523852455 0.9726385557224411
Ni 8.670570457969124 2.788535112875122 9.985217391356395 -1.4097047529848044 1.1103990344350876 -0.7691915334452623
Ni 5.310642440406444 1.5153377930058631 12.428560379280631 -0.22127325182532215 -0.06757656149839329 -1.0225855770645291
Ni 7.074274957605939 3.05316790832729 11.800604229349748 0.32065307387724135 0.3852504981426526 1.5501510060597303
Ni 3.243794003196367 3.1343820428119873 12.91356390056634 1.0480125017780662 -0.8947019911459624 3.116452396627078
Ni 5.090911866580177 4.142204760182027 11.617012480071297 -1.4626167704924875 0.541449643176461 0.18977775232020222
Ni 1.5635644091759597 6.863565123796295 5.445142131959902 -1.1196442071824395 1.2097847700242779 0.9910116589129899
Ni 7.105678122597823 1.2132025301749367 0.49884875454167954 1.2745074070136437 0.19411648890487213 -0.01723950380673805
P 3.8720770977146564 5.3179964040951235 7.019273170406096 0.08708763494812745 -0.6779304838457357 -0.47032675908770616
Ni 2.856817993650709 7.423354700970081 12.669547846155211 0.35019350653851944 0.1728364964801733 0.26630483814366396
P 8.105020428541065 1.2410431897186307 11.622628234160835 -0.10363885443858926 -0.35889129142283355 0.06427577925993447
Ni 7.25185074331391 4.282049125718938 6.022779953010236 2.1701334526357723 -0.32912125924925256 2.268808792421499
P 2.1442985877893608 2.613432017323993 9.349179207857317 1.1975031244434473 1.2550523836128256 -0.931305501301609
P 8.155206880613251 6.882284304094753 5.266107459059395 0.5842394846484776 -0.031748238945874356 -1.2936999207816946
P 2.1923237255022334 1.374101394491767 5.104926524902451 -0.1914615677805283 -0.39296586450903936 0.9440730853799224
Ni 9.186593419366819 3.3511728627851225 2.4487710007240873 -1.0781147204800852 -1.3056504082753515 -0.6861361595849796
