# total energy = -340866.91106216214 ev
CRYSTAL
PRIMVEC
9.29049375200147 0.00000000000000 0.00000000000000
0.00000000000000 9.29049375200147 0.00000000000000
0.00000000000000 0.00000000000000 13.59757670355328
PRIMCOORD
 96 1
Ni 4.239252338055656 4.781900792610757 5.8497455090471995 1.1350075770123873 -2.322047854251298 -0.7454592228253291
Ni 7.960150862941298 6.072749877875862 9.123770351299243 0.46326419581396994 -0.05180284360390434 0.9401886627238517
Ni 1.8451571095862802 4.029250015352588 1.173219355640243 1.7579552768643403 1.308193229301863 -1.2350535718933955
Ni 9.090915448892273 0.1942056960311506 6.45844101334254 0.49834664133939977 -0.7095542813986038 -1.0433510917466549
Ni 4.2029450881386685 8.351512915846392 10.11869119445692 -2.0718278374846384 -1.402367595893443 -1.1299551021901444
Ni 4.646213130113929 3.8957734903890864 3.018634740955206 0.9008788093806356 -1.2317800433484463 -2.00063476227958
Ni 5.3280517633426 8.679913292014684 7.44532557933077 -0.07424805998129794 -0.982863575884559 2.1681025382486725
Ni 6.722489854895937 3.2723813538921886 12.230150090352192 0.9555887993290059 0.0711341969426646 0.17317279677366948
Ni 3.9111957101593524 7.31314229110945 13.137272050547868 1.2753653841385648 -0.6730194196973636 -0.08468082527884771
Ni 7.386007634277039 8.315391475806155 10.56125130080176 -0.5812156102204893 -0.41954490054914845 -1.465799024875211
Ni 4.8663328006060445 -0.07291829898246203 12.054781799625976 1.439801829480501 0.42356456323150277 0.12354510644421303
Ni 1.2068630209740168 6.468710725230523 8.87502945644191 1.2373559947743271 -1.8441054875998628 -0.04272967765804254
Ni 2.65566908246446 3.1258702660746613 12.033352346540376 1.5862737199242163 0.7744787499861306 -1.1038535200070858
Ni 2.1177680702603263 8.489476749333411 0.48578691607200736 -0.11830956907688656 0.3248342018381244 0.6382581049567781
Ni 0.47015937638793237 3.8874213364291657 3.821830449936347 0.6859019320869865 -0.4867669069216004 1.4877621594098636
Ni 3.1703159885933077 1.0998365319659056 13.168899678718901 -0.08931343895485264 1.086840016168225 0.9652492052369055
Ni 5.825251122044604 0.6544288892598664 0.5618481891196989 -0.6751225820832953 -0.10679102691432575 -0.03852746665123687
Ni 8.985003819144664 3.630381243426786 1.8048196434425807 -1.4733891785176432 -0.19698455448128654 -1.9794663557320813
Ni 0.06622264007376882 7.114697342740245 10.809516522374613 0.6288959470155879 -1.0987725059397528 -0.4098502989692038
Ni 2.812436875478598 5.227463586563883 4.02140140615866 -0.930153647085353 -0.18137513007880376 -0.007018854519994362
Ni 1.741103578606172 3.456082288541267 5.796076184246673 -0.056956619890701915 0.3034791332011161 1.1949857573382323
Ni 6.989182770995489 9.144075654630504 3.7889105140725152 -2.2070542369215214 1.6333447052700902 0.05423202187068725
Ni 8.939257427488766 6.284313003543632 6.866789805180137 -0.7179839002231957 -0.26193910497580053 -0.7398997264596806
Ni 7.745614779245525 5.7434111618299815 12.090584575727588 -0.36856583839812007 -0.5117045507035445 -0.2804078532039493
P 8.635318921594639 4.140615164982816 5.948532259070823 -0.06264981362073727 -0.13862771180894834 -0.27490312133563627
P 3.235237959529825 5.32059149679108 13.532892865828076 0.2698457614173869 -0.8665440406545077 -0.05239753976510975
P 2.0074899084090863 8.650926951241653 9.258984198610358 1.504972866861195 -0.4896506562272987 -0.4634685985152921
P 5.840227398110669 6.982066252715956 11.422181854686723 -0.6519289175756514 -0.006028465582267037 1.3208800807409122
P 5.171822818971038 2.9022573698996412 7.6522536776230075 -0.40541257491282434 -0.5043568520892218 -0.5847524197291541
P 7.492300174271987 4.183760218364211 10.27348568657997 -0.012459308809275317 -0.06206823008565439 -0.2929108707669665
P 5.711823482782449 6.4569210885507236 7.279122360775259 0.23992583392950292 -0.08336467757058547 -0.764272241766774
P 4.0235363616425195 8.903777031523317 1.396851761852322 0.025739056637316963 -0.03318265739955576 -0.23626818257225762
Ni 9.102221979892523 8.101477855197494 8.431217920577156 -1.2543296465141882 2.0757012043971153 0.47799738825908644
Ni 5.606274182294502 0.6277577395511437 9.716202846132024 0.7446264425113884 1.7686736917231087 -0.4988518631105925
Ni 1.4651201686691104 6.567431512747901 12.60277786243395 0.5452703024741319 -0.6933655874538832 0.5824890776162742
Ni 6.599009901301596 0.8174231712439034 6.196456519519837 -0.450197849548315 0.16101482125489688 -0.7626141373380607
Ni 7.254491403513252 0.522225161952104 12.288633749059315 -0.1139777744707521 1.0578811670420296 -0.6934753735588702
Ni 0.19568845884761712 4.250512416586718 8.116257172794205 0.15299503627421393 -0.4147981298927824 0.09523777485908759
Ni 8.309835760491325 2.1162444292709743 7.2843166758798095 -1.1768512525210506 1.9251865113425943 1.258793595822813
Ni 7.21096543988452 4.449626280512224 3.188550440848188 -0.4648636790906059 -0.6910467095127195 0.4214102358926613
Ni 5.540562519381797 6.615862857122839 9.382749370365511 0.29130881638716927 -0.26551190992872337 0.14589519200463907
Ni 9.132666928198041 9.0316513887028 2.9478597589010573 1.2346301112027318 -0.32692116627414014 -0.8073078807010097
Ni 6.808222532028476 6.781661010147036 2.8682866791827872 -1.26041956146201 0.817269877009728 1.5651071131489305
Ni 6.61018636538812 4.523262734668326 7.921784839589918 1.7055885903371657 -1.0096722114369707 0.11011597752250067
Ni 8.328741915450657 1.5585639556867823 0.49188148002941373 -1.1748689319836991 0.25031771868678826 0.07237655399019793
Ni 5.383348782663458 5.660762928651496 0.7321931098279736 0.14741214286979776 -0.682787811938037 1.0054813132840748
Ni 1.0829185426878005 1.7257092303174186 8.340509254945246 -0.5158918493120147 -0.23639082419305096 0.9838686201103056
Ni 7.831793400082265 5.9768812719666 1.0845137204797008 -0.1869402828714071 -0.74602100886607 -0.796447540947738
Ni 3.355066749046024 1.518856385025266 7.851540344733892 2.6067119116284396 0.39069969418268197 1.3291510625004528
Ni 4.086200742576522 1.7687706692542757 2.0194031086569253 -1.883495816472027 -1.0881183686600164 -0.20317885621745654
Ni 0.5958235250834717 3.1672501256269294 12.868148741260422 -1.6070888568973547 -0.5459105071612921 1.58344164979206
Ni 6.463786763496643 7.530920757154515 5.627084888490524 0.9719677549076617 1.2269533113837645 -1.0190595661891417
Ni 3.2363621092841637 5.769006472352321 10.318670932408082 0.09542906493428727 0.5846251501226706 0.28542690368509555
Ni 3.5891593222697553 2.6659536591425836 4.510003341863433 -1.5314040644695304 -1.81580329822106 0.7536466437321279
Ni 0.5908549689791716 0.047264458348946624 10.596088794593655 -1.173008738846509 0.9431865690099112 0.8809306483934829
Ni 6.269680475749554 2.0514711062358573 2.363775701830663 0.923287773203455 0.7231854990287931 1.3573324100306752
P 0.6305736882332929 0.4957203120830727 13.154200259369194 0.7204855835991268 0.08610855886430976 -0.6541902028060024
P 1.3778452695595444 6.544967098648803 3.147866439284349 -0.843836828864979 0.6536060481677582 -0.07134785561536745
P 0.1922974285969261 5.15689299537416 13.725530326499454 0.38458355398261507 0.39221150284151807 -1.1130143605707477
P 4.85590886652036 5.791043523734895 3.4426073562793427 1.1044140204962463 3.3869612455497604 0.7014843599062758
P 2.564092684708127 5.817948793888322 6.540434266705482 -2.9775292650648977 -1.5895122814661722 0.6385956908018551
P 2.2494794013947006 2.7302810384735 2.7029539798998496 0.6319815279194471 0.07831271696897481 2.53449219493108
P 0.41435045085662814 2.153787314868351 11.083615820161429 0.5599911536240743 0.4057064520041594 -1.3021210549658542
P 5.262191452528494 1.1379368471935327 4.324967363249904 -1.0466112505551652 -0.7111609637640913 0.028701995920382826
Ni 5.800529117942991 3.0714930056437173 5.117597922639028 0.9459481909154485 -0.6251917586911232 0.8843260472282769
Ni 0.418103810366982 7.400825971947867 1.3565495995852048 -0.3570735214878044 -1.508563412425931 0.6172447359299047
Ni 8.821621194518219 5.969170162081467 4.37896371343351 0.22231274883343 0.7917776462758944 -0.06421921499038617
Ni 3.3753571875871455 7.205669858397139 8.059460667767974 0.46538561303234693 0.6566391785671273 1.8953863972620262
Ni 4.59651827857709 3.2397066870656674 10.099314940509409 -0.025734685761942776 -0.4507771190905527 -0.3953680461926288
Ni 6.629157553804315 5.250095229552057 5.385674193270986 0.601493386632919 -0.0821068939040844 0.4239900808046956
Ni 2.789015540514236 1.2997307973737633 10.298342402842227 0.05496607182323437 -0.14080055109055106 0.1503817670210829
Ni 4.827284855006992 4.933568104508103 12.000188070688619 0.3026023870231176 1.2267854183473323 -0.7720608845732574
Ni 4.508035615268648 8.036072778581428 3.3912495063455896 1.8958677077738189 0.6720244027739458 1.1444219283477515
Ni 7.8753472351925105 1.4966056522844307 10.008347070099434 0.5205594299910131 1.1195660456463363 -0.2130169253538009
Ni 1.1597044742548177 1.2206779853103937 1.7027291938103386 0.3573558286149136 0.07227396697406263 -1.0341671112545416
Ni 1.5743856666920613 7.789112871392746 6.646251133415949 -0.23308849929269532 0.5968965112908559 -0.6229019342156821
Ni 3.2872740155137166 6.743579275907084 1.9046394963809359 -0.677949252898813 -1.0520866718474395 -0.1764093014330962
Ni 4.503408949337568 3.3641528520191093 0.1115556047538972 0.025408926991407853 -0.0805482911677129 2.220395691225434
Ni 1.3800842785743845 1.2889073720530646 4.236379717361098 -0.4179063365044609 0.783025096894245 0.900833557964997
Ni 1.0759878342850184 4.6112065493341925 10.986393589300041 -1.0312411958569982 0.09378947244833526 -0.3620486061048926
Ni 8.690197868692808 7.993782450633083 12.861499534820917 0.554228282998368 0.3076186092907863 0.17057084037444817
Ni 2.574256484966363 8.556173204592893 11.796237575671304 -1.260501836763171 0.22791261151871073 -1.5947691589897373
Ni 6.451764864470905 7.639452306164302 13.443842553346164 -0.14591113284423904 0.1941475992531237 -0.30017963651423785
Ni 4.015592989411449 7.043327769080495 5.8740986805434625 1.5883761109792 2.0929268242467827 -2.454194843431909
Ni 3.8050332370781295 0.05690148760659539 5.941297751519554 -0.564343517055499 1.1736854531985592 -1.880830353824722
Ni 2.309969806770726 8.462673674612196 3.7662705096398885 -0.7203595995442238 -0.5101405486505344 -0.22255571808217156
Ni 4.376138474257523 4.908836809912652 8.184898128413877 -2.3637218369513167 -0.5497795031983951 1.1008751541050523
Ni 8.143517339812226 2.128080518419962 4.918964377244921 0.5918432651376646 0.8282723987678188 -1.421386817308423
P 8.318076428525195 1.7118385230180166 2.660596760395875 1.5542254332394199 0.42943053509397655 1.6076578420269476
P 1.9144549031202647 1.1495035120212322 6.4183413838410805 -1.1444777212863515 -0.057839536716287485 -1.7281783027122237
P 4.890432341620546 2.1617864300624468 12.048568317347451 -0.669933324572872 -1.1680678499014658 -1.5621521442856645
P 2.2274609309998024 4.247502296583365 9.183667094119052 0.17501730618157602 -0.4722450591563416 -0.2492705083691965
P 7.315093294815328 0.1421185423311527 8.262608464117728 0.2351088721568338 0.48907550045011894 0.25954489371201106
P 7.187367585537245 8.649496215190677 1.683760792542295 0.373096379278622 -0.7754616827246903 -0.786452120297923
P 8.569040538557843 8.172475809103744 4.749320888821379 0.7335987239423172 -1.9471547880835693 2.6977649589822184
P 6.772472711741738 3.842139469465143 1.1232875965105475 -0.8530493486021824 0.293709712519178 -1.2143158251254118
