# total energy = -381177.9964740888 ev
CRYSTAL
PRIMVEC
9.11945256060404 0.00000000000000 0.00000000000000
0.00000000000000 9.11945256060404 0.00000000000000
0.00000000000000 0.00000000000000 13.34724063083577
PRIMCOORD
 96 1
Ni 1.8612346888157265 0.6971566207052285 9.452675627027194 -0.5006698901559378 0.08158367441076272 -1.282241799543424
Ni 3.7560745606505663 3.969378558158589 1.1841700461912879 0.6632587407661739 0.7074673169625881 2.586487871272081
Ni 3.980194229002732 1.9743067822360756 9.174706502715853 -0.5411511380994357 1.0094081591423067 1.2063968273886514
Ni 0.9710940349995416 3.0681942471819843 8.765480184452707 0.975731592825468 1.649919836019952 0.564447389623215
Ni 2.45744626423597 4.567377546298438 6.693481265692275 -1.136662596117307 0.35215654380216127 -1.5038739773700616
Ni 1.7873215250789791 8.63376884175888 6.570339472654638 0.28501449873802526 -0.15578056943915106 0.7203948236575335
Ni 7.455553798148727 8.301045611785378 11.826096166481669 -0.4069027863051057 -0.33279973654210426 0.3178019775816914
Ni 8.398085707445183 8.87584471238096 9.384257845457968 -0.9072847129069793 0.3874639608542037 2.27198924703201
Ni 3.861057699569436 0.3319745229108504 7.499520503269961 -0.046944487070338506 -0.9727342007600409 0.07448228747929107
Ni 4.432026630051577 7.260643736637868 11.470458487831879 -0.4784349900171373 -0.5842651956800905 0.6307126885093525
Ni 1.3477912656563986 4.173161847098917 4.267073058554148 -0.15333699299466494 0.7753030456596389 -0.7879685569424494
Ni 8.558022668039271 2.2013173170786238 10.39204126236321 0.07769693776184683 -0.23329984397255302 -0.053738627174036484
Ni 1.6122553925368026 7.3737158300582175 12.443445721201778 -0.9317222771240535 0.4459035930483353 1.9536941318639836
Ni 5.978403096637206 7.139692436127014 1.9549972531927458 0.387318693525591 1.1368137769831905 1.2246686291146456
Ni 0.6501576975775202 1.35241482815048 3.3768922791462987 1.5121141058916667 0.4857901448306279 -0.7669842413812985
Ni 0.028481874519754414 6.644414962648574 10.857699665576309 -1.7076691270152786 -0.6533512518444748 0.19101213894793553
Ni 8.283600098863923 6.533969271591726 1.1640698606031121 0.10206508219356615 -1.8750440861602482 -1.169817742713037
Ni 0.5564899755080718 3.068531666930073 6.24451966833798 -0.12920950381884197 -0.5986829137673173 -0.15557642384814496
Ni 4.879554649449126 4.782432478715462 12.503094237101754 -0.034669783468043516 0.23213050625480022 -0.26886205734787894
Ni 2.7691126780382005 0.4893689801058252 11.552557272268206 0.1709030269028863 0.8615267899455743 0.18782654213110234
Ni 8.492362608951723 8.368119186033839 2.397537843935438 0.7901285407082457 0.7744304132466985 0.9640163612710687
Ni 8.255585140319901 4.527197237917918 9.522842519614892 -0.4778436362900415 -0.1758886530429358 -0.10637296554030068
Ni 6.140063633782342 6.727967387837479 13.117401542417474 0.6184906925218638 0.10823110179496198 -0.8713234643210219
Ni 6.781753919573363 8.95308647633534 5.860786779960839 -0.899405824379535 -0.15208615130669934 -0.5971016853231266
P 7.237562401978065 6.659133759227366 6.11126075452927 -0.31632102216079067 -0.9852888974965999 1.3171488958332542
Ni 0.32902711581403155 0.0912784254748738 11.404763774824255 1.5211553901583286 0.38684612476454666 0.028110127972654813
P 0.8641347106911901 7.651603791240965 8.540552532595658 1.087435740770695 -1.0857043599018852 0.022891045665560574
Ni 5.646391183970486 2.161091411434849 3.383699038605041 1.1046955562924072 1.4061412040032621 0.8079357440929956
P 4.760445478373783 4.255875282643926 3.1419669713479057 0.7548987709716741 -0.6118335922166624 0.6393163710179635
P 7.224959318414316 8.731064282092914 0.6640411522934764 -1.2394038784422914 0.4847241654599588 -0.03043877610583145
P 2.5556810081930634 6.358237419006024 4.930938205411459 0.32056719903165437 0.0715579147436445 2.519693439355351
Ni 8.291917039681678 3.685526474942056 0.3542396665583851 0.6589007209077943 1.2068873938718248 -0.02439771211807411
Ni 0.6936465433798399 4.103288600886583 11.407152159473565 -0.9529112524968428 0.9346991003641902 0.26438216719965435
Ni 4.944968483315097 1.0601272512317275 5.569469512804158 -0.6360958071981367 1.9351796179995637 -1.1704270941622619
Ni 6.691845235886676 4.9419499444876 7.520983135084204 0.6939194030748244 -0.2756058038296157 -0.17499776579755022
Ni 6.357726729657565 1.228645616770451 10.554878208900329 0.48295447515404566 -0.24920083147352567 -0.6289324566804781
Ni 5.634700045671842 2.453114524226722 0.4701725322753683 0.7424649160836955 1.2299265350794755 -1.153535974833878
Ni 5.979579506029191 0.7748698603616677 8.177774322520095 1.6782531357470063 0.3768170226633188 -0.2491280692540613
Ni 5.853475714770493 3.6358984136150507 9.457654848174668 -0.5005477627557766 0.1403953452323324 0.28238580286592657
Ni 4.890042019997832 6.420295294296408 3.979559515098219 2.8493590011438474 0.35446925109573785 1.345914655112037
Ni 8.390680711892532 8.199956479148506 7.194803112387829 0.5811402768978636 -1.296404207086735 -0.03715604022500697
Ni 7.360902999083494 2.21615466654188 6.136474217218889 -0.6913444432587964 0.500252343002545 0.7507798637072941
Ni 7.351455246137008 5.117189346630147 3.337397753605138 -0.16166942411976026 1.13388169093806 -1.2264360054277137
Ni 4.726165455858493 5.6021435997076 6.372119961776714 -1.3281676155412612 -0.3767632866072479 -0.058994733366653236
Ni 7.69556867247167 0.8517039847825459 3.7135496409934627 -3.3710571727249947 -0.39845954063375894 1.4523033043816214
Ni 0.8889916027821527 1.9731212533914395 12.72748840097872 0.5124725392178205 0.4595846900798536 -0.038594572443746436
Ni 9.018573265822518 0.47466112687021433 5.575222975481704 0.9525150454996887 1.2523025887818304 -1.2276002009391438
Ni 1.7369091908239833 8.144774671157013 3.8290301818589536 -0.046786621336235554 0.8422643421715366 0.5778664912425984
Ni 3.670680006026149 4.227741771215442 10.441306369474704 -0.5874381940914335 0.22012371160191124 -0.1789796332634337
Ni 5.971280804116737 4.063582504043919 5.127208889257854 0.549045453245848 -0.4080235301731102 -0.596218768497541
Ni 7.492022489300269 7.4189209568494645 4.178954523422862 -0.6820391066974706 -0.30735738520959965 -0.5543007881075164
Ni 2.785381781567671 3.719687944572883 12.676822545940023 -1.1831926213580461 -0.9302102113549011 -2.646187344015243
Ni 5.2285652218574015 0.16837701402263244 12.664169305386693 1.449481775772426 0.43995354611248744 -0.10617910436193971
Ni 8.23233053605973 3.1489014031437628 3.939144836784568 -0.021458684094408206 -1.0932968275371624 -0.13996185723933963
Ni 6.698411241795432 3.6064790593627682 11.725764860360101 0.940301019932 0.46443996128962595 -0.5101544326076053
Ni 4.139666097511616 8.000824111060213 5.688340666165309 -1.255723184427605 -0.8598342327345 -0.9409180846907086
P 2.7068997720527483 5.753982486347556 11.81556502256024 0.7497989878512635 -0.7508351424252617 -0.1473949164786171
Ni 4.996557226962078 0.7493089465260442 1.7942030640494602 1.6281451633470219 -1.2658255629689295 0.010265643592066193
P 7.395821383284359 2.5894503413598953 8.442610523068662 0.44859502383756933 0.04383602334834386 -0.4667637243267961
Ni 0.3318541461358565 8.962370079134107 0.4887825993003628 0.35655133043574727 0.30719283460727737 -1.5000425194391132
P 5.4790401083710965 8.614535916117818 3.873916127807414 0.23684899477639212 0.6705925554234258 -0.3267856691375404
P 1.9326400030734356 0.7262020773988177 1.679149313568038 0.7628095411783185 -0.8936331835618158 -0.08545112778596896
P 0.3550750084212211 5.048665779410168 2.355080408227951 0.17137970942898872 -0.5697006676023544 -0.0020944206351834896
Ni 1.671878373969357 7.226427550291135 1.6537361348653614 -0.97322836678764 -0.6878372014364863 -0.568580437954982
Ni 6.50355589700048 5.907873249833997 10.624510701562674 0.7640922645454841 -0.40677191715419625 2.6457158036954627
Ni 0.5383677991999083 6.86201422235524 5.460876894526003 -0.2346221623284024 0.07045593992871738 0.3891539469621169
Ni 7.444811082925791 6.870340282625648 8.859685042283301 0.4700231118043583 -0.9298464002575793 -0.6104966185727938
Ni 3.6328525164296 3.4077935444543765 5.045403751196888 0.4418129679187295 -0.36418982081761153 -0.4485914242931435
Ni 3.8989490253345416 6.449039809052512 0.6586807380251901 -0.4398316758226425 -0.9729375750200986 -0.21093561734473998
Ni 1.2656432361757544 5.123709755275646 0.29482187281047917 -0.4497052261826126 0.6849094862667301 0.7344757272306319
Ni 3.6944817774453855 8.154423052061821 2.3447763386775318 -0.07223822864012076 -0.6348022851976938 1.9029729513600324
Ni 1.5270979436813124 5.276068450716712 9.45099399995834 1.3711667448106062 0.4019431283069852 0.45973201429099536
Ni 6.064344818420686 4.71370828353716 1.3157710435080372 0.14200562714224577 -0.023127844266715006 0.2005293344097514
Ni 4.685465338676864 2.332983974454461 11.501317803657763 -1.2836260814854603 0.12526440312816492 0.997521692117366
Ni 1.3987416476178058 2.8553918195697694 1.5832765078475661 -0.2533768172280862 1.419618926774723 0.04791405007245942
Ni 4.220044953177957 8.850282886600072 9.727989166726552 -0.2582004638689747 -0.29790549576808045 -0.1268389467041364
Ni 4.88297444419327 2.9236691615681694 7.234364209933342 0.0582110611230933 0.8709280286548162 -0.5849853616755668
Ni 2.1435638234395347 7.497111143879554 10.303135718468138 1.0246368031666029 0.45302991968047135 -1.548606544390746
Ni 0.4021623902396445 5.345576918823004 7.522344669365006 -1.3761148328445012 0.844788651255287 -0.37082583807689035
Ni 0.011651924652244561 1.2700661707115128 7.978673872516082 -0.5605686233940992 0.2388493130358725 -2.3491858481186703
Ni 3.1073622963182372 5.74210895899589 3.096893164674834 -2.598430645456254 -1.4539125578502703 -3.252591280575901
Ni 5.645260371841756 7.4799756923482335 7.4493087969732885 0.4412987472864723 1.0963482127689763 -0.08315718954546969
Ni 3.3420605297456194 1.9115558285442116 3.15483360709327 -1.6633913881438258 -0.460241349827246 0.14561185643626537
Ni 3.413821502656719 1.7761501955814447 0.40205660458889236 -0.8093177120421867 -0.5491377558493382 -0.2409979839477591
Ni 8.38273766863347 4.9029642844043675 5.471781024060862 -0.8827134513255186 -0.4475758385444356 0.31654290836360965
Ni 2.4964775215824573 2.069459151197115 7.286511976027833 -0.505839093061703 0.2632570524562756 -1.5443755370285337
Ni 7.643040625201631 1.969072216414374 1.651427089454116 0.11586676396334884 -1.1936441557086734 0.6632654256343932
Ni 4.861370460862936 6.199704854120198 9.190936392598923 -0.3962766740498272 -0.5337003382483454 -0.05164369231822073
P 7.764694123566616 5.397758426892302 12.446235361767734 0.5522043105898038 0.6207792314457244 -0.4059131686983268
Ni 3.265329455139698 8.595366826645314 0.13756967907686066 -0.7559567799225433 -0.10099113240309704 1.1321528811724115
P 3.5668094403307076 4.693490457009786 8.352889700106589 1.3489112758465154 -0.1892041392049193 0.6866830332273851
Ni 3.198100850196169 7.015002160029228 7.820468695980428 -1.4715081594448465 0.05740630583361081 -0.16819539816373613
P 2.007319200832871 2.5961531390584165 10.723893584608534 0.7958728993911907 -1.4372888332506604 -0.1223289746489248
P 2.0131830088874954 0.9983247206155722 4.958727001529734 1.085872510048633 0.9441710444103674 0.965776281384969
P 6.166765391144611 8.235184924739507 10.085682370003887 0.5995774005571287 -1.1002218367917698 -0.5019158467478969
Ni 7.610529776500643 1.7169375895181873 12.545111203246195 0.2830481190402738 -2.0867001266107805 0.7751256395415101
