# total energy = -340872.0162074405 ev
CRYSTAL
PRIMVEC
9.20587918553806 0.00000000000000 0.00000000000000
0.00000000000000 9.20587918553806 0.00000000000000
0.00000000000000 0.00000000000000 13.47373473256051
PRIMCOORD
 96 1
Ni 8.194834071587316 6.722961324571938 4.00874600992958 -1.0963199306342022 1.6220657899221615 -1.9858334356006895
Ni 6.118319196379186 8.45975164958675 8.966177176051797 1.006898762456892 -0.0919058822723772 -0.6385632949020228
Ni 4.046618995852007 6.987685579113819 8.592604450204716 0.9519542879002122 -0.9518766405847413 0.3501711379410163
Ni 0.7176755920600159 2.8147343066907236 3.7835186583535663 1.7929269078435188 -0.5642077628085831 0.9402606536123679
Ni 3.8689915618769892 2.5596670191475352 6.502936215179872 -3.3127460956889276 -1.652806670649444 -0.036327373676124534
Ni 3.6478203205580058 3.7689420696541083 8.637754683422154 1.241135002200785 0.6440310028848134 -0.2638178100557521
Ni 8.253328226315341 4.32193001116462 3.6380565653637116 -1.7116761912921425 0.2502950929789689 -0.6495809861687651
Ni 7.947481310588365 6.590240168022685 6.232397527505126 0.491848692319882 -1.490572632275465 1.377012404958106
Ni 0.2907014037095781 7.502036446750626 1.1319106851456373 0.5372831705035973 -0.7206568190696685 -0.11764776712317157
Ni 5.879260932297131 1.455044400329379 5.147774680664722 -1.1002781439510019 0.11868777835191172 0.23622987313515448
Ni 5.9394765863852665 2.9289240289517298 7.116018293176631 1.9193840457282039 0.2539571152115885 0.0804971262148033
Ni 3.6149277151372887 1.2922660490701792 -0.04054821433979591 0.01169106318468309 -0.10304312983611931 0.31132305472556704
Ni 6.728190263804787 4.5337020500949805 11.600521364500288 -1.4201997389788574 1.5730093987151426 -0.7854486187340731
Ni 1.7228526243131694 5.709835936449697 9.496449611299889 -0.24697425613585208 -0.4483764800688601 -0.37059392457174245
Ni 6.823222552010233 0.13901245421074654 11.309839293136465 -0.410598489989138 1.592612774768367 0.8184068188276487
Ni 8.329847491990405 2.300355821417124 8.235698968162339 -0.1709117686536347 -1.3754735997160763 0.15098597626398513
Ni 3.6485015555989047 4.898162796976087 10.652360943406723 0.6007673071001718 2.374100866192795 -1.250288386565279
Ni 2.4459283849541515 7.265371711190649 2.610670350189349 -1.0710729831419552 0.7443022264027503 -2.5404139597321542
Ni 5.6723127739266515 5.354378539163179 7.3641231744842495 -0.4425986970448184 1.3140607438262337 1.2108430360854632
Ni -0.4348709912975106 4.34693317834141 12.673368051012066 1.5779934821932953 -0.6513817868229298 -0.24233135804720202
Ni 2.4735920511420204 5.51459765607954 7.3105919090879645 0.38724130332043627 -1.453754435005851 -0.86422541982366
Ni 5.378580794872965 6.698455274857427 12.798471342745858 1.3716385422407023 -0.11075926753345441 -1.1111662516184153
Ni 7.666020768149796 9.220240102203604 4.625344733678008 0.9867996777141715 -1.015123207249213 0.55478801215658
Ni 6.277249490245198 7.910151471522871 6.513392252469783 -1.2952040161310467 2.87725675599538 1.0499953365360497
P 0.45221578779154176 6.4861492949490644 7.672873624426085 -0.8096936073243668 0.2184949177492366 -0.3007103122067272
P 5.367395651971713 0.1471329600158444 12.832842412322904 -0.6732677882627437 -0.9167142337509954 1.009406873590726
P 4.912036056525212 3.141478567591231 10.647174351216957 0.15674087646989135 0.5914514290158847 -1.6016085505090738
P 6.38650486139915 0.8359932304337144 7.349463732874411 0.5583711015221481 -0.872599245709652 -0.8184438427131709
P 2.5896965962206893 4.529559404575998 5.456485545327155 0.09885788811017814 -0.6498180418802356 -2.0525720745788196
P 9.25862861734617 4.650800830098205 10.4942334021835 -1.978672399075876 0.1880044624698633 -0.7791175343097227
P 1.9854134973062492 8.97955239755075 0.7798005454384562 -0.8319925279318832 0.5844564857552902 0.27755727112903167
P 5.583982365583024 2.5996113278294533 3.328281501096847 1.3969178856327813 0.3562875352513993 -1.009328712054623
Ni 4.779627899859615 8.671937953069007 4.445402941739719 -1.071396170809329 -0.0688626272996685 -0.41546815937661347
Ni 1.110781351823043 1.1378742535171853 10.384112678410027 0.18129285477764262 -0.45754606238327006 -1.2041633100724423
Ni 3.7669628056839284 3.9020959025131217 12.596769614778195 -0.6011845971432485 -0.9486524772204887 1.9414166000482111
Ni 2.40362737126588 6.881403706854603 4.7854395712288005 2.278916827389778 -1.1601568225845051 1.6486499681685929
Ni 7.520218057639491 8.353966894789812 0.22783813884086568 -2.2576399202888733 0.5037801536501453 -0.8654086414984838
Ni 4.76445661138121 4.166341451350587 5.3999089751804705 0.21263794474782732 1.0775992142962474 -1.6464953837194354
Ni 0.46670031770168907 5.392987995400091 5.062485894719921 2.3318429859648484 -1.2440359778976637 1.128452549502689
Ni 6.805004117605644 2.7268826040515113 1.2556956950164992 -0.05308993784644405 0.7266346339196582 -0.08286794043982502
Ni 6.663859581834461 3.8077908787432286 9.146037956255492 -0.7831361685508126 2.5242620325626395 0.06124624840499129
Ni 1.3922050707458875 1.4547129886878605 12.649519301053232 -0.8506710781779929 1.4481663993951124 0.7353074791033078
Ni 0.722205805081996 9.077429302345898 3.034271504499442 0.3773785515937436 0.1104317089907066 1.5041028055514163
Ni 0.9486105885732938 6.244734325860655 11.697882740075295 -0.32263282331143145 0.6171079532417243 0.36469915635386224
Ni 7.752095736155311 6.110816405050363 8.875040815809978 0.10543039912137327 -0.31741194123212435 -0.16129198617568352
Ni 4.33198283095735 3.0924572622832773 1.5258597034187504 -0.5784218495254362 0.9342473575387522 -0.2774737102762898
Ni 1.9234763438580025 5.446805563631133 0.2343227599599122 -0.423578961409206 0.4337037085480337 -0.6613494395586029
Ni 1.579167265957011 3.3884999169486627 11.098247689433153 1.180283161020735 -0.13272471606095207 -0.12187337516874493
Ni 7.99900661496557 2.573696778638488 5.3227848832596365 -0.1299900907386084 0.32794497955296426 1.4471860377597143
Ni 3.822925343705909 1.35398226142408 8.63149008280956 -1.5071567618863915 -0.9906311356451197 -2.0614331245138753
Ni 6.11001549358336 5.082593375481166 2.740988772337592 -0.1285569578365076 -1.7946176652823802 0.13343202654062183
Ni 3.536337126702734 2.7985227538931072 3.8552932140275558 -1.1338091858289117 -0.01861581532897439 1.0298926522489036
Ni 7.68926561245075 7.2905497900671286 10.883220451712766 -1.6402635438771105 -1.670542140255994 0.049288047601850606
Ni 2.3175431973814336 7.725067275613687 7.526508434713093 -2.5840877464710204 1.1078996650520017 -1.5896467501615075
Ni 1.0121035355608914 0.8366634184198964 7.926220333197056 1.315005110017374 0.29373722332300384 -0.12232948886955705
Ni 5.028251072151053 0.8231243322759701 1.9538667913852545 0.6396763254605435 -0.597000640968888 0.36131558459360996
P 3.153004328012932 6.500851083601985 12.133663272211196 0.2738116880436704 0.19455948997956168 0.4706347772464282
P 7.734797889643828 9.0235657047202 2.4248137810378467 0.07956381576725652 -0.36921761304950607 -0.24828166209336594
P 5.601814153072509 6.462968891800627 9.823376148603232 2.362757416155518 -1.879382822744918 0.7164983168166047
P 5.852214059997644 4.350495853487734 0.1279690818450336 -0.4086552502198382 0.7658275020690359 0.8773388172771664
P 6.738482436449724 4.742417737220226 5.643540719915483 3.1193322892780344 -0.6003836985085079 -0.6315063880552415
P 0.6622341067855331 6.056584572267424 2.818934028659078 -0.7179481618892538 -0.4083009522042129 0.03777721874877365
P 8.297000915964341 0.47281762425138585 9.889424647582096 1.2182850941858052 -0.13189784928428253 -1.6256342239997101
P 2.0099103411418295 3.267866079435907 0.42314086036353976 0.7128892593091077 -0.5494406318017376 -0.740934338371782
Ni 2.536458998362305 0.3722691733904407 6.187461791266782 0.394882621915778 0.9056646608050531 -1.6670230713591419
Ni 0.6343504200912117 7.841742585186082 5.567077610101898 -1.327382143525488 2.244300265757173 0.9862368632321659
Ni 4.2074917301724755 5.55411849433063 1.022397549381615 0.028162835587461178 -0.02568737746377512 0.2107805798241144
Ni 5.674779949480179 2.4425406215075176 12.451078295402958 1.2587041214328 -1.5843996428299552 0.6261860042835925
Ni 3.6428859694509512 1.3597451416349307 10.845776459748528 -0.12688342678882664 0.1220232704830479 1.703223946759731
Ni 8.18671448637011 5.2801147138262285 1.3564006458192726 -0.2785713142158428 1.1465813978929158 0.07710532692443496
Ni 0.5591696892127263 7.750153295700855 9.822622187118778 0.7898449480295558 1.157505243894271 -1.561445605136943
Ni 7.986661531319004 1.8607474848216838 3.067915309640935 -0.9792848573943651 -0.6057573041155956 -0.06985661578182163
Ni 8.341990046300488 8.673401687819048 7.754982699788095 -0.7083260654184576 -0.18494973480393953 0.2719584368850155
Ni 1.0765170704415963 3.05466712927123 6.173220296560415 0.7867997334453287 -0.1884268947192626 1.2278236298038596
Ni 2.3437247170613995 8.716844230494772 11.91071345508273 0.9834952959312869 -2.018673622059162 -0.6546049217459178
Ni 5.663751306520756 6.53011657272386 4.826264882524422 0.19167419801196667 -1.4950694917045542 -1.6375224907968637
Ni 6.601637046139352 7.218495375673634 2.127933391389734 -0.5068009427543401 0.7085332963332571 -0.15694656472279422
Ni 4.763029700146894 8.196573982705287 10.81167512242416 -1.873339958984948 0.41971279358558033 1.2322662389562455
Ni 2.0239032771170575 4.47877977639221 2.274541616306507 -0.005046304174655825 -1.1865147437527437 1.3228770565662828
Ni 7.866966693457216 2.6398041952425095 10.673973585373199 1.7557487561313248 -0.702470635078945 1.5230346094589124
Ni 3.854658008381312 7.982242709432089 0.5267705189027144 0.3567094532801663 0.3255263428091426 0.23675283551815998
Ni 0.048566534888758874 3.217832127445535 1.4618061184042508 0.23184562802452974 -0.4917530472822822 -0.48778609221473407
Ni 9.134109898924503 0.7720473542027081 0.9206127489802273 -0.3332802757229486 0.18942859651089958 0.3150133590929607
Ni 3.82799778299693 5.305679439617812 3.381044996190281 -0.5115132606283449 -1.5728407343477622 2.0807037998180293
Ni 8.492662666765328 4.3618467022097445 7.256804720257394 -0.4806638793476561 0.8277502077157615 -0.5877955774308522
Ni 5.9535247576340815 1.6320550404160148 9.326842339049621 0.5172653326207737 -0.08411518258336481 1.0236443573463465
Ni 9.19063399556128 8.622502383209156 11.970941076813476 0.26683911338057914 1.105549162541954 1.113516754128463
Ni 2.115612243028388 1.7290942102284355 2.161617702398523 0.3864290918317861 -0.5279876041342842 -0.9876501986399249
P 1.809360268628445 2.8640778177612645 8.419453835153877 -1.1707001453179904 -0.9297792944650697 0.03579361265984158
P 2.948366845254152 0.6657378643066987 4.005943740382962 -0.027301258918114274 -0.2694305282568392 -0.31198228557612073
P 4.517978408880711 7.08059130928619 2.7086522020043113 1.9673880844113085 1.6567623128630822 -0.279699257172699
P 2.793744902727881 8.699261001736428 9.290476355508211 -0.06656740350758858 1.5067849803692694 2.1178030186631718
P 4.227505310968624 7.23177945897117 6.271915603992535 -0.9188685610898368 0.17485481246178275 0.7063203478423384
P 8.148942765115926 6.464662773523944 12.835065632084758 0.3013520595557842 -0.06655660487431118 0.5197405336341436
P 8.181218576648261 2.1544794638753704 12.956397275220489 -0.25381519031708544 0.10547642186796029 0.15246590324362128
P 0.4618202812803283 1.0098757128595723 5.48359409701548 -0.36192442182220247 -0.622526038933502 -0.08147234564387903
