# total energy = -381161.91895542084 ev
CRYSTAL
PRIMVEC
9.34068596484372 0.00000000000000 0.00000000000000
0.00000000000000 9.34068596484372 0.00000000000000
0.00000000000000 0.00000000000000 13.67103808056027
PRIMCOORD
 96 1
Ni 9.1220389941215 6.183197712765049 6.290468016245203 0.7929210158517183 -0.8845548754096314 1.2557218988760244
Ni 7.235836954540046 5.649125322691318 8.043765174328797 1.3004243839897216 -0.13105375611643236 -1.3131325755850094
Ni 4.262724697106143 4.680907198874352 12.886703381058249 1.3922436200855637 -0.6099821408302204 1.1715061861590534
Ni 4.366387627743257 5.793999358930427 10.953850220484364 0.9799538584369315 0.3589540263399689 -1.3248159254602088
Ni 5.008821313394673 6.603192307571969 1.506917889619443 -0.9586838933145617 -2.0274634524366504 -0.3702105730903947
Ni 0.9472949876999055 1.791543530023289 12.214074060529322 -0.6216302665921101 -0.9222449337612375 -1.2176222637908254
Ni 2.6976087307496655 5.398374613288423 0.9363813304502746 2.6101361068186404 0.2579166140799687 -0.39234082933053077
Ni 6.91672176601181 3.468915857922101 6.694488170254177 -0.7786529359684784 -0.41085200076084083 0.2735085549809547
Ni 3.4970780255082334 1.961665439889369 8.372116432942992 1.5154840508051641 0.034027521898354306 -0.3920798623596602
Ni 6.774313670815069 0.8506478461420433 1.2740247032650285 1.7735672723699842 -1.4437513010465524 -0.5691658781448068
Ni 0.5101546300999164 0.6428409395508382 2.8885538313951042 -1.0762666115277528 -1.0949343631405852 -2.8936735067905066
Ni 2.666289411374441 0.96609778814796 10.195736811957174 0.12373665362972884 -0.30883474108607456 0.7952224102913853
Ni 2.4074216460404188 8.872913564041985 3.903929341373048 0.7554340746498538 0.27939458144808654 -2.616862112688564
Ni 2.7450500737579464 9.253397058056418 12.475737493113272 0.6628265383247617 0.4462671470353411 1.1487786626545506
Ni 7.59391214340054 6.986216468114904 11.73468578120725 0.43069114697395505 -0.4837594875538443 0.35619548975822524
Ni 4.937411770709438 3.3983189548985555 10.322440412174622 0.9423033950740093 0.7597573846155561 -0.35742164885584254
Ni 1.110019074438882 2.554294589033569 0.7676044793345769 -1.774228817213383 -0.7983938660408315 1.245517961759829
Ni 2.100888361239719 3.588046964188613 5.578262210123426 -0.08534956921109817 -1.0314057464593205 0.5745680229969847
Ni 6.945603166401967 0.9554961098029318 3.6924515452755906 0.359096208344788 -0.11142929701728552 0.6738439724811879
Ni 2.876445500435932 0.3963318355545316 5.934091898125643 0.295151330061711 1.832181482468767 0.7460292363961861
Ni 7.777755520657675 2.538704984489206 11.307821112019038 0.32692502292888215 -1.565893870716284 0.1065377732529391
Ni 2.691546625687178 8.297228418878296 7.72041772107974 -0.663369041091793 -0.5327695989039599 0.9308000224201003
Ni 8.686809740829345 7.710362472852054 8.657116634846076 2.0977728394851742 -2.6854946262552977 -0.09290321318863999
Ni 5.390108106385032 1.4451909017998084 11.415522021113029 -0.1250533155586233 -1.5227821271284743 -0.18282728914429802
P 9.130454951997157 0.13095734851553448 6.67154838008012 1.827874627563297 -1.3295351853127488 0.024617798548680184
Ni 4.191025593162145 7.242254005661662 4.645199625326005 -0.0005193628385797507 0.7932830271768274 2.6537407308824683
P 8.330462578835663 1.6365908938420775 13.44773485839138 0.9585602232525039 0.4669390735623958 0.21836481992927553
Ni 8.503171858659075 4.906008385162314 10.819943083403754 -1.9334693201766764 0.44981424095665107 -1.8055037160672645
P 4.82622024734449 0.9890758751336602 13.719432989694328 -0.20945774724763283 -0.2109764978850044 -0.8586471544049341
P 1.3509060196723055 6.7291421144480585 8.93243708408929 0.14323230046049526 0.2829020803807128 -0.12186566185926108
P 6.373579570058765 4.599017406759055 11.494143507278613 -0.02355567583275298 0.24411364675860533 -0.06357721053101309
Ni 9.224665108638527 3.8204899294890797 6.667625292058172 0.1468020200896246 -0.5827194484595255 0.05315935763179877
Ni 3.462816390116547 2.7849628240383923 0.7111876713732231 0.7772475709805194 0.8833315445254916 -0.65888837961262
Ni 3.4605933069041095 2.652278382724624 11.672523517430895 -0.8585224559016117 -1.7978492848458005 0.43681937135887994
Ni 3.3842051787053062 5.855106125215164 8.732225089094865 2.4919139552492378 1.9825794474397662 1.381107658073402
Ni 2.5302703452420157 6.262397387379583 6.403268005699151 -0.4993403727112369 0.41767339455804847 0.7677823118025616
Ni 0.19840270416144773 9.23281952731272 0.40651224897148874 -0.4540372778990632 0.2581945503317037 -0.26984139054201267
Ni 5.376171803221347 4.293670389050706 8.367809442736037 -1.5949550497482983 1.2620025896784135 -1.5072956014571008
Ni 0.4230518012583096 8.292978406854518 11.591850816670979 -0.16882583265888343 0.05021801561528771 0.6195574432234814
Ni 4.963313492340067 1.624186463144106 2.273753630515433 -1.1226873648841376 1.386385875753206 1.0819988860258396
Ni 4.152373835460183 5.023364761133183 5.593655660266692 1.074163449141821 -2.211730045130636 0.3066328483387493
Ni 4.517080911214924 8.724256550067423 8.958166003033238 0.8931325897763133 0.5849151705592636 0.5576326806942267
Ni 8.791901796388741 3.998327245798326 12.843064631225527 0.46908260226795984 -1.1355716770459734 1.9841534767951052
Ni 8.20824904626619 5.087264392462116 4.23352384526277 0.9307676265202679 0.4717223538836522 0.2688805692906402
Ni 0.7365448310236622 4.793845430477645 1.2212068615295246 -1.603740252140096 0.27800567152035993 -0.5346670730369889
Ni 7.09784700371088 7.419596265625282 1.444727603785788 0.6933285635683608 1.8135790368762315 -2.063628846613614
Ni 2.1210922645527552 4.342017778578341 10.3802685977553 1.2120550541156931 -0.032507228599085954 -0.1967367001365386
Ni 8.525673570670682 1.6272315267039996 8.071640582861896 0.8611930607552395 1.4298701721890859 1.759668145790389
Ni 6.384676304749419 2.6783482366990503 13.34189367983351 -0.08068867340031911 -0.13004845478036958 -0.638747642998687
Ni 5.450355529579245 4.974811876518683 3.3396977450962972 -0.30827809725165617 -0.5264477704509901 -1.2307086646611385
Ni 5.073187979011934 2.8063249723864803 4.679022248486663 0.97567965654161 0.833065706391404 0.3675937042928379
Ni 7.090776104585606 3.1706957834536253 2.414988535579897 0.46601141954180386 0.17158925433663352 0.5647183838964145
Ni 8.09735642484577 5.572914667522079 2.071599706950141 -0.09166934078153889 -1.0123659562190501 -0.2935783291476364
Ni 0.42228399688829965 3.4356349945359015 3.162138781222894 -0.2162701421837759 -0.3283833526419635 0.47190053133272925
Ni 3.1348742535389262 3.9737892642896124 2.954748469216877 0.8212522586962436 2.8126516184204853 -1.001790751806365
Ni 6.464156199936949 1.0066083423174648 8.86784157167075 -1.5010249379570408 1.2617061414839175 -0.2797535074494021
P 2.2987614485182033 5.332130469832087 4.475104803448648 -1.0428679814626491 0.9425797886638477 -1.2007411717647707
Ni 6.736343783174064 5.035507652629692 13.642301342908508 -0.11529109396553694 0.8734981033748376 0.3714318470920055
P 4.5193506978561935 3.033518472286149 6.8209862753847625 0.16372013600120192 0.1142351418971968 -0.411170303332208
Ni 2.5053307142453414 2.130591741977331 3.5936924746659127 -0.5865269951310736 -2.6930984067444843 0.0805176950400936
P 3.459285610896793 8.098766868396519 0.78856871446901 0.07456533411140061 -0.5507896896304644 -0.5277708601377878
P 8.01158090745159 3.069143847799751 4.727964639697628 0.17379551795933296 -1.5733739811434129 -0.022000929751123402
P 5.3324106904050845 3.6857411966209046 1.251110132942541 -0.32399267977343554 2.191330655538678 1.421190642137217
Ni 6.920598150604927 0.04481193996499858 12.62737698805309 0.6295621198446769 -0.011934546654056865 -0.22005943402287906
Ni 1.4901196003368888 1.9245735767104197 7.367746118935192 -0.9277334676796345 0.033092925899226876 -0.23727939744559134
Ni 5.091897372602323 8.226341954595988 11.443629078653139 -1.1820194269855513 0.6927595784387682 -2.1140623206738174
Ni 3.19358046358166 6.614466515292188 2.9790286477984336 -2.291554313648131 -1.0855832609429883 -2.6286886730098473
Ni 4.991083351124004 6.905101952918228 7.213098923178546 0.09199432822112544 0.019556067755056646 -0.22178155892030837
Ni 6.044021494843531 6.88714915487493 9.418729998329992 -0.832259922660657 -0.07924962696094738 0.8438386286371918
Ni 6.549623474700834 7.093270067685274 3.6853012503213005 0.15662029173162703 -0.6451586887313533 -1.2513934467039998
Ni 7.117621235478655 8.417088098634599 7.3778349936316365 -1.8795113779029824 0.0017506641425195655 -1.352199202569168
Ni 1.455605766429506 8.025704024330606 5.667944002305176 -2.627512650423875 0.34557194860610807 0.6898724866989603
Ni 2.58716446224604 0.8649456338448933 1.4396145123971813 -0.03497574474423654 -2.571651063369565 0.25996166953445554
Ni 8.431313963057047 7.869667868600476 5.074538642173776 -1.3086493430026753 1.7104862847490994 -0.34708324304431193
Ni 7.3922654190723724 1.1933566728479947 6.215140989949479 -0.768720764456431 0.4555755689204605 -2.4029080202324744
Ni 3.005440370871915 6.750933934341407 12.542151637050559 -0.18524772566033257 0.6787396100105922 0.9386727402999576
Ni 5.859879215641867 7.281681040282248 13.196611455626401 -0.7548671464027902 -0.6123431848632294 0.17893335340653055
Ni 2.4744130443580783 7.947989518752953 10.493341335233632 0.6321949294818339 -0.9576672791245895 -1.2253761967046315
Ni 0.8819363412542383 5.548227235041101 11.867609344076644 1.1001362190564987 2.4956032311753664 1.4519068402741513
Ni 2.0893245922607364 3.795755793579269 12.793521633919774 -1.8538160300194073 2.0488313765894652 0.44247811230655415
Ni 7.336127897615437 8.69163887537065 10.072192231665968 -1.2316221776143434 0.35055423231204785 1.592095725922632
Ni 0.2533791783776003 3.5216066663311802 9.300653455486522 0.408565004498877 -1.0423951555912887 -0.650878107713634
Ni 1.83003649606722 4.739155715314526 7.938320040847426 -2.8933343782835332 -2.218742986113359 -0.587363117879124
Ni 7.302492088170109 3.597284902411726 9.329621724254308 -0.3944092818237853 -0.48629716637403336 -1.0136985589875445
Ni 0.6946565257035922 1.3760137830127777 4.838494842510306 -1.0671448517321427 0.8586890633864631 3.520896436979046
Ni 1.4687854740461004 7.431141353232731 1.3340610269609186 0.08867349137800858 0.2888582979641477 -0.5056786562244387
Ni 6.386497738473897 5.370875634391716 5.453896583553342 0.0966066301821562 1.3783720043097938 1.5312688244432466
Ni 5.161980537908708 0.6047757769150149 6.598477129397017 -0.46713859116771156 0.0040332895291091825 -0.09387046219791575
P 8.098234449307826 8.454908535303339 2.9142145633329557 1.5970630972302367 1.870117081172276 0.6627157237785102
Ni 0.7754104904296784 0.09740373710495231 9.094575509830705 1.1578366590917608 0.028563413459989515 -0.5227975752929125
P 4.165254641132248 0.9908225833720041 4.271638513533156 0.42691239665781316 -2.1643176172849437 -0.4330254515340865
Ni 4.71481388820691 8.59537376786064 2.588310564389595 -0.10312463380633208 1.100704175744827 0.6493452160088752
P 8.844779418513152 0.6671724919041108 10.666212208920808 0.2109595286041399 1.2722916303092475 0.3565814123427343
P 8.93007856093324 6.665550725749421 0.21849078297097893 -0.01697699417397076 -0.3077595057440248 -0.8219351436958813
P 5.940227794605685 7.823730376000609 5.461729682637166 1.7185850025968337 1.3803039312251841 3.2628756932210448
Ni 0.6638892408571703 6.856586431046796 3.4061529880509562 -0.18918125638678387 -0.37504141882013475 0.9889051540929487
