# total energy = -340896.4127295664 ev
CRYSTAL
PRIMVEC
9.04494832791333 0.00000000000000 0.00000000000000
0.00000000000000 9.04494832791333 0.00000000000000
0.00000000000000 0.00000000000000 13.23819615529577
PRIMCOORD
 96 1
Ni 6.478317522092758 2.029252219542936 11.376535053584684 -1.0912139768662046 0.17655019788633464 0.9042968339232492
Ni 4.522401742590714 0.29392101886936345 5.765789968862208 0.7007518526156254 -1.1613043059253871 1.101696364454767
Ni 2.7418313289782503 1.4908154978860244 4.661499478551351 -0.7627336936350606 -0.016914259256835387 1.517547361092096
Ni 3.265669504233337 4.24878301446084 4.908100946394823 -0.3038419158571735 0.2516202395482957 0.06787506657541859
Ni 5.257774121500996 4.364639756010393 2.7017441185365594 -0.25493850528825124 -0.13790934558568507 0.04244942741346237
Ni 7.216991307097629 5.870451778019235 2.683912003151678 0.47020745990102253 0.3376796903422249 -0.3465101441496613
Ni 5.066247343273829 4.716388746729465 11.5668733256178 -0.5110964848059004 -0.6796227839464941 -0.48696153943090975
Ni 5.644047679516082 8.08605706541645 12.653636515298263 -0.7516090444768088 -0.393803015698354 -0.5835938806446789
Ni 1.9605558379308774 6.6468701318808705 0.4057093427165993 0.25962151258621735 -0.04066431048858157 -0.6595887481137545
Ni 2.924240799415431 1.6372441643662903 0.5658175888611282 -0.8106701123050232 -0.11760045882500393 -0.4873047817029414
Ni 0.48605561761586435 9.069912261396711 4.755305540873514 1.2332849100287469 -1.3056028428668676 1.3685714732796042
Ni 8.704469219096248 2.55389539518821 1.1613261246978646 0.6998882190637494 -0.7186811834005364 0.8025644524787533
Ni 6.865251361326762 0.6392390514151407 4.686281732136457 -0.7759383652507926 -0.018505257893039095 0.9656667523902983
Ni 0.9523245065398868 7.33575147702078 2.450562288922403 -0.6724002980561259 0.5726481802664525 0.5540431635707556
Ni 7.712193176337735 3.6020782627978263 3.9337700808737464 -0.0854405862630077 0.8911273864208265 0.13628312283617175
Ni 7.903828493943356 3.9926300813135716 12.581078845297768 -1.12541607666921 -0.25391443489911103 -1.0047629470608115
Ni 7.911561924658077 8.856532888307825 6.938959548738852 -0.14411907394082277 -0.44549684452821986 -0.34525287470379246
Ni 7.079254835841747 0.6524057825162168 0.46008123985742466 0.577221915680064 0.32795397841402874 -0.12360964113356132
Ni 1.5636273309310638 6.555253851518982 9.19723709277456 1.5174756273138963 0.39164406037382227 0.25403913340243345
Ni 9.235525263018406 5.0943590422929566 1.183408461243971 0.024910390088434518 -0.7728790095991787 0.8993217493061607
Ni 6.323070031113248 1.8517451110325145 6.909967776259441 0.07398709301042741 -0.0403164402308596 0.4314161980654377
Ni 3.5425986834060033 4.485272230211845 0.43650467786795893 -0.7877032190962047 -0.698397750561152 0.4176029463314292
Ni 6.155883208503993 5.377303112021517 4.833900713800416 -0.9143868711693993 1.1021013132026698 -0.24105197711414614
Ni 5.435145555788353 2.6963985541477866 9.124347473174964 -0.9000935944751789 0.5823055008505584 0.23755193438068767
P 0.31897552539542046 5.669228815317 12.275659888271031 -0.22676255707466753 1.2081572617231837 0.9098501596413106
P 4.0273355475736725 6.247671342881764 12.62152152220389 -0.18632398944364686 1.8096362501783998 -0.23846030512756997
P 2.5056405965179884 8.593370120302183 1.4904754078335407 0.4954328101267146 -0.11226979064070987 -0.5109504461463394
P 6.295057826524368 7.582172045900165 5.785395798589963 0.18687266285826526 1.011280179354039 -0.4769026125330109
P 4.67629249133957 1.1662556214692366 12.64548249449204 1.0979595231201542 -0.07876908778010305 -0.7636520916842718
P 4.032843921030124 6.155376691404549 8.035121344098458 -0.9434778749980848 -0.06939535987468694 0.38485429114549846
P 4.722973469022235 1.0476944404065816 3.764704622522447 1.0067164712427565 -0.21232504149309886 -0.9340015600765333
P 0.15549894053959068 5.594047205842421 3.5371002593925773 0.7833238590815864 -1.054408635112397 0.8173012444682957
Ni 1.4929139258694344 1.0936246873882844 2.6897631801450737 -0.6734040567302918 0.3637203373803607 -0.8201065751275747
Ni 1.8194003762537492 6.427213564738166 4.887700970214726 -0.04609705146837867 0.5026300992061021 -1.024966161481564
Ni 5.935873888381318 5.610870809502517 9.13724104684027 -0.8266531179968408 0.1502267295004574 1.0304631800403932
Ni 8.551112122291448 2.5236219535482416 10.244192560912847 0.5201539670224783 -0.3393719904429833 0.07196466326375993
Ni 2.17388998627874 5.29146655356221 7.040205080959095 1.3319895603905125 -0.02800162741924855 0.9063938256615938
Ni 0.5008802877227984 -0.23342840527865263 9.10386790145067 0.1732445305518694 1.2653159703223626 -0.09625567460064068
Ni 1.4984494341704981 1.3001660796346783 11.499478512052349 0.6981866629916106 -0.5901496794853255 -1.1752988204322663
Ni 4.310912763676538 6.710211904155953 1.6664774369627582 -0.480731756471114 0.783396878411367 -0.1089741506085736
Ni 5.6105723262117735 7.7482282499838755 7.9324060077950085 -1.0307583426833087 1.0516747811210017 0.00478662275536595
Ni 5.146656932810523 2.9238699565390527 4.848171833077243 1.1460874889756325 -0.6265577858007145 -0.2715617156672291
Ni 0.7640258703268519 7.306789552870443 6.922266192332899 -0.5027833369545147 0.6363194931731686 -0.11802983305293867
Ni 4.8924667534236 4.402682808157901 7.068177487775876 0.3415846818235859 0.6221426874521543 -0.14545604758469144
Ni 7.927291089585447 7.169432969439144 9.157204152022096 0.10559469261337942 0.05212963081570377 0.29322325980106273
Ni 4.515057244648779 0.5925101355069934 10.38107518905824 0.11656867512637989 -1.1408180130465773 0.48799563712237887
Ni 8.208760832756699 7.110089064270385 4.832947376259677 -0.27928119579867383 -0.3873924841863199 -0.013005925341364697
Ni 7.058967017019383 6.0562892838258655 7.079059464960533 1.256116306100966 -1.3733305852311446 -0.4390536600060374
Ni 2.3692246876999405 5.283488909245971 2.573412584423562 -0.5452633604955963 -0.576490436830678 -0.013753859250982766
Ni 2.3490273183596213 5.279943289549864 11.440819309462661 0.4071681241513504 0.5039256780890741 -0.6221683984837673
Ni 1.1202801497465118 3.349950331601495 3.859436887540735 0.11621951931707726 0.14260546550977377 -0.2885675061966062
Ni 3.5858787605638307 2.6140985704363815 2.740545137343591 -0.0782335269916072 0.9377206607993335 -0.529144857667179
Ni 0.8426915938497481 3.2924063711254035 8.255458091346132 0.610960959803722 0.4584953136704168 0.034798338626107816
Ni 3.8020892024406776 2.395997734384825 6.897152893643514 -0.6575357222394675 -0.2063161162948576 -0.37899346148934726
Ni 4.141292850000313 6.821636621085373 5.77052952172129 0.18399662686205084 -0.047871369759982074 0.5756093197773055
Ni 0.6934951732189504 7.691018952591346 11.300349454859424 0.2967166176663019 -0.6893340976969871 0.8567013435324728
P 0.008608981700902896 5.590962878504737 8.08917305007285 0.06407446188240579 -0.5730549287865679 -1.1419858081024332
P 8.402033285987306 1.5333538892910954 8.187916749619767 0.5696029656822256 0.5991279717245359 -0.5705421896670433
P 1.7542496143377968 3.3380652696609756 10.41106009685049 0.6597887799397024 -0.6315724654064865 -1.168284593897962
P 4.065568543633472 5.910792247010648 3.7495470983215933 0.22211914476538522 0.6709162573114317 0.16439402213977494
P 6.751845800740587 4.023536669327845 10.428878644813064 0.6294533621809546 -0.012461365691804345 0.6084258520866941
P 6.178332769947196 7.741489763571633 10.319054883715815 -1.131024423994923 -0.4545576691789075 -0.041861416120476294
P 2.422915500240978 8.452621681294252 5.797270911087458 -0.6071343869687802 0.2815180555489926 -0.5331609208051076
P 7.044703133701119 3.98119726678327 1.4464057066974731 0.2604167547940031 -0.15960354272966706 0.45101571746392005
Ni 5.2370792800094375 2.9416161449159928 0.6623172367585466 0.4659918791577781 -0.6441770415443745 -0.7347156111555798
Ni 1.324415585770548 1.1011319943978972 7.087889143397622 0.20507273080605973 -0.3910107976651976 -0.9195383334633519
Ni 6.770966821244589 0.5441341345308335 9.14800363070863 -0.48782671564468244 0.14231775906602587 0.14104197767739582
Ni 2.72248418476914 1.6441816396390287 8.935702415445704 -0.14828837482716398 -0.01933289600065703 1.6759422282256426
Ni 6.598940951346005 2.013712998527858 2.551013674690303 -0.11624394479710948 -0.3615313001488419 0.1416443871480851
Ni 3.9414175845805266 6.882680976516549 10.214605630841591 0.3251548184023368 0.7007986466931608 0.23638876731052194
Ni 8.201515829245011 7.179653760910061 0.39954973298943514 0.4218226408397316 0.7785297801270527 -0.2746172146641012
Ni 7.556448213206986 3.8798757569981106 8.421835391091097 -0.28002013084722743 -0.13552670428612143 -1.391650723696571
Ni 3.1016936382366267 8.435409144861369 12.381234332701876 0.39553696767032526 0.13741826488187944 0.03880514579265575
Ni 0.1244557738074318 5.004171863747355 10.221819881529383 -0.8047971984640139 -0.8908463648452979 0.43934290911168206
Ni 8.575768651096514 2.322525620120868 5.952290469372218 0.03667550104416264 0.4253710203126223 0.26386023325791336
Ni 3.769301265199899 2.7982627608252066 11.32779182771143 -0.6578380839712348 -0.3802124214981129 0.09563552451813852
Ni 1.2457245363926794 3.4684481980267194 12.522684659690466 -0.11943468382026527 -0.08786230833062288 1.0900281840882193
Ni 2.896825561408038 8.280478227069011 7.98065990197041 1.027899790188591 -0.3158435683037399 -0.007548501771219259
Ni 5.657244258946233 7.7423128538582295 3.615430415337092 0.022512579280219294 0.07163067696310889 0.35997166897120586
Ni 3.2622595587602956 8.160397494708025 3.56470182333298 -0.46349842331196306 0.3066495605092977 0.19996292038332011
Ni 3.301559858708208 4.319062262008661 9.129682183625894 0.35512976749787223 -0.18523024215883585 0.28151651288709584
Ni 7.014357332475516 6.104263689101751 11.573003087015891 1.5192576589149833 0.5286823162084636 -1.432065894288824
Ni 0.7160713639370148 0.24566441120950097 0.35511823392519337 -0.47266312053036663 -0.7707336811214016 0.18420977131412147
Ni 4.928158119037976 0.46032635795376264 1.5822029410583427 -0.8671510781108873 -0.9623122340957685 0.49750357661281414
Ni 6.097443798155671 5.682199271042043 0.3993028059034563 -0.382667825017141 -0.3651809810862872 0.5694191318061935
Ni 7.688052209580318 8.895516615068585 11.318723362641745 0.82864289473336 -0.22656483924156465 0.6532219253554622
Ni 0.25810935544386987 4.80535485726748 5.8382562848858415 -1.5703861021596826 -0.29113578114441474 -0.1957411689924887
Ni 7.992459941397808 8.731160861247293 2.7755861711820744 0.03610651591457007 -0.30605717834093743 -1.0324871524489574
P 8.633556825174121 1.5762540786243402 3.798978644753201 -0.6194923943135008 1.8102420020831984 -1.4907955469195486
P 1.8129241933394327 3.340615945054603 1.5109414121355298 -0.063794982968774 0.03420621356806367 0.47503856274107864
P 4.654810739354232 0.8118646013796732 8.126769281779062 0.5891724031737208 0.32700704111972717 -0.10303361675442255
P 8.571779828938393 1.6632664803502129 12.293611396972208 -0.7028809831434862 0.11978281118830339 1.0920071621914613
P 6.383797813357273 7.6575978689762625 1.5335791085013837 0.4820790145276278 0.6784986976443799 -0.34656516575731283
P 1.860762924392254 3.2124038042579035 6.271806882670259 -0.5495853849097181 -0.642894318177209 -0.8896212341889453
P 6.81377656109579 3.865421929767555 6.132739899533515 0.983989719069202 -0.546212354672427 -0.029680557783568238
P 2.4038758842708163 8.645514246700277 10.229577733604255 -0.11910789660846582 -0.05737519548535926 -0.18240922777027294
