# total energy = -340886.28746723715 ev
CRYSTAL
PRIMVEC
9.11014506181294 0.00000000000000 0.00000000000000
0.00000000000000 9.11014506181294 0.00000000000000
0.00000000000000 0.00000000000000 13.33361816553811
PRIMCOORD
 96 1
Ni 4.732456108947751 2.917396379210759 10.056228040426339 0.5562429994355517 0.9134800430844139 -0.419660085970774
Ni 4.655302291339687 0.6549747824198261 6.5590201297315565 0.5913951218566524 -2.1644477151049046 0.6807975209808855
Ni 3.392490438516524 2.839240445657851 3.448086920121995 -0.15351079956836788 -0.02990707197207753 0.13903188922590248
Ni 4.976835747315482 4.714190268316724 3.4366737305247126 0.22222455999499793 -0.18573572104034464 -0.5500859786952204
Ni 4.562825209920458 4.743588706080477 11.748157784020302 0.03923606268248726 0.6850920345911814 0.6155200399293141
Ni 6.231585121855125 5.91473428038524 5.116763018723092 -0.7116582151154841 0.6979159258287271 0.7428097010176239
Ni 3.474527293819466 2.8943568226242915 7.901648695532584 0.3048670146875782 -0.7779304559801571 -1.6193807868908303
Ni 5.576893664943341 8.17108032150693 12.812113392806527 -0.5375742193814549 0.6734379952920208 0.6508966196563951
Ni 2.15953253070477 5.662474366633051 12.049390192982539 0.7403614965874474 -0.9785785753559598 -0.3440264584958591
Ni 8.248270579694806 7.052199648798278 9.899251132738943 0.5606282729874409 1.115249934769486 -1.1389706754251931
Ni 7.973098651385493 0.10651672580649932 7.199326667762348 0.9279108737977633 -0.4285512178128168 0.8522497355190226
Ni 8.821581111740272 2.4162655256289463 1.7839850253018636 -1.3659612893502668 1.8507584741400063 -1.4799881718913996
Ni 1.1224791799651384 1.4577051838054882 3.1123999429470164 1.081499577791918 -1.0631231321672594 0.9796756650748807
Ni 1.5567142391561124 6.498193513908494 0.7897529998999274 0.6675493977217277 1.8226367762031253 0.7437185859851385
Ni 7.6284163170837935 4.149743907310653 3.8791224964054294 0.6924577309276333 0.3983574678382559 1.8388288125819554
Ni 7.6126557663148775 4.047938037459417 12.838967367084871 0.5038829977765967 -0.0424244877127979 0.35454407019773126
Ni 4.68365306243383 0.7474072241287852 10.95498028063249 -1.1637501963627184 -2.4406875529740932 0.05553454273219468
Ni 0.3270961104841761 -0.003794375372978931 0.8043319648684224 1.0619980174238808 1.2129297434111628 0.41079286538813126
Ni 2.9934205388446347 4.4170902211052265 9.496242917403816 0.5065214638407083 1.3928185187524271 1.4096217063526948
Ni 9.379531939394763 5.149582315916747 2.081097826716296 -2.0006015950487996 -1.2688262974684665 -0.07482270153784533
Ni 6.039944112621067 2.389636571930945 7.444625519755848 2.3564566707484706 0.6528989947984045 1.0540813336799653
Ni 3.4670843053927585 5.0947392432989 1.3660826339828622 1.27955833917399 -1.1942301101191304 -1.8533630016423888
Ni 0.7577800351724199 0.19071450749232374 4.965039020615674 -0.47316602830871407 -0.6909145548102295 1.361489112511526
Ni 6.948079802128947 1.0843623334812393 0.8985436178867281 -0.812749106321239 -0.958569993444517 -0.9694884401292336
P -0.0050160458111937565 5.783174677117079 12.812139812226892 0.2660598120123934 -0.12310313381078798 0.6492392865586302
P 3.9766238227663107 6.597421212737994 13.11076034263107 -0.10057307102907195 -2.013622175678184 -0.047249419905267015
P 2.1742818553838883 8.66842135478824 2.0837780313615073 0.4896195458790471 0.6346079097987006 -1.3155437561296632
P 6.430250052848045 7.915959822239458 6.605941020298161 -1.8084993083604788 0.7372427484528078 -1.6290406785780978
P 4.78134114676625 1.2850588267987084 13.148867167955519 0.29056242513944797 -1.433623725694247 1.2084506245938864
P 3.837038181794442 6.380982388941515 8.750253231829735 -0.5898462893122938 0.17456839156961546 0.5794662316295505
P 4.966377300909287 1.352646992205985 4.169315231713464 -1.803040856349069 -1.5781696027598435 0.5828292345645123
P -0.05186861029064957 6.018143535748226 4.262344387916853 0.2597570097228171 -1.9842185257050862 0.11173860072758822
Ni 2.8175491905244465 1.6626378945261628 5.735815588578229 -0.9549167129626458 2.294508254070132 -1.9964366650378325
Ni 1.714155764236117 6.917478825231381 5.335020227452216 0.365550448610564 0.06393485098074794 -0.5140162295558567
Ni 6.986898129774237 0.8233329941971671 9.807329770161854 -0.19651378549245513 -0.265345302443872 -0.4017572375484242
Ni 9.141301648870394 2.2850156672891924 10.528278400303261 -1.2367106478808443 0.7780088746265762 1.0572065095725083
Ni 3.43313079515244 5.027779677893389 5.570132115359127 0.29632735264768323 -1.9196614677593071 0.193166466286777
Ni 1.704116384497767 6.600372899702808 9.893304941128035 -0.059747552372277746 1.0745593990286588 -1.4260325436105503
Ni 1.549435233338561 1.4458619953664182 12.112005130259902 -1.1254626136364294 -2.820258998454098 0.5314123135451171
Ni 4.159801507338909 7.386769722202002 2.0523507643166923 -0.6989749632208607 0.14122683999469227 0.38707880960064306
Ni 5.437262473246707 8.186567567927252 8.7617866753404 -0.2843460119160909 0.062422270990963466 -0.8383158990467497
Ni 6.791649503138739 0.9684630693875108 5.30331327895734 -0.5358868043767029 -0.1554357845052226 -0.05924361615266572
Ni 7.920505784571069 7.7326637057824685 4.847383320574981 1.0756762862419216 -0.6404463708573487 2.4355368620110895
Ni 5.094557040399836 4.886007602132769 7.774832744741519 -0.44849937879996954 -1.299325237388272 -1.137946347925737
Ni 0.855123756025612 7.506832322539311 7.559881607615887 -0.6942497898310496 1.0596580564367943 0.30438904660989513
Ni 6.247008597260775 2.197521835159325 11.808199105348404 1.8662432000391667 0.34358679985527923 0.5752653061743254
Ni 0.5549408357619745 7.488484490603706 2.851500878735774 0.5614278860706008 -0.07576809617025015 -0.13796436719333657
Ni 7.194108376733194 6.190124852173427 7.454412548478998 0.30107360908341696 -0.5770810192268255 0.3357091968794154
Ni 2.3247450094297952 5.472919580593261 3.246829241875413 -0.11709292306096607 1.1059101454257985 1.7184849866838598
Ni 1.225159623731874 1.226954322287641 7.352917334570664 1.053340855969515 -1.097259668839652 1.949269777544043
Ni 0.9056559080516372 3.645388062415432 4.233970841460327 0.28557165679307595 -0.012118637640404935 0.8793278226827372
Ni 0.8813855708820019 7.830142256780966 12.11459241142659 -0.723828789039747 -0.3611178667605071 -0.7190159410321358
Ni 2.12641715380014 5.499366331392198 7.464412754594049 0.5094157546693678 -0.02551254244880767 0.8762388993447684
Ni 6.354098351184826 2.2901902296225702 2.935089191724234 0.6928122860535745 -0.46632715101000977 -0.0639775312932253
Ni 4.055062170812766 7.17544168972423 6.736116792547941 0.713581657390442 0.2342825196007965 -0.7048126529485603
Ni 7.909209204829187 7.480221589131217 0.4802986851174889 0.7505572061735267 -0.9899942733920692 0.854813896701773
P 9.100706842959244 5.622836125941979 8.444886639087766 1.3455919816652955 0.9605134903241329 1.3886659300366342
P 8.454970658536388 1.8074527587011282 8.536955586013097 -0.19780345083815612 0.4626319615466097 -0.7363819431144093
P 1.942255573572603 3.4954806272116667 11.169958748192984 -0.6785017829681733 0.8511845274793018 -1.4762811553534576
P 3.962029370551395 6.550841041592636 4.300771890343654 0.9591991423880836 1.2536403337566475 -0.895494919360903
P 6.438576725335207 4.178677727681796 10.850792107876014 0.7402391120769702 0.684699170028137 0.15652593224560785
P 6.327779142415232 7.93546464258411 10.803976894990864 -0.5276281639123365 1.0906460201778765 -1.657039477783869
P 2.5639409753191944 8.779255378288028 6.327561409950851 -1.2426126151875763 -0.7910325405797537 0.4850962040873968
P 6.810352630727517 4.087430515831239 1.9623616634841627 -0.1459988074620389 2.0303986238055742 -2.2068539479852576
Ni 2.3951937603523548 1.6307614973351587 1.139423138563466 0.516110393080724 -0.10367947786853757 -0.36601530406212446
Ni 0.9416610229354003 3.4355905342897852 8.654478277937473 -0.3278683606787579 0.712029996632606 -0.9027066066179937
Ni 0.4937871657350942 9.155422373547745 9.603991334807978 -1.0455064475267608 -0.3395625091872346 -0.5430946349790517
Ni 2.4381207633715065 1.8219196688866999 9.834676603282162 0.1860509382879183 0.11744387864248161 0.2311519443916148
Ni 5.300173011991996 3.3192995339630724 0.533443626716072 0.13843950705754224 0.20210927730236158 0.8769616364434059
Ni 3.8191003063817277 7.121482301166837 10.870792520106116 1.0415865436470644 1.185224049965778 0.01578991584440506
Ni 7.215480776793239 6.374878591822918 11.858493482591152 -0.7910726497890698 -1.964987702499932 0.6826073204961147
Ni 7.637817986675424 4.1434761275828995 8.984872260894683 -0.8983917812927238 -0.9285809032815943 -0.1462672306320771
Ni 3.029278069380157 8.463479533922612 13.046691426219185 -0.08060974053326764 1.5074066731136684 0.4259268928160923
Ni 9.280231359405636 5.026814002528357 10.753496670791073 -0.5371371318440362 -1.4068063483910866 0.18641809181934993
Ni 8.764296520274987 2.165736539417852 6.188265471588493 -1.0255271761913562 2.3888003771864987 -0.4829575604778392
Ni 3.4294594067363287 2.7021327641132338 12.456586341952622 1.0193976662548507 0.9603036883061719 -0.11721556468175941
Ni 1.2617732962985064 3.424020650199309 13.222468940046356 -1.6029128711427942 1.8841547902122646 1.42129271493272
Ni 2.901234982063905 8.970167575925835 8.648744352703972 1.1088746273707613 -1.2787654109590494 -0.8501406595958196
Ni 5.736904250900128 8.112574970617924 4.2476369699045184 -2.317789850305892 0.3877809778739902 -0.7014617341984565
Ni 3.0700459680454166 9.095049442943349 4.012751924606941 1.0453179856650383 -0.558133017369413 0.0638291786408191
Ni 4.876013773119184 2.9424948285566335 5.572065288118181 -0.4625183187868809 1.3112829239707802 -0.8856807614839585
Ni 5.9386484108872075 6.040864237261334 9.607525160035296 0.11869137789633752 -0.8748168221862611 1.6692419333873316
Ni 7.954869251334278 -0.17651543556837426 2.999731136253668 -1.114836501381151 2.5101333064707414 -1.2818368507955213
Ni 4.600759853505294 0.7974702036897244 2.023256605394374 -0.04554066474427641 -0.767443183295588 -0.42000949889039274
Ni 5.878393912167201 5.896586871638603 0.8148651144632321 -0.2464860036455239 -0.5811932416229862 -0.671302694116573
Ni 7.881432372867092 8.9974251296256 12.012536012589145 0.1600282889719115 0.7615877529560755 -0.6142285748114003
Ni 9.14029953292555 4.958651897989033 6.4254034557329796 -0.9134497040671108 -0.5857502648660492 -1.7695643218581782
Ni 7.179759898432013 6.343348380140132 2.808419914266914 0.45453915723614624 -0.13782295651946588 0.5537708837459754
P 8.228219150652965 1.9667254229167122 4.11887418113697 1.6678278266486244 -0.3254882904823556 -1.3620974355194864
P 1.904257158973095 3.6758250567038413 2.0963646076287525 -0.5961421496233347 -1.3441920159939753 -0.6028902669804455
P 4.916736121059679 1.1799277540395803 8.77312060667659 -1.1771132479331856 0.3335114178971482 -0.11900042449632407
P 8.44129633096174 1.8968961618509652 12.76021927411001 0.41211621218524513 0.09506525383696532 0.5632600541833331
P 6.267442652390647 7.969882770217038 1.6698886588943596 -0.2550230945822576 1.375916600790766 1.4329431546874547
P 1.7595060658128017 3.4931028793788994 6.540326112287733 0.15596106088107334 -0.5715215228611771 -0.9595963778265021
P 6.6656288680020825 4.148340944987871 6.175331798798533 0.7153942851191486 -0.06332447109025868 1.0612297717992885
P 2.2187393627551666 8.880068242339371 10.760563410231216 1.1718967367292528 -0.5011406591447692 0.8753310428185183
