# total energy = -340870.84708312206 ev
CRYSTAL
PRIMVEC
9.26873229546262 0.00000000000000 0.00000000000000

0.00000000000000 9.26873229546262 0.00000000000000

0.00000000000000 0.00000000000000 13.56572661222826

PRIMCOORD
 96 1
Ni 3.70730761861855 8.995193650127204 12.706175394302084 0.22580250715424335 0.9797669392371061 0.44506001410111734
Ni 7.848076780545052 0.9933949413487682 8.781285207514353 -0.037408008334812996 0.4618984258146948 0.5631770075512237
Ni 0.29091956019577014 4.991351473174579 9.334942746790812 -0.05191365815015576 -1.6337668804091734 0.3562024317367607
Ni 5.477116473885064 4.473136640040515 4.211900195622099 0.5151971372378353 0.9865577369066946 0.8751700917606218
Ni 5.81072596215182 2.9555578018385202 8.781773669716216 -0.7650132336978568 -0.00966220568011239 -2.5353907954859496
Ni 3.4842370339460844 7.887042531904301 4.341072959000557 0.6221933381844317 0.3999788054917628 0.39127510707017776
Ni 0.8211540856140103 5.8806400112723765 11.827604291574577 -0.898364013378582 1.0024319849347898 0.003316980188374933
Ni 1.9620794418974037 5.265279592982202 2.2364459727514796 -0.4948013471903027 -0.5491403269524994 -0.8645483503807175
Ni 1.439341467311552 0.4583490168985143 3.731036500648715 -0.2994712975933036 0.7541953171467463 0.8801670307545809
Ni 8.502903461748568 8.269405553032534 4.270219060406208 0.4944812448467227 -0.05152619290374997 -0.7243959743971267
Ni 2.650356978632681 1.1059173536944584 8.01886429902645 0.3141016459119687 -1.3903579730270763 0.26960356349959375
Ni 3.812489194837569 1.384127627909305 1.0673279128740263 1.1796301008177683 0.5996385928123673 -0.8284976274047472
Ni 0.6500458689886957 2.2051241450711014 8.53181078461708 -0.7563704704211942 1.394179917876328 -0.30428825936597276
Ni 5.838254097626837 7.474111231046571 12.290372640121065 0.36923226833752537 0.6418334810128623 0.7701685526465509
Ni 6.897206783829072 3.2803527255137825 6.394056421599903 0.050255553721442484 1.1292801876103067 0.01650134008913287
Ni 0.4879746665344723 0.44791242412246435 6.246773481822578 0.44004739137787446 -0.8067864609799008 0.0956794903821965
Ni 6.205472009877571 8.672752984502667 5.045093437858499 0.8375594804966995 -2.0670198745730337 -1.7778509873470025
Ni 5.671945230681309 2.0848159974395477 2.607604023180809 0.6190416799293275 0.6340705492379919 1.8988586720813427
Ni 5.317703543907014 1.6131394701034827 5.48082489375158 -0.6875093857834225 -0.6179749292277098 0.6216868308616583
Ni 4.37115277652819 4.632605182413464 6.444710971493678 -1.3802352827707778 -2.83918977392033 -0.3017271835070159
Ni 2.27998769733767 6.150888444284179 5.855265929226449 -0.2651123604974595 0.10772665135471769 0.5795847594852858
Ni 8.494691364768478 5.700761719971485 4.130560579969539 -0.17128020773664696 -0.4790314859505556 -0.5691964742724261
Ni 3.336910531126089 7.642737281112892 7.7272004596122805 -0.8795605075188335 0.20613665329419986 -0.1287112240261848
Ni 3.561603143983109 6.716290394490065 12.438753924697647 -0.521642635752863 -0.6508534251232855 -0.7533717928041864
P 7.796320178359028 9.258879820540923 6.93302209301729 -0.9358499261391817 -1.1717247299277627 -0.3445424789003292
P 7.016319264970296 0.19472680073892973 3.0253059406476273 -0.20806138112073844 0.14616412939530957 -0.5724468628889238
P 8.227566494603504 3.5584239687413817 8.182059798730881 -0.3997682321428534 -0.17927325324445254 -0.911826566641391
P 4.505132304572419 5.414941816387955 10.875724929891176 -1.1527777565116146 1.9013914658055253 0.674303942836742
P 0.439450998238578 2.197495978237452 5.023564952919839 -0.27262435260378853 0.27794267949290846 -0.5183871049300427
P 5.058373677760385 3.0579216833826557 0.5082481650949112 1.7967496240237186 0.3965880346426589 -1.0252988622306343
P 7.191526115099668 3.9213226516549575 3.266043656306264 2.0856086933188145 -0.8878687702742128 -1.8503249861470135
P 1.951781880108601 8.25451069993208 11.737691098375084 0.7031211241787503 -0.9002815421162689 -0.20983801340518696
Ni 6.467601033234117 5.374622830086164 1.5969303107369142 -0.535081020645956 -0.6543503825329504 0.07226265412015297
Ni 8.0778208526054 1.3889102938706213 11.695908579214198 -0.15682469443294925 -0.4178022068264288 -1.2683686411057575
Ni 0.9727163991788147 0.8588528012428097 12.567574476241743 0.9899315384749339 -0.44481061709447267 -0.053808046959391204
Ni 3.726317788941533 2.890139087972303 4.467017422855126 -1.0718576838267797 3.049548178605361 0.9882780620319108
Ni 6.525400848999167 6.135539423292049 10.270612022234396 0.13292063412184205 -0.5325371711781797 -0.399179449518919
Ni 8.844168923046423 2.015356116210668 0.6376637692644281 -0.2618789411618264 0.20505678996645976 -0.40628752131861
Ni 4.073413282971303 3.899337218204877 2.258775276176686 -0.4953405075232243 0.6022266652545176 -0.3600243765860122
Ni 1.1941093432718262 3.981467456738251 4.116492497806583 0.5306368688316732 0.5209618076357544 0.5007051142692474
Ni 3.516149279885641 0.37978538662466427 10.182367200881872 0.10523139573668974 0.7046370466026445 0.8495534196337821
Ni 0.19933150703656882 4.867836344103849 6.25801923494441 -0.887807320908658 -0.2520861234411207 1.1849890511368368
Ni 2.2206678094453784 4.265266776640449 10.906397019424485 2.261396816228144 0.768359010241638 0.525175845717102
Ni 9.138970228406146 4.199310476290208 1.913242490443578 -0.9568087877790361 0.07159905239422507 -0.020484493106596977
Ni 2.9130328572057342 3.3039045747535187 8.837433335150903 0.4289939617771902 0.8568422399857114 -1.0817785424849176
Ni 2.0133726074592695 6.686565569416538 9.910442054163864 0.4650107461914314 1.0367808947283046 -0.10078698681209093
Ni 7.471617942008598 1.1605194567528163 5.162993568790925 3.337624861208478 2.1629976129219393 -0.31293976439338367
Ni 8.94270481807501 9.268361733871206 1.9204730286536995 1.0281419881063842 -1.320269700850423 -0.9974242473075532
Ni 7.053523957157742 3.004505978082144 12.964710930074903 0.1096853177429853 0.9078850654951396 0.6541904599163185
Ni 8.413589955540736 7.08284095800201 6.331477647366529 0.2081487986282222 0.771318349980278 0.41998610185162505
Ni 6.486879996799112 0.8827689116691346 0.8034517334444028 0.9668139786208639 -0.25623099884742967 -1.1650966830882838
Ni 7.5883112839717155 3.1816685307654655 10.234459331183789 0.11149383170663378 0.9427726214009442 0.2044379254355382
Ni 1.5702345074388864 7.725850005289483 2.6193521416032275 -0.08204955830358772 -1.1796820371016263 -2.009164654127462
Ni 6.358387558384917 7.738084732167268 7.819393761002633 1.7892332610420154 0.3063878222074788 1.4870111401764519
Ni 5.949247169112805 5.010074312790584 12.722928628265414 -0.5959038083602834 0.8522844454116999 -0.6037119915507926
Ni 2.132308982683314 2.318026575448602 2.5613317300050764 -0.5042745767880606 1.2703244792805477 -0.41205913369506453
P 5.943732273285319 1.1356607162329526 9.995349204949198 -1.054444373446339 1.6842836582118024 1.340556476123917
P 5.204949413249244 7.280969383562264 0.9053456902516414 -0.40459367855595485 -0.6678273339734627 -1.038532587312089
P 3.6896692207030766 1.0981316184085952 3.5882841173091635 0.2757140472727058 -2.25043568923095 -0.8019581863533221
P 2.0041965623009306 5.536019268815613 8.028577003795565 0.606018271086466 -0.6955674802012085 -0.5937304548580484
P 4.858187593588868 8.639042604461377 6.443041672773459 -3.901575256590616 0.07792525172256902 0.1674451502612729
P 7.569125007731552 8.91195116369585 12.501441143101074 -0.8891612638333913 -2.1856035232469133 1.5234148756164667
P 8.882828806233729 6.656710982088245 2.099526402763588 0.7756943675607867 -0.5309767686695953 0.06581149917817053
P 7.948559109395104 5.045175002704351 11.46666131121495 0.3323078845073503 -0.6255699679661485 -0.4191427800147233
Ni 2.859589345707773 1.0031456479210636 5.6886650972077 0.5138051419863151 -0.7960348788903516 -0.23359963460115896
Ni 3.4677479588585243 2.1804693166658677 12.281174350004768 -1.9270191936759586 0.6601873009297018 -0.7723748162692505
Ni 6.7514374280662475 8.525454287880121 10.166046816725506 1.4395426622818435 -0.681524114734265 0.6325566836966267
Ni 8.741971878686986 1.8631449913720415 3.0458584280558094 -0.8767736888023158 2.555071818854645 1.0551398568514667
Ni 3.6596385274576035 4.552884814325714 -0.1995576641091582 -1.193008064786571 -0.4579548677859145 0.25809144909493614
Ni 0.21783653143921883 3.246735032797323 11.637616593754291 0.5417859434699572 0.13680839921202245 0.9947155901271384
Ni 4.277723953097831 5.3389752849558905 8.675147098103071 -0.18024718712194765 0.677561273431775 0.75143960877848
Ni 8.620273421182956 6.914492969910184 8.816393312414107 -0.1459576698114583 1.8341872000448862 0.3008254976283529
Ni 0.7595503820378655 7.731531738301666 0.046208338921598376 -0.23213282024764537 0.2118740699986093 0.34746068098838867
Ni 5.488081384412655 1.4411117952158377 12.122143291805024 1.8085910967433367 -1.757257222356051 -0.3443205926975102
Ni 4.613354025045918 7.660486903818164 9.682143904370893 0.13854980738316142 -0.9692056187814921 0.9078164170407333
Ni 3.812971168926694 6.4950179439193345 2.320878564433673 1.2901587403976555 0.27866695925344265 0.6120477651099975
Ni 8.16747730191511 5.71811278717998 13.417101078859988 0.9690305266562085 0.18307540059936211 1.3432394222727186
Ni 6.412174012984757 6.985000217909662 3.403844682753305 -0.1833736485660713 -0.03777001965992205 -0.17046516803451933
Ni 4.904132700507946 8.976582035300998 2.2936794689618094 0.2406010056196566 -1.1499824531546645 1.0518326468551047
Ni 5.134154834542788 3.4705007724060257 10.879441691616929 -0.26329407634179813 -0.5878583123479876 0.670927055944709
Ni 7.334792913092035 7.740281421765779 1.1178907023162181 -0.7386763955755407 0.3854875538541232 -1.1874866207477097
Ni 5.249161267193968 0.5652175024294707 8.04792177536119 -0.680444508516841 1.953434193334378 0.6240424755780285
Ni 0.9504621724867223 0.4914597099481444 10.01221180995583 0.26856766603591165 -0.7246754533107584 -1.140321533026133
Ni 1.7281180965572132 3.071565257597883 6.521479248285538 0.9162324090185703 0.16905671772276692 -0.1003028480868208
Ni 1.7497698556378996 2.7764673527986994 0.21553047079740598 0.13161785615001848 0.25655135830132586 0.5260384508277135
Ni 5.211465332184913 6.536476984316557 6.3233647258240095 -1.7458446096437354 2.1062217415834756 -1.3855055300307815
Ni 6.734559066214395 5.311762286385302 8.00986992102478 0.6492326016904109 -0.760807166036309 -0.4562977917984658
Ni 9.201552710132512 8.216045460126923 11.067313337811305 -2.1122815746243107 -2.1101429310147535 1.1356392970591151
P 2.051986146984158 0.4240723173025014 1.3212865485466572 -3.1538789169046524 -1.4909917220907547 -0.5616289463378135
P 6.9157627862603785 5.649005117785462 5.789675743809292 1.9419015101044297 -1.8141274531805338 -0.9981647250180036
P 1.951160875032229 2.2053002509882815 10.471953917346564 1.017546471978725 0.7202207599735144 0.7808113770723778
P 1.3379322652131833 7.819816415203865 4.7101835464243536 -0.45716990999077395 -0.510457822780637 1.9124556940394872
P 1.2496197821135344 4.786540291493961 -0.01304110660382094 0.20639787737538645 0.4834535262776513 0.9200749226931122
P 1.2252800906127286 8.57488443821287 8.016720441203091 0.4759708447473609 -0.24971376655420222 0.9300153217352757
P 3.4431950865106056 5.252275561308314 4.330668806788197 -0.6477423902981296 -0.38528417959406547 -1.3562111519420383
P 4.183739005718482 2.583001099677481 7.021538488231569 -0.7443420785017504 -0.6918350097419698 0.7920571251895262
