# total energy = -340887.62229949544 ev
CRYSTAL
PRIMVEC
9.07836305197315 0.00000000000000 0.00000000000000
0.00000000000000 9.07836305197315 0.00000000000000
0.00000000000000 0.00000000000000 13.28710198156436
PRIMCOORD
 96 1
Ni 6.341118606052875 1.9677805935614994 11.05777852288358 0.46602324661634575 0.29751134565345533 1.2055380789327819
Ni 4.79245880169095 0.48149822205400017 5.830885549117369 -0.8200114443106071 0.15824265782639843 0.35086687845646025
Ni 3.078282281304882 2.1145686465120463 4.666071646296867 0.5409853019455328 -1.4133554623635143 -0.737419126129672
Ni 3.451475631585734 4.384222969847285 4.488276444181091 0.5713191770423838 0.7999270148559062 0.6799027770807581
Ni 4.0369755813038735 2.5706565302514583 2.2510609278718205 -0.966873885324522 0.5748672994049584 0.8212705135286889
Ni 5.125489473621055 4.6106464239037885 2.6461531056205003 0.4716328794936394 -0.040807778044981334 -0.7724038697349729
Ni 5.331214259811442 4.663228302974206 11.143373869364146 -0.9706649769358381 -0.06458225475675973 0.5569598229969183
Ni 5.746540293235562 7.877177642433146 12.11026311556907 0.0885909589665313 -0.017241046468634825 -0.4108306606046021
Ni 1.5619959197546116 6.800937697026048 0.4666705316041189 0.21732352314895476 -0.6499543103477838 -0.6302252073499727
Ni 2.905321307539415 1.5245385936074192 0.4552608448610769 0.0644369874281471 -0.1938866322822532 -0.80563692075649
Ni 8.126378709505477 8.990811365445744 6.776010327628335 1.0814116460638021 0.5244585079351032 0.455250581480874
Ni 8.803860634144451 2.289027550188877 1.3882097227834305 0.6843430722402988 0.3097289707655698 -0.22161829386956672
Ni 6.817351377509354 0.8838585372998791 4.618304023177942 1.111215616799112 0.4653691579721147 -0.7330541642927568
Ni 0.9384394719247342 7.859175248407484 2.8841378550838024 -0.28679678744942866 -0.9611205277805125 -2.028659272516964
Ni 7.266621410561285 4.072217786854868 3.7274306347113315 2.2414784800376624 -0.3221697676320839 -1.3758381821443466
Ni 7.3163799187078595 4.062712740690032 12.585224008355356 2.28820982265593 -1.718701730680356 -1.0356799483546422
Ni 8.425056855468307 6.952918573669322 8.90654418348659 -0.10767960016686617 1.215741501828345 1.7488761973812075
Ni 6.882325222210144 1.0515740328666427 0.24491880319845077 1.8199116639624784 -0.07031015837947245 -2.1888605967316304
Ni 2.0353417717455535 6.7297542519654225 9.075223801214486 -1.0853919708677888 0.11846229260466695 0.36356632830099966
Ni 0.10991809689587122 4.809580594495992 1.2859946169772085 -0.45937694494442183 0.3144777983044649 0.2119442611149124
Ni 6.783044243357575 2.0285602345104703 6.839536173414807 -1.164603288391633 -0.23377138429233285 1.3246894271846734
Ni 3.4821514204978437 4.8738281701488475 0.3955624369572173 -0.5226620781563127 -2.0468068899602687 0.44799698524225423
Ni 6.351486096712131 5.812812343859533 4.936650442795133 -1.248868623399617 0.7598828544498267 -1.4727209488060249
Ni 5.587532763553526 3.055831489360624 9.046735897809276 -0.6192013454356433 -0.005481591939861527 -1.070686032116182
P 0.04451575345680059 5.6499101964079514 12.401901898784802 1.1790680576667114 0.2853155749182118 0.33775502366485055
P 4.061922923100404 6.225505651984892 12.243892081207365 0.20846607275832485 0.708627141598644 -0.1532305493237877
P 2.4619068186864506 8.511455637083149 1.4333591459845534 -0.7393515672656944 2.140925206502932 -0.22818771955696832
P 6.633741483828556 8.112352638517255 5.54955706287337 -1.0291076944537632 -1.8277291031243683 0.089258160236885
P 4.959600544709845 0.9123119429253108 12.452937732619429 -1.2313555542165182 0.7991086327196689 -0.5761284255055691
P 4.156937071296361 6.35469075888614 8.045633024592494 1.1845409078558244 0.4382908136980839 0.22926783999502454
P 4.887037188458147 1.0241029061285416 3.4717467085498797 -0.3013471744597778 0.6823674365711667 1.7817660061306926
P 0.04969949878642905 5.7200950215276665 3.3234098868546136 1.1431222356997215 -0.2896170305070431 -0.2705990946436436
Ni 0.808513570594593 9.05692908389703 4.7557331916095515 -0.3716771303335921 0.9818616169826059 1.3814444725875306
Ni 1.9414896540262907 6.362489072788332 4.503689689050868 0.7654690902883527 1.6252377598922398 1.7186868182820205
Ni 6.1893192966715835 5.731324956681346 9.066241668764162 -0.6127267934548931 0.2957982196170906 -0.7544629689858361
Ni 8.704198364041716 2.019981181381751 10.173562298077593 -1.0188633910179357 2.652743914186838 0.04439163874149774
Ni 2.4830775614337246 5.616656152375676 7.036570242610353 -0.4161865255998768 -1.5750997055852678 -1.617230316206731
Ni 0.3493544766187307 9.166332437605178 9.144914763381607 0.7222334195281691 -1.5001427924624036 -0.3118416462331984
Ni 1.5593722728189505 1.515941383752501 11.318405617752534 1.636761187150807 -0.6003446177404564 0.17886341940054357
Ni 3.981034707886762 7.019072605573005 1.4259058098801314 0.8804228555191289 0.12468667624782398 0.02448024452955139
Ni 5.94124394662355 7.993135574298898 7.470978995268936 -0.8714363357498023 -0.2720563959154605 2.3185776363145103
Ni 5.536811948918439 2.9455929262473517 4.779410470408507 -1.6835730052980233 -0.18495076324520404 -0.024209250256351855
Ni 1.1012145222929273 7.667431141389826 6.806464604480825 0.3465577095581451 1.4303139445947237 -0.23971474635996137
Ni 5.0348510964389 4.810906035508473 6.74341718842968 0.45850791207590713 -0.8933333929332099 0.35575814511049053
Ni 0.8762926294930273 7.673586271571066 11.151652428674282 -1.5000404625565842 -1.636595350996904 1.0388287783962689
Ni 4.4772580348876225 0.009276271414736177 10.31937442699498 0.9648915647871705 2.493389511353499 -0.2945887726900217
Ni 8.147159082639487 7.292866958280999 4.338039521089167 0.7418481084353029 0.9948420884026736 0.23521017362138846
Ni 7.3883804164474105 6.06832287328579 6.964341877957013 0.20109909087029237 -0.32588912546520005 -0.19086198652331643
Ni 2.2860044552768515 5.4302319661341345 2.498161261723003 0.12109870178624951 -0.2714079636981842 -1.0619658786343644
Ni 2.1774544677000263 5.450694596559673 11.400373250338665 0.23945172250656183 -0.024380228616577366 0.02624042175376771
Ni 0.9750797453930011 3.562603874282725 3.7667072648235984 0.08922396456483989 -0.033624115812348546 -0.987706505799157
Ni 1.6786438072159007 1.2502449309289705 2.9151105064692544 -0.24082443448437232 0.595103166835859 -1.7288151649652739
Ni 1.6181819089754006 3.324269607840105 8.241590399924476 -1.130560596984627 0.9074155820578889 -0.2900600315817327
Ni 3.6432742087819867 2.764897187121389 6.954535430137286 1.5106172096311663 0.8689943019672132 0.42013188340086993
Ni 4.319512397676372 6.902987576623865 5.735297648373544 -0.4538238763366765 1.008642484620876 -0.2715987395527516
Ni 0.9132833277769224 0.2261202367289908 -0.01931694100242282 -0.8462305259081361 -0.3136144218629051 0.47490949336238214
P 0.38322948068698925 5.870705065342967 7.540271417296004 0.5035384699529845 -2.1416160619223703 1.0134725590196674
P 8.992191276636818 1.7761635836272298 8.019457380268644 -0.5004539174903897 0.2555612264739147 -2.250061593720983
P 2.1581538677511816 3.417667807404409 10.403615281701146 -0.7450419327822524 1.0779239446255178 0.7816079048317442
P 4.231361491983391 6.276217388256879 3.5561201073572946 -0.6085850033723776 0.5011218900916918 0.696166290127472
P 7.135184869611442 3.933872611586552 10.17273798270819 1.0280712827694487 0.19551902567935361 0.2834767219372602
P 6.691924712931164 7.852248457362814 9.932693352657683 -0.7980627079536579 -0.817659656248979 0.9457851829750229
P 2.788464617726845 8.57860828892774 5.672928386045907 -1.3342726999977343 0.35721313238946223 1.3071444763223745
P 7.042912387071436 4.128213130450574 1.4052044185050845 -0.6199047992605711 -0.7642447309629483 1.29093547066268
Ni 5.433563725391531 2.975851110456899 0.3426809719045278 -0.8268996867900081 0.12917247993331948 -0.42811413027539824
Ni 1.7230279244077633 1.5173757651221709 6.526917293076884 -1.23171936531384 -1.2513481952883612 1.0035650700979684
Ni 7.001996204583458 0.6884730988431426 9.158560450955974 -1.003838121253697 0.22011471274084674 -1.3007835671013535
Ni 3.082621738866287 1.7915877225327268 9.312358815891704 0.24532823589199687 -1.0263105913246002 -0.2809758098922774
Ni 6.569911512878263 2.021143211858445 2.415382931312113 0.44649854631985686 1.0314183448648107 0.3753509796407536
Ni 4.159569796595122 6.920318171780188 10.196110228507013 0.326906768096437 -1.4650927428368057 0.00036946752427678307
Ni 8.328263348104914 7.4995268158706 0.0939528875496635 -1.090500495738948 -0.647705109302291 -0.3730950937270413
Ni 8.079779471717417 3.762745467167119 8.155769002202744 0.05147374239925974 0.7450709862479749 -0.5003112212649383
Ni 2.9873715532297513 8.303806237915737 12.220107677723838 0.9606366461655584 0.05912277430408527 0.5069181850584947
Ni 0.08305340481279498 4.89480826727104 10.294315421332328 0.93350302317356 -1.2084647656612737 -1.019144412593464
Ni 8.678679085369938 2.3759710335896678 5.4948944229806225 0.7055808985731525 0.4046805818428063 0.2753265820263
Ni 4.037329637464741 2.734593611096346 11.524488091449026 -0.9473784956040716 -0.3293408314592264 0.13329370119054465
Ni 1.2400226940793002 3.5398444179930952 12.829242237934368 0.487949614375792 0.3736190845513114 -0.5117647145175186
Ni 3.4428148731891213 8.516793714585463 7.95473591406201 -0.12472524279524326 0.2985706401559051 -0.076195670625972
Ni 5.792376948523292 7.949423255976375 3.460293445663962 -0.7287012866406999 0.10892967052388337 -0.27899554623745504
Ni 3.2332862528601813 8.546443648467367 3.6089761529933067 1.0253898792825438 -0.5944853307462019 -0.622301838737838
Ni 3.7127327648537687 4.528832215654031 9.270650092305168 -0.41407513568382887 -0.02921493100105936 -0.20221906340734852
Ni 7.337305545651456 5.990003834829215 11.2226978826158 -0.24090979510932706 2.212906839047557 0.16374841813597604
Ni 7.896514555834387 8.849506643807096 1.9971708862587658 0.012417914048378612 0.20592402306276147 1.0271783386415343
Ni 5.0232035565826605 0.4807156671548513 1.383532550114736 -1.696277597348885 -1.7191519308438974 0.24243600194586637
Ni 5.852829768400692 5.579443942032161 0.1658271960421354 -0.3290991477620655 1.7048625108044184 0.37094050927788375
Ni 8.13448568775304 9.112497744427074 11.499747736331157 -0.6795433368588103 0.20223628979852912 -0.30938649982448657
Ni 0.2384259579099214 5.130600592045891 5.525308755035476 -1.2494049555190612 -0.812073420410453 0.2719291263089768
Ni 7.140586495655451 6.245596069523365 2.328870670158532 0.4406256324788477 -0.5499767068108657 -0.4830205525052907
P 8.570328821781294 1.5829669385137042 3.4909737737576205 0.948664818515663 -0.4251481056685388 -0.5992210456589745
P 2.0758948197095646 3.4727190012378015 1.6136118609912766 -0.2593173510822373 -1.3053750431267777 0.16290072542370007
P 4.8065030294053726 1.2795589653762038 8.042297633989856 1.2303790492358617 -1.252895742281139 -0.07810959981923322
P 8.809970372510193 2.0489411596681166 12.38542557759611 -1.3869214365417017 -1.4320736075983078 1.0070085485618785
P 6.114640681817777 7.713040837600077 0.9521804823116441 1.808051422189783 -0.05441431308482242 1.0887562593543314
P 1.9180220854149255 3.718551995600339 5.93376700677507 -0.24310423165748454 -0.8569931637412788 -0.8317143345698322
P 7.0864159030426785 3.980626181547299 5.891128658807179 0.18540379162222265 0.666819975754871 1.472063003507052
P 2.2337766323673027 8.73909559179494 10.071862843295406 2.3772918623262673 0.8474381730629921 -0.6125553008740354
