# total energy = -340864.1402972864 ev
CRYSTAL
PRIMVEC
9.28255476619412 0.00000000000000 0.00000000000000
0.00000000000000 9.28255476619412 0.00000000000000
0.00000000000000 0.00000000000000 13.58595719533907
PRIMCOORD
 96 1
Ni 8.859743512748429 2.2630496792753276 2.7519441927744865 -0.8897449042510033 1.6239120991022804 0.11321569949374696
Ni 0.4730900360510702 4.074595903202939 12.718547869354566 2.6925718448170533 0.9678331639139977 -0.12092900897760463
Ni 1.042449445774245 0.9617469161526775 4.0080065695828235 0.38584288031101294 -1.7016635442511467 -0.3661461732130339
Ni 9.230498025701618 5.218707886867155 9.99335414240288 -0.46558178820355295 0.6953214256286735 -1.0259089850108074
Ni 2.1505544001766643 1.9312726130533273 12.806014596507216 -0.4149248852786338 2.193732323001635 0.5687791842293495
Ni 2.7615692736307786 5.764596357304829 1.7518955998649062 -0.2619491322781295 -1.6823771852177092 -2.322606297857929
Ni 3.992203948645654 3.958461862704269 5.799600870670707 0.3425619581351907 0.9295517518352959 -0.9515133437080516
Ni 8.155736007393132 6.604528309548624 8.199193214970352 -0.06952340081211898 1.6224820515239735 0.8833477424754077
Ni 2.388958249759218 6.528578447878084 12.500996350407151 -0.7152860416760585 -0.28193663114365 0.19902086818502496
Ni 5.791896350359469 7.622750287838134 11.735387028013944 1.4239229534667155 -0.517853601024076 1.3950139837418492
Ni 0.669999938352583 8.069816682090945 10.791298315461349 -0.02760053532608795 -2.1718733181450145 -0.11943082716552333
Ni 7.008356564512585 1.0386528809461772 3.973797571145469 -0.6236637520823711 -0.916631701339518 1.2296745669696694
Ni 5.512695673345722 3.018538232397037 12.349770540529441 1.1151404057748149 0.20041157788496453 -0.8003157656538927
Ni 4.09113741548562 3.7134581168069083 3.142309958813883 -0.6339893023780953 1.67870385013118 1.2111739370623205
Ni 1.3654452153523526 5.153618614069083 5.301824808938063 0.6523354089854507 -0.9404324033035416 0.22106576380020637
Ni 4.340884546779418 7.373504414492296 6.264145386964517 0.24912524104058384 0.6520525876377093 0.1324616922075525
Ni 8.251596948663195 6.621617492552224 1.275653208274443 0.17025099514118422 -0.5897655566730294 0.44129411930078194
Ni 0.4607321711229367 4.168108358161263 7.535681782277472 1.295834193515878 1.6140200367995494 0.06315709227445897
Ni 1.5912804860175376 3.2544636399035665 3.4933566801131106 0.8623932517109276 0.6354484034221249 -0.36976037292685354
Ni 0.8030319412302611 6.394232035270201 2.7798364128120854 -1.018384394498988 -1.1662819616456368 0.9030794165763802
Ni 8.641696305385807 8.264369743781586 5.538383286667757 0.7983049058714509 0.7911412982434761 0.8311828875463944
Ni 4.161666265274517 2.5364023468962067 9.083733411560752 -1.9497212632591647 0.07907376350471543 1.2362648185926772
Ni 7.805997198035898 6.4570934949662275 3.831782840189255 1.127175482562478 -0.5307435696128666 0.27538366051648056
Ni 6.042738823095105 7.524949292658373 0.9923087988908934 -1.018496237486504 -1.1349764666641358 -0.06086109715143066
P 6.103196101151842 8.679262803819036 5.736602029166721 0.7981938342148834 -0.7707475650784726 1.4673164899610018
P 6.744360711920293 9.274636572785878 9.496937046662485 -1.1513731628546042 0.01867417937073558 -0.36655806393947193
P 2.6433373757943506 4.0591126021437285 0.23421091967341376 0.08950755724352973 -0.2738785367258638 -0.058563816476821726
P 9.117232294571831 6.265650089063857 6.3494919786483885 2.6832528814089724 -0.40830198064547746 0.03369430692865165
P 4.721172243298441 2.1234307756592705 4.582964287980345 0.4559715188072986 4.3234740020839215 0.10446983498031685
P 3.168414358837092 7.124583430557173 9.498920728578764 1.029127234837789 0.184078902163212 0.9905010378251586
P 9.412417530592746 2.2721744304391187 11.652471537377679 0.4045114032547936 -2.0557170479657048 -0.4384836464351804
P 0.6938263994789505 0.10629638914222396 7.585895761342101 -1.9399369301788911 -0.48331520092757413 -0.7190812470524325
Ni 5.996446723345535 7.778325902797585 3.755675175090654 -0.3995247486734797 1.0788158603121678 -1.4565785347182079
Ni 2.006062155399885 0.3958183386066514 6.045492957042508 1.5569441177221637 -0.8418691636156469 -0.5376127859288742
Ni 0.7215329684247125 4.273948045617568 1.3986609804483794 -0.3871006639775139 0.14060977523598364 0.6587436265046396
Ni 7.76582230176236 8.560056237750462 13.55739933224387 -0.08683875216211497 -0.05517870205467272 -1.3908624234673208
Ni 6.612232829859861 3.590148661608737 3.8039045439835437 -0.4449114043383951 -1.0453377831593804 0.014748876174400407
Ni 5.001310458325964 9.147029294811679 7.933084652952954 -0.37116985167987043 -0.2777724724636313 -0.5325973349921537
Ni 8.399171001564472 4.564241375368578 5.10614577337543 0.819851264583659 -1.6118585103718561 0.003314923305845904
Ni 4.724189073540793 5.298352205265251 13.165947507317226 -2.3043684346936635 1.4109388825022218 2.58782150248184
Ni 6.175609309522885 5.3448856514342085 2.411548274613951 -0.3854003934569556 0.014424917176078382 -0.9993098943660403
Ni 0.47066357628075994 0.03345154198265968 12.624940732339406 0.15931995005097724 3.166345939023411 -0.13828164132343929
Ni 4.4631357907541185 5.796324128899783 10.973187187922324 -0.5511223903795347 0.9151029233998175 -2.3793230338236833
Ni 1.3297166627283112 2.7208002938633613 5.793160634294879 -0.18586659019125407 -0.5671848431590361 -0.6447696808230509
Ni 1.0099140919298013 7.076657601199437 8.736341232004339 0.8522841883013837 -0.2906902089665639 -0.6262837062037214
Ni 4.53839874338486 0.1961756522332972 4.5770680093036 -1.0849620824192219 -2.3535222707104952 -0.22958768522828846
Ni 7.074104898686678 6.437776498860582 6.19352556814062 -2.187188608345846 1.1902711254713823 0.04662104229264875
Ni 5.354363139672491 0.3654207570847113 13.31262115242309 -0.7867984478937482 -0.4292482438798414 -1.5068567141474691
Ni 4.498845778268976 9.026207564244123 1.8347154801888754 -1.4946334326084 -0.9860167768015599 0.6485093503711411
Ni 4.0955187812529745 1.79585870666738 6.7920414818368045 -0.8280307150706578 -0.503259762370301 -0.6080502139148303
Ni 2.6071261303315323 9.15581059145557 13.593157589042603 0.0784322732659746 -1.0549084575669512 1.3032345997450072
Ni 2.1242754881271293 8.16137980058498 2.3412951166964318 0.7090482882964627 0.211341594533907 -0.05393248835239744
Ni 4.699330392343811 3.4037735305135173 0.8664837713983295 -0.6676147037420245 0.03220898063237679 0.892251986943573
Ni 7.893355319299824 3.732088203872757 11.516435699834076 -2.6138693486088274 0.3135827972940212 -1.0754376878685545
Ni 2.4693823027430297 0.45906131129640315 11.02447423029777 -0.923741572911422 -0.5078211564887384 -0.29341660675879144
Ni 5.085401120373558 1.7977709129133017 2.4444400785547216 1.0554846417853951 -0.6069862914266901 0.16647687281073265
P 0.630550009592668 7.512687038042536 0.0469381655491625 0.23698423480267572 -0.6925410346700589 1.3423688467423076
P 8.686122611662414 1.7952553406189093 5.098755003409397 -0.37388107996344644 0.9313319836641702 0.3413106022265928
P 6.30188918219045 3.405073088156377 9.767270099274635 0.9322190142548138 0.020272119985474766 0.7108735144306596
P 6.477979242797896 5.3140118748617065 12.277656230416255 2.066980793804982 0.5254954338400499 -1.4842374340860567
P 2.345274547849959 1.1019691858172047 2.2198096834755594 0.394876708378507 0.27028542005796674 -1.1187697749972862
P 8.291827540264286 8.441991425896688 3.4818091822008457 0.5308716105502986 1.2719332185285643 -2.444296867591907
P 4.531548218096073 6.587337018444513 2.357530304677582 0.18817672638166946 1.3877526741937454 1.1675554290414216
P 4.08737798087592 7.675967173313225 13.31177829646615 1.7646601996883418 -0.09989532823575699 -0.4866159831660329
Ni 2.91474070695094 6.115087053584006 3.977057604318128 0.9761874494159639 0.43580301427922363 0.7753025314390066
Ni 3.377587444009901 3.8335743732254826 11.634279586888566 0.7244188572152621 1.0055579321582813 1.5452687382667645
Ni 4.551988403307333 9.006695634492049 10.399370295484141 0.6472682788751885 0.29188140106118765 -1.4800208249015478
Ni 8.988835999457324 2.9754114837632897 9.384988510029281 -0.7026557545065576 -0.43135423447925064 1.3093335135538935
Ni 2.0909882473607455 7.087174735552007 6.41210930715865 -1.232748835019619 1.0177056232644086 -0.3543106140306866
Ni 7.170773422206232 3.9961768820109667 0.457722766924258 -0.6465781947866993 2.6752377244139796 0.24556220627967384
Ni 5.261992438928964 5.861524792352957 4.828911141424239 -0.5421081026960664 -1.5272411913410924 -1.3998116622408086
Ni 7.395123484136721 9.26542827863076 7.367378856717132 0.9234003875219193 -0.3874588186478811 0.7066206526915766
Ni 7.050787121551943 5.8861328445759575 10.081541195791859 -1.8023857392635734 -0.33085341144901087 1.498668264799406
Ni 6.53982890404341 2.2726385581687114 5.947660401177135 -0.12970469828770564 0.18040351019415382 0.3116089613971021
Ni 8.56675824216578 6.090246937496207 12.511919132395384 -0.4172417063372685 0.42228055431275663 -0.7495434201970317
Ni 8.603795634987273 2.105682531279648 7.305875434757894 0.23111440628546 -1.0133748570995385 -0.4456415976362002
Ni 6.971959667957931 1.2381442616796843 11.498542647602822 -0.184284847526431 1.1032984188345645 -0.22463676898091636
Ni 7.381301760349452 0.5864096059974899 1.8416848221764384 -1.9682352629029523 -0.6908911577714617 -0.34272368052403557
Ni 0.2574590776487089 0.20172476336830675 1.6485065068208504 1.6158812583780044 -0.6989345969012285 -0.5452543616345319
Ni 5.267172104391218 6.894329663906267 8.576325771183603 0.05728417843344973 -0.011564564909147824 0.3567783588448888
Ni 8.555433525563721 2.3299212025550347 0.28093280170058604 2.115636864249789 -2.4577414231325867 -0.3522503890675482
Ni 5.205322443145704 4.548693096427225 8.334168984779563 -0.14276230280261218 0.06535692813925519 -0.6294127387510063
Ni 0.3854747880249499 0.6841372689959746 9.525304533495186 -0.2098647528780644 0.6916666024849055 0.6099991101110849
Ni 3.1385523807151015 5.556416505473349 8.033811509340065 -0.4122316547171868 -0.3426313779205454 -0.9191835212270943
Ni 6.093310180511518 1.8462536955465483 8.243578678006754 2.1543108837812186 0.5656519514542774 0.43286295781429324
Ni 7.5440156597900385 4.470626812309743 8.17710259155266 -0.8994227936603995 -1.3763220637593006 -0.8010834970578526
Ni 1.8641411782450485 2.8246813623007854 10.47816897315892 -1.3384659121434757 -0.9321143703561495 -1.8774421540787793
Ni 2.5844952622365955 8.851454191497904 8.43027684200177 0.9732106261758273 1.1545327915295085 0.3944077391618885
P 2.5742009091942313 3.5048419849096097 7.298525508032065 0.6216287239302133 -0.04448882644099435 1.7100450834466225
P 4.168117640715855 1.7894723091081852 11.260203775902411 -0.8403982354970753 -0.6486093662841151 -0.2924213327250577
P 7.932119267275401 8.703666639841016 11.371703965148829 0.5727620801364974 -2.1851381535747207 -0.257013385539409
P 6.485386721362194 1.912828177079316 0.4684329784123377 -0.6371867262694704 1.1011888286907294 0.3511514995764146
P 1.7247264908300124 5.075561612506194 10.857244368048248 1.6150916725971733 -0.08248690295132245 1.1651421916142386
P 8.268166308609654 4.706385133833619 2.6679426432509743 0.8773308468573664 -1.0593107003997049 -0.20146315907793041
P 6.427389320272299 4.404052330776976 5.902161031589709 -1.5356096179104457 0.018960857373218957 1.337719263785438
P 2.7916169028446056 8.243307627412673 4.370656484121867 -1.1285996166035144 -0.04904944922848326 1.664793410697675
