# total energy = -340893.3765841729 ev
CRYSTAL
PRIMVEC
9.05766544278825 0.00000000000000 0.00000000000000

0.00000000000000 9.05766544278825 0.00000000000000

0.00000000000000 0.00000000000000 13.25680893837798

PRIMCOORD
 96 1
Ni 6.377040260884949 1.8913673409612537 11.334081333889838 -0.020407360011758406 0.5917766735657873 0.5253211130457146
Ni 4.6425154538346645 0.19809023633515246 5.9253824934611625 -0.09264121777650498 0.5093705032537292 0.13769774379551125
Ni 2.7663468753995484 1.6384048619207396 4.824192294714742 0.8813811056673402 -1.2165280022853824 -0.1405616956068676
Ni 3.3910993457454186 4.4773036371023895 5.038144314682657 -0.23027134155887438 -1.4955286907291598 0.218235750550579
Ni 5.317157545154293 4.794611771080737 2.7183349084613484 -0.4045725955100322 -0.7706200383616728 -0.012383461266017382
Ni 7.288449725525942 6.318663607439801 2.5900222089990264 0.11497484827669875 -0.4540632460409922 -0.5224412203947583
Ni 5.046641310585976 4.349717362404427 11.730459263665667 0.5830992003964474 -0.08213800425233596 -1.8997477595545154
Ni 5.490285761438324 7.826248608117983 12.590521728971485 -0.5234079551834018 -0.04152100206192204 -0.9095079458105433
Ni 1.846640589260378 6.4246654655109525 0.33267989791345404 -0.09658374736402076 -0.4860259149905178 1.0024615526211444
Ni 2.665444482943543 1.567528630235978 0.3940510155368752 0.8512894284882824 -0.6608979538434812 -0.4114652088648075
Ni 0.9986528976873345 -0.33031222418024037 4.372851545579642 -1.3756078113010954 0.5431018340679034 -0.4895948632886987
Ni 8.920314953034362 2.1859497924735223 1.2863741676659024 -1.4826158393222337 0.7958363897263003 -0.0692133257708679
Ni 6.965933433947756 0.8323423861431282 4.921736104843757 -0.7187688580183362 -0.508246416951615 -0.45464945756176534
Ni 0.6636397451691526 7.240072734672483 2.3499152744479925 -0.3641926490310889 -0.3523424345607222 0.4490079430052719
Ni 7.79163021099349 3.9575476239692677 3.8902772488766733 -0.3098958353607372 -0.17287146348316682 -0.7343428011971934
Ni 7.519393020000877 3.795080279850473 12.6325855270474 0.23315740485741776 0.4242201945376307 -0.25838532618627114
Ni 7.861501041819848 8.790056667046048 7.196405729822358 0.5902090719683513 -0.10811385949080735 -0.49505382952074095
Ni 6.913643531645374 0.5598244075233937 0.24016128054338 -0.2821505469266689 0.9261129013570759 -0.5875166127378527
Ni 1.814304723814423 6.6649019246770775 9.409470549410448 0.422493184544195 -0.8643354630389631 -1.7705104878215316
Ni -0.05230892339970183 4.787845695033641 1.4375149012132218 0.13386757141614364 -0.1815967591713066 -0.08557968294403326
Ni 6.182526896612712 2.286834069598746 6.953050716462102 0.6695543439668985 -0.7065003250636284 0.962005244378311
Ni 3.6496775773283674 4.0006802265613235 0.3670800053020235 -1.7240329130852825 1.6106184673171682 -0.15825242801841133
Ni 6.095709173839748 5.836370098363953 4.8890180059183 -0.33480776811106855 0.23214104777776148 -0.1110649716993313
Ni 5.265628486744759 2.6998726690948245 9.343134019619667 0.1664357351601521 0.36470327011892023 -0.13232748062253338
P 0.14489909632636488 5.582375045468862 12.45499731632483 -0.8186297334717321 -0.8144930855955391 0.5848951159546055
P 4.014393531963333 6.113915081275707 12.668020925590163 -1.3721486491079014 -0.4876462242027602 0.15838201161774015
P 2.259081382840649 8.493436240820799 1.6297520741726947 0.629209878711581 0.23287818305410213 -0.07740691732525379
P 6.337358628806873 7.8889095372930855 5.892638127306071 0.07862459178243879 -0.6809551296046724 -0.057505036195004196
P 4.6383126970932285 0.8361484171404364 12.534471989765292 0.5191116418008931 0.37281330082056435 1.0166481285341715
P 3.9328926587749007 6.170561720631169 8.32306246058218 0.2881075358410522 0.5186082198019132 -0.27597732823642146
P 4.736352867285672 1.3205442103535399 3.783506395013823 0.9363340648644519 -0.8410800920554483 0.7887889959612158
P 0.23576740706219435 5.5213444960641445 3.6683445199327283 0.2993111178663555 0.40690407185668637 -0.035008140644068736
Ni 1.5669851703125166 1.277592761069305 2.6599917683781467 0.8055911551202191 -0.6551965325833297 -0.24956104302642182
Ni 1.9579955275776253 6.409031935046046 4.721319860036189 -0.45980143407635005 -0.02663971407471541 -1.1156651679300333
Ni 5.841505794640665 5.522829953188272 9.307459498710582 -0.02490653343369259 0.08327854561468238 0.2867731333003448
Ni 8.651755174190505 2.2087841669242936 10.072695453504693 -0.3053609236048612 0.6322319533673564 -0.844708689946971
Ni 2.3481544642959773 5.196781172107587 7.176374702810109 0.2266383727919774 0.46286644615491895 -0.2348203943821375
Ni 0.5488447055363945 -0.10591037565070276 9.126239164166213 -0.011085825500516391 -0.05838846724122202 0.7188670741590973
Ni 1.4788722013886368 1.3230169530052893 11.328951072212362 -0.16302388126512568 -1.3958886730373188 0.21334936899255513
Ni 4.005064136610579 6.986621141700854 1.6482324288700005 0.5011072348036725 0.08156490535768532 -0.028956020912717876
Ni 5.799061574618326 7.759303403212925 8.197718863835036 -2.068440409069644 0.3314085126215325 -0.9921596564745041
Ni 5.341106012448161 3.124704348930016 4.9239235310356895 -0.35429055942602855 -0.3097287136552537 -1.2297244463709982
Ni 0.7334353973727651 7.351980190578583 6.535420786379314 -0.4073396167322082 0.1772415675264044 0.30908799474746124
Ni 5.039983926523573 4.606456887912998 7.029754650059449 0.04160713401782511 0.007310160508168056 0.07336128650097043
Ni 8.057608555200904 7.031538104374941 9.321896511577336 0.5176581971838181 0.5036240876882552 0.36236665156594366
Ni 4.733391010702807 0.26985140192861706 10.29981097858538 -0.7641295455413226 -0.1829180490858914 0.7121271843321025
Ni 8.01908630429288 7.407476506429386 4.641845186595728 0.9172500516498074 0.13914244666183778 -0.1035133846043185
Ni 7.281493438505635 6.182191762993244 7.225398410972486 -0.08308031356094724 -0.11656661824385085 -1.9117434984638106
Ni 2.526472722849064 4.991498243685422 2.4283157087730776 -0.6384866760278165 1.1309511475548264 0.7085741768735216
Ni 2.187797556213291 5.44239788451598 11.449733228668588 0.894339465600221 -1.4291021836748097 -0.10012287086553079
Ni 1.2932262915342119 3.33024994964852 3.9209265770268193 -1.1118892458273688 0.9887238913200778 -0.03351227282483261
Ni 3.7249648920585576 2.881161841896167 2.677026519679045 0.3330355067019942 -0.1864108927304983 0.12708345861477469
Ni 1.14476209810994 3.591011078590706 8.36899659907968 0.26807478555989317 -1.4440973715320613 -0.938259564021939
Ni 3.5934475905808916 2.537858208245581 7.16043955208768 0.6654732319189893 0.4904368995740198 0.0033460336540974633
Ni 3.928581210048774 6.740968198630896 5.9885117039369815 0.8828201521067117 1.0885426006816283 0.8227748659883571
Ni 0.6218458655218904 7.315224184421808 11.306387521956783 -0.5343775668210281 1.147187664018347 0.7193514699946837
P 0.29432974264785905 5.903224726615101 8.016405235337137 0.16699597853899628 -1.5097121813183934 0.12085521831687572
P 8.61595928056518 1.7584913896749341 7.820165480041371 -1.5725897946792207 -0.16464084804325838 2.0955298090872687
P 1.9044375521205013 3.419748741377227 10.461067312841397 0.2617043632571751 -0.921868010037793 -0.2732442455759746
P 4.0797355300941796 6.064016402636557 3.8653804440163655 -0.6186603853305087 2.0287022099397576 -0.9133419748446528
P 6.963062154018801 3.9076036570031625 10.278189425530467 -0.442561930269612 -0.07958052793780487 1.0596667981875427
P 6.2775599218953335 7.750354429806594 10.285454578940607 -0.31722605047356334 0.3184339547387354 0.7350706805021533
P 2.4735668993000934 8.606620827547033 5.83133856523924 1.827708277188762 -1.5242204022368977 -0.9608474766247839
P 6.836526568506198 3.874253333033413 1.5722041971108245 1.685504675103097 0.14300578627198596 -0.2784934097900559
Ni 5.357237714509574 2.645762176048848 0.4610052781073235 0.8714736167456409 -0.9641742270051716 -0.1752160524559434
Ni 1.1992439554369485 0.6885718749244849 6.9700990542610874 -0.08801014676239681 1.8316618625198713 -0.21426493882828906
Ni 6.6785337110905685 0.7607542219586321 8.99732956455462 1.4418687393118588 0.523484316947292 0.35672359434755335
Ni 2.5476948328602327 1.4111389795945604 9.096649582866815 0.3975912790961927 0.1621345366816369 0.7247641563698227
Ni 6.5709829922375524 2.0047059079991354 2.6570226656629687 0.16408934641516257 0.06600407480495084 0.1189680285964919
Ni 3.956922645057287 7.025641564205385 10.56502666736687 1.8347626129323822 -1.3771923821793959 0.020045862907281605
Ni 8.22131679947827 7.2858230025625454 0.32133336047811845 -0.46231263053397803 -0.4197816991503029 -0.20255382103894795
Ni 7.78154902941328 4.109499018569084 8.250878302014955 -0.12620619821614393 -1.2363733191460835 -0.7591243790172475
Ni 2.926758129474581 8.310081920310303 12.765445174536016 0.9125634448074156 0.2945427499434347 -1.0232805462490246
Ni 0.13224463200856548 4.779929295481887 10.130654548575317 -0.8076017577923447 0.7445950750528209 1.4545260230645531
Ni 8.453537224773338 2.442417588020363 5.801219110514468 1.0327350067937053 0.5523284948724939 -0.12043638561190226
Ni 3.665546607093441 2.3649202029347625 11.439419265087828 0.13263652722251998 0.9569879936693776 -0.7751595781032392
Ni 0.9643877495130911 3.3359019328525195 12.571776890444761 0.2584452328899291 1.0953629660375717 1.5169508651586776e-05
Ni 3.0613097488582404 8.283443326395302 7.932423467598103 0.6496802307507907 -0.31096952804089023 0.35936720261798755
Ni 5.71619299395585 8.099599891953691 3.580265970137334 0.4043154851939037 -0.07909818898474764 0.14863804485709883
Ni 3.402339908495679 8.538960067076086 3.6501295548313797 -1.0231861867630057 -0.7047542889067993 0.2725518474946403
Ni 3.614941430553791 4.228408049822446 9.200371626559045 -1.3976725044106189 0.18948490367013174 0.7374420089478074
Ni 7.084842465201117 6.196285490341677 11.479892537121078 0.7885447411608936 -1.3888039982763953 0.44936146968994867
Ni 0.6194854379209895 0.12486897508065477 0.23598750833119625 -0.2239132605513305 -0.5229713818666155 -0.2849378798638189
Ni 4.655187127716707 0.5299486039976407 1.7637783489636747 0.04631585234740411 -0.4621197977968815 -1.209079259316821
Ni 5.834486103962621 5.477106858294384 0.3623890403960122 0.9167162906335244 1.1200195882439872 1.1924071979777786
Ni 7.94990385603624 8.998709046993675 11.169975458101808 0.047392373241034506 -0.7692411557362752 -0.20162462435645923
Ni 0.28697310681726945 4.812989774159123 5.9941854255379186 -0.6656400965141569 -0.1382207061785168 -0.534149509970622
Ni 7.97997530513444 9.054214420509869 2.260895633218471 0.7676601844024005 -0.7146406947825756 1.1051920363128516
P 8.702387523726328 1.5662243264196707 3.668278398975374 -0.5400095682958248 0.2178115185289668 0.28062382586949736
P 1.8786594364176474 3.170952788416584 1.4767418384886681 -0.8571996233251302 0.9817999105067349 0.3438457099436207
P 4.589247323670053 0.8976717035424268 8.214289862667915 0.40911367791349545 0.3003164192024183 -1.1425298535313613
P 8.446662456741553 1.7244436254700752 12.263728407795657 0.44012735268619047 -0.08440623146122239 1.128106993237812
P 6.24647401427334 7.8763465553957355 1.3625346413397874 0.4506421361745852 -0.9839385541162924 1.2636434677159463
P 1.863397270233772 3.019399931093973 6.072917370416316 -1.6324049670646403 1.824635808911025 0.8584396663798184
P 6.970371689989357 4.1601675987664715 5.958034471429264 0.4621969308917201 0.26021363764426153 1.10364603198197
P 2.4514209074190405 8.429615930475645 10.468596950080954 -1.9693974015318532 2.6820285220835682 -0.29041021583229987
