# total energy = -340862.8709647339 ev
CRYSTAL
PRIMVEC
9.35437203223412 0.00000000000000 0.00000000000000
0.00000000000000 9.35437203223412 0.00000000000000
0.00000000000000 0.00000000000000 13.69106902358948
PRIMCOORD
 96 1
Ni 5.38930620619857 3.36383212685572 13.161141930835846 0.005302128939203772 1.0517061485795693 0.18915657379643552
Ni 0.8405557937232327 1.296413044017818 11.771526602624682 -0.6861585281824829 -0.01928095971679905 2.82127098465838
Ni 3.2357707758639105 2.1318800594401344 12.202520867908227 -1.1116994984140662 0.6444691188634964 -0.02963736325045863
Ni 1.8291912942543798 2.114387384030735 5.3538101066753025 0.47728287869056507 -0.3440663105948591 1.0513230542085379
Ni 2.38234336643836 4.394711970781975 4.23455202813251 -0.21241580143469224 0.879863383471233 1.100376617202079
Ni 1.3190225608437645 3.452895101493633 10.940711516336641 -0.24516985593726162 0.421511537357216 0.12211351620400902
Ni 5.986985088515568 1.7288282383894327 4.138605171230545 1.7849590591466937 1.8098658496907023 0.1965148139337196
Ni 4.806126600290432 3.987759376658695 6.244113385475932 1.1049539521601164 1.2972043343905273 -1.2138496841222708
Ni 5.291917840590409 0.7502159473241529 8.413189233809327 -0.23395316128583576 -2.244047269206103 0.4299460412778144
Ni 0.09903005787251971 2.78407622105445 3.703378988109987 -0.7708560656318788 0.14027038961869392 0.19314589746148672
Ni 6.6270299210620704 9.180230889828072 4.9994440494939925 0.7245636103232426 -0.9498508684039642 0.6680721029944172
Ni 8.848384547502691 5.4420274460955635 4.595311798491534 0.5793459040016022 -1.7082203715330582 -0.3638074977775283
Ni 4.929323677906367 5.6608823305224725 12.299618312551024 2.681177229826867 0.9159974101896289 0.859432626420707
Ni 6.795025085595445 5.503616630531653 6.077848779739742 -0.5766115357895747 0.6595663795162512 -1.0750317106793872
Ni 8.072579715909868 6.847063456345441 9.52049523140528 1.1546749735343276 -0.30476777010555256 -1.0892206005852596
Ni 7.2403399587850075 9.020055980183605 9.53482987086911 -0.25429341550508466 1.1916083562255673 -0.7018381437012687
Ni 3.3725504014447907 6.651248389850806 4.826786666017278 1.0173050453918802 0.1004933668310721 0.46713524873360196
Ni 3.6021534591580098 4.1799543012370535 11.265107101462242 -0.01583285326719854 -0.2706327760950565 -2.1018855761019672
Ni 8.178555394900826 7.007191594130525 13.00276399602889 -0.5543321555660841 -0.573298926476574 0.9773976676739812
Ni 4.38191519005467 1.6238347684455265 0.4217353080000038 0.6159018487487651 -3.5889378539289996 1.5822584281172363
Ni 0.9283905393337364 8.482086053555483 1.2357808118247129 0.3239122042444873 0.5154138812343317 0.7313145558938309
Ni 6.082502579748393 3.769662196353798 10.910357515033988 -0.6551453676304201 2.3809852520174544 -0.2501014889109241
Ni 3.548646452023375 0.3305329885138936 4.521256042655386 -0.4109908403315502 0.35334722167615273 -0.42420039704328877
Ni 3.4077041309573706 6.742163530120302 9.54368846103633 -0.6405425301155808 -0.0486954083231742 0.16244692571573313
P 2.670626398934021 0.3606325509015011 13.169179207152293 -0.9405465602839027 -1.5579627887946652 0.25198250798372085
P 2.6763325657787984 9.135582472860657 6.3058185641232924 -1.5394382476279167 0.11029364075094554 1.8393288921468258
P 8.679725222566072 9.1912129224113 3.7931790872517825 -2.758367146045307 -1.7405383669394734 -0.6095936471425502
P 8.981515968051664 -0.13909015543442077 13.491343774585305 -1.0871092106692117 0.23118922538745343 -2.1924341730155015
P 7.153840082041307 1.0679512196735546 7.466574507185434 0.817087842905909 -1.7797859995861864 -0.9350369433195832
P 3.2521689897637387 2.9313701606247227 6.951612593625204 -2.4145098661374607 -1.0630017760980468 -0.08477029966886046
P 2.2432719197476927 2.4271601620995553 3.1020808993138997 -0.5009149162872083 0.12926041166143545 -0.5898128649711971
P 1.2309230865091507 6.458454785472339 5.4673918254391936 -0.5632335718207719 0.2054298570351623 0.5815783928765467
Ni 6.838579041053288 7.987604601782067 7.460167697887092 -0.16677923454249988 -0.1288282092200233 -0.20724839830113986
Ni 7.518033842316261 8.940085455009829 1.3854535681632267 -0.7636127538059043 -1.0484611592797104 0.846801825030574
Ni 4.240561276626092 2.6060157523817615 8.857519091640274 -0.8364302519882627 1.8158148681852857 0.7315937776971464
Ni 5.473682640526263 7.753642406774313 2.4498117735989466 -1.63251655294184 0.7363230648520157 0.2443738423985275
Ni 0.3595109617134866 4.532239946112989 13.51612444112383 0.5938361271979773 -0.174355504227861 0.3174880458856984
Ni 5.2750425537248695 5.207775265559632 3.7855393717400942 0.6727378839012027 0.06810260920519239 0.05977352051420673
Ni 1.5681107751761176 7.309197490169282 3.5255187029954604 -1.175960622385981 0.17683610455786963 -1.4188218847947243
Ni -0.0674786969696508 8.161783006125932 7.799788458679184 -0.3512934244709176 -0.7997398385457646 0.2767283474698331
Ni 6.11966749921446 4.57658902318035 8.498539458249383 -1.0719067918971603 2.327155607791508 -1.1151576321659957
Ni 7.9022646671510755 3.9489761508579617 1.8619306603855876 0.012116580757875906 0.3025183119497435 0.28379939538400156
Ni 3.164434335932315 8.99929862898924 8.654877204550033 0.33200629410653143 0.6280914488364214 -1.2780262188001794
Ni 1.1663872749319046 0.47213666367157947 3.404599414931499 2.008373782795051 0.8038044955334416 -0.6274445592810419
Ni 2.408993971915034 1.6014310478008673 10.012881303878318 -0.23855800704769886 -0.1898435725611311 -1.1519753152149774
Ni 4.722479806969121 8.689397643086563 6.52197377682659 0.10592585070055306 -1.043827260052125 -0.5441554721433983
Ni 1.3441296949607857 4.318024830136916 2.2067131635792347 -1.3458465208782628 -0.026823033730115093 -0.7359908783235777
Ni 6.930485744741714 1.4111724782009827 13.397450202310273 0.8556970706376748 -0.6707239387949674 -2.1675533506134217
Ni 8.306859959561429 4.051696508435834 9.473467062232436 -0.1953976696101409 0.8327306916494883 -0.3634344307088257
Ni 4.592790795270767 8.866793951356005 12.625944640031973 0.5248426307473993 0.31716357266674405 -0.43505919413466365
Ni 2.2254986131819927 7.250311719205554 7.431211239742815 -0.481105594870765 -0.1301654399742081 -1.0687494772151012
Ni 1.0803738255257913 5.1875511135622405 8.646950309821731 -0.4936978297134788 1.1616048678849415 1.4268079883239944
Ni 5.0061230710139455 1.6459110860745019 6.22122136661931 0.024487700728719117 -0.004507915172682559 0.3940801806191407
Ni 3.310465435299236 3.362672184743012 1.104184443700704 0.405663771691682 2.9971933191527285 0.9317168778074147
Ni 6.639723803698731 2.556091469675897 9.022921224289432 0.613162081220099 -2.7585054713953845 -0.030061595272070807
Ni 2.8679194561851724 8.704009171957944 10.91602626439126 -0.9811087979769814 0.4653002524073922 1.4519155820248995
P 7.502103347010268 3.385188157850191 4.563863335679308 -0.09169170937904209 0.6876592810977253 -0.6434630461964854
P 8.940665426066182 2.552209405347073 13.417986790328346 -0.6503872841201443 0.5105390696405335 -1.5580954577177877
P 8.36884202761634 4.979509883024778 7.307963648518747 1.411509667404027 -0.2234232082887894 1.7685531069848444
P 8.834437179034554 6.110387962312789 1.6718713389066766 0.36568800262969275 -0.7152909267720649 -0.4351913488371537
P 1.2607448240520207 7.476294635002496 9.951380985975055 -0.7034764506356401 -1.1521154403372675 -0.570647604896656
P 2.94748774336825 8.147012452932646 2.010739072762696 -0.2643412866593899 -0.624127321982351 1.2333103639500436
P 5.416340340922188 4.214191302305719 1.641681974549053 -0.6185891657729411 -1.4220799867207057 0.7650587422238114
P 3.754798099441746 4.7742188378190615 8.960024298664981 0.3471043260902345 -0.10546356635215384 -0.463058507561067
Ni 3.939977245112591 7.060417970108859 0.5337763617158039 0.8426649200440648 -0.14055681051086116 -1.5463378029612271
Ni 1.598512483775342 6.261208500080572 0.7789544486037028 0.10069956930460722 0.47029513451882227 0.015201647441102853
Ni 1.6192978980853348 1.9204712550270666 0.6351796237334384 -0.626530789217521 -0.6073423892145283 0.011943031294489108
Ni 2.8390331558299704 6.3563518164383295 11.97560532123518 -0.7558709050769562 1.2492221500842937 -0.47026505261183527
Ni 6.427856635063706 1.8672729421643621 1.7288806228719422 -1.98778593134137 1.0276740473310302 2.3727114420444364
Ni 6.885416381039848 8.746852195153158 11.803385722362295 0.14027733159722938 -0.17700991113157258 0.4702786794585901
Ni 0.1307329595997909 5.3721222250611005 10.929059710727044 -0.009292995266151736 2.1694281990386313 1.8740480407955658
Ni 8.264381756869405 7.538912800345021 5.550537224427915 1.090466557177219 -0.3116752958586632 -0.337507940651051
Ni 5.745745192187753 6.641482425611548 10.026339438697304 -1.407584364207692 0.6589272032703555 -1.1042556405415112
Ni 6.493103378903579 5.935105742087476 1.1292897069433496 0.713511723384455 -0.23480265377032467 -0.5382460486374988
Ni 7.409654089752996 6.7630611968928145 3.237897024591481 0.6265415878507984 0.7156603942963417 0.6389782709522543
Ni 0.451866675251992 3.044660958423248 7.539753758376735 -0.005031391776320367 0.47986015249943814 -0.737869326293213
Ni 0.21572116984821962 9.414333400413977 10.062538986985697 -0.163780299815176 -0.5510586270211348 -1.2267190838857713
Ni 2.1273525434518197 4.934880174801117 6.71263551985436 1.527702447248227 -1.1156314864786205 -0.8622868080400504
Ni 8.694954139981313 1.5827316584193751 1.5612203448517519 1.1843871558867796 -0.4168097610061725 1.0934755192068717
Ni 7.534469473703596 2.087961283479101 11.141299183362761 1.6550173051475174 -1.393510145502813 0.27338231381573563
Ni 8.903771783384538 0.5806342813204914 5.716814926284732 -0.12604936092330551 1.4251722524927843 1.39589921456028
Ni 0.9172747392326724 7.743062612181783 12.202165401776913 -0.12412874686182493 1.0797010911305986 -0.012419456710275384
Ni 4.588001356869905 6.271189614872995 6.916590760756085 0.15783848040944432 -0.044544362269278125 0.9847960170205814
Ni 3.385581041469012 5.780833441097196 2.381794264809199 0.13576324577695972 -0.5030851844656498 0.6320771729570469
Ni 4.193714582267656 2.9967385112989935 3.777707891604934 -0.1783718244761057 0.3804008833598352 -0.41295979113246295
Ni 7.545535695633714 4.538011593560904 12.986580932682225 -1.147305934763766 -0.25649248003893244 -1.1958722737082437
Ni 7.253744773684296 3.0935001339914177 6.753420581236703 -0.2381630856021253 0.18902416198362929 -0.8802228236931807
Ni 1.1417104419212112 0.6834547306774438 7.56148115793471 0.9571363463217837 1.0937035760572777 0.25949090054562407
P 6.020398904859086 7.791050539909174 13.88904208861098 0.17957021565958106 0.7277386656171145 -0.8217939901323266
P 5.093932559820383 1.8218855298186893 11.306974463670718 1.854545451986264 0.27775704584466354 -0.14304255304719238
P 4.922036622214429 8.72040738585777 10.110990891558172 0.46186165903948845 -0.6333696665162253 0.18364412861863857
P 7.200901926952906 5.920756135628642 11.21512107990199 1.5211952422573287 -1.5560820268321844 2.2411396086410047
P 5.531567493699187 7.352480168842701 4.740956562299947 0.16842139813161314 -1.3097173792558734 0.7108372618760854
P 4.73255446548031 0.6857951945209901 2.8440050044824288 1.09433966697938 -0.08530611756767244 -3.0879617453865533
P 2.470929268110562 4.6491602401996674 13.086539879682102 0.1163853554709802 -0.7326936956295446 0.7707339382317178
P 0.07773295942087227 2.2548058602716448 9.506311197328664 0.9167720835721244 -1.3328215693735044 0.9676812117171656
