# total energy = -340897.4490087252 ev
CRYSTAL
PRIMVEC
9.03638032775189 0.00000000000000 0.00000000000000

0.00000000000000 9.03638032775189 0.00000000000000

0.00000000000000 0.00000000000000 13.22565602099190

PRIMCOORD
 96 1
Ni 6.341017817810284 1.901543578484118 11.352082870942649 0.4949067624199155 0.23695312445442415 0.0036584226881936992
Ni 4.680302810599453 0.40571811345163034 5.8688054999492705 -0.3515230239832204 -0.5038770842393256 0.45670993963521994
Ni 2.6908442882138752 1.5671884711454487 4.768708429950995 -0.1673001400429764 0.10227591265279161 0.038513582694165924
Ni 3.414251712823944 4.194949788511745 4.886166011954731 -0.3860125731196578 0.40344362411191165 -0.399649447176802
Ni 5.164092538895923 4.544937833762792 2.6230705323545536 0.15898184998526815 0.020673469188951493 -0.4314442230898956
Ni 7.284940030787844 6.246831625983281 2.6188514463942707 -0.10234276133498502 -0.5315845774569232 -0.2639563925161454
Ni 5.260718553402892 4.356384722502862 11.28364042294141 0.5283920386615545 0.9644238811221327 0.9477428209220258
Ni 5.650773908887167 7.8902600376875345 12.40790077385165 -0.23545288575981385 -0.6565772149809402 0.06297197284684639
Ni 1.7278191672902063 6.446842867458757 0.4572571084708487 0.9551103170306906 0.36133795319111317 0.08977957995799377
Ni 2.7299898876568935 1.3939881700087153 0.5507547281192837 -0.1364265903925715 0.4980951874502261 -0.8567728202003566
Ni 0.3869658170610137 0.1903856891839938 4.80457653426059 0.28375954328500164 -0.45802788711569503 0.10358151883809258
Ni 8.433915785446144 2.2525979166101133 1.307622965328049 0.7859564116084271 0.6433077515655438 0.05858901328780232
Ni 6.934039311126884 0.6459602236436953 4.961022482690192 -0.15514833517179086 0.19337832518726697 -0.6740247210334263
Ni 0.7344236758291327 7.617289061700763 2.698814375635099 0.3204602411401449 -0.845928164176369 -0.11144086698151129
Ni 7.490788773934648 4.056413042191129 4.044868162724739 0.26346068382664944 -0.5272777225514532 -1.1014431107933806
Ni 7.679233448631025 3.617714851572558 12.44841086671939 0.20736409794339772 1.1296607108781769 0.0187166025728968
Ni 7.958891346036963 8.667036324326796 6.953415117757936 0.0835485114466174 0.001581999775139211 0.5402386535874953
Ni 6.742748176637214 0.7518512388683305 0.23006172415039727 0.32893588271132385 -0.08265736709091571 1.2030639063606765
Ni 1.8943686925289571 6.2914713446463715 9.444533714113694 -0.42130379222178405 1.3120501411541081 -1.7707058916617893
Ni 9.126201916316198 4.965933755381161 1.3742120517305423 -0.7224565912825688 -1.076684415791462 -0.28150622847445067
Ni 6.256202352350412 2.0705600355437235 7.0416833841289765 0.45422548265046936 -0.4452325351232396 0.27820570334630795
Ni 3.358958101791666 4.318025288145612 0.5568118138318079 -0.2720425119583895 0.1396965193930949 0.09066789610021805
Ni 5.727818087292332 5.498944647150881 4.825341232543166 0.43744620630960146 1.0860121209502909 0.19611706427466868
Ni 5.225811016318779 2.8337636789781353 9.415807061152162 -0.1482670346709253 -0.10182031317261173 -0.9108940275247925
P 0.26758167877813405 5.525141113629484 12.307927684082978 -0.5675080308264097 -0.43724488893207275 -0.1463723887513737
P 4.218191358633501 5.904226303434206 12.550883419277984 -0.15387306800379308 0.903396947816799 0.14894786278803382
P 2.3376392915773905 8.382200581011151 1.2851503911694984 0.14263683296834143 0.14196937458767162 0.8456839093760466
P 6.329604869496219 7.6405938864845915 5.952444428694581 -1.0885883663178992 0.37800127277940704 -0.8288120733213725
P 4.67249537802356 1.0622807220968244 12.624338347429509 0.20412785039428716 0.1039998373224338 -0.22525357662930884
P 3.8901346083612633 6.3544368425501 8.24681843505193 -0.707837041597181 -0.4953381935303791 -0.3489467786156119
P 4.692989888535279 1.0520334668409652 3.696531064153802 -0.06922386729382916 -0.3534513513541848 0.5160689983198273
P 0.2110139381240958 5.655002934865776 3.5887152999260827 0.578991348875661 0.014931681609167831 -0.21076772430830798
Ni 1.271310271107881 1.0469730938751087 2.62215785794464 0.3689581887405323 0.5922006484770833 -0.2479548748815665
Ni 2.0460352994199122 6.558668073623888 4.8325757586082805 -1.1223320384272477 -0.3605231705993017 -1.6338455561659089
Ni 5.850730932080867 5.500318176955899 9.176938480765116 0.7142200623053893 0.3378131305962957 0.11850497291714429
Ni 8.750794533292018 2.207045523537109 10.094111200789946 -0.21253304373884685 0.3143538711320909 0.2458018330943057
Ni 2.38535137954118 5.325771455155036 6.897840475298447 -0.3949556412455585 -0.7921039192670616 0.8475908965907726
Ni 0.4375496666829267 9.019129846186852 9.281619524668095 0.8625066373603404 -0.13008419311431146 0.06124110619866873
Ni 1.6924327020503962 1.1521836696634422 11.496348682371039 -0.5182132983563398 -0.08950241503720716 -0.5444172104452172
Ni 4.373635172488255 6.765971673998376 1.5429971774545659 -0.5035983766566424 0.33858806108910716 -0.3847321637453374
Ni 5.5344576217148385 7.791763492459257 8.13897646532135 0.14156545428103362 0.32981854242659325 -0.5782074195217849
Ni 5.319979135385189 2.7748645522076845 4.918528904347442 -0.742374156142102 0.017016332052338434 -0.6356031838324344
Ni 0.9249909962570795 7.289069656583195 6.889469172592073 -0.6537765123073515 0.438183084475626 0.5063720827470376
Ni 4.897456065496768 4.84933734041965 7.048692904324717 -0.3315684352381645 -1.1493085670160919 -0.17901177205294977
Ni 8.149495715624125 7.110022817394839 9.010242566165568 -0.4088336847792314 -0.2417171215019708 0.5670256918733525
Ni 4.658281151817682 0.42606442732649175 10.376333622923939 -0.8951329080357938 -0.9506548523624982 0.6124941086187968
Ni 8.160664681670193 7.083410677422611 4.866023016636533 -0.035226427302461914 0.48581739852413747 0.05794855149032601
Ni 7.144080934731112 5.98573445370568 7.072472139074095 0.5160934237998596 -0.6090822547237704 -0.47263895216065055
Ni 2.2258231217925553 5.179553785582673 2.571279422325072 0.9751914040512819 0.5045237166843892 0.5791759540826412
Ni 2.4787062243809355 5.17717721756478 11.449582703424257 -0.9436907623398392 -0.36202855150023455 0.873510958890644
Ni 0.8512315420895736 3.488774741126477 3.5811238368392684 0.1594096815513061 -0.8191588665023247 0.5714536457377192
Ni 3.626977141376135 2.7126761830094273 2.6845432202333543 -0.24628031539262102 -0.06326739260007813 -0.23292780534511498
Ni 1.3882229593797575 3.3164328961178793 8.193306798214056 -0.8623557136047729 0.5542161988135101 0.5377999622390157
Ni 3.6310435125094123 2.653388491886241 7.091186482667467 0.3661472016542984 0.507974394237151 -0.29098228628568595
Ni 4.019490392300969 6.954344057652383 5.959427743387463 1.3493964430130503 0.8566864311341374 0.37203039990795284
Ni 1.1363519313845485 7.389617460138704 11.520379128492648 -1.3421006806825855 0.3692806050769576 -0.49706957439918914
P 0.2681301870621117 5.481504433179269 7.978072870491649 0.24191072557001564 0.3214393172239625 -0.1962674738096039
P 8.51265880334699 1.4671738140274144 7.948500412334394 -0.7024886328010741 0.8341365708580796 0.2980517915379577
P 1.8784014085456209 3.208728279367803 10.425335202355994 0.18903161818279704 -0.3414532984520442 -0.3535739929749781
P 4.035981786341483 6.1969146612272255 3.668690880099325 -1.3172239720455636 -0.3926485903789367 0.2546716247801098
P 7.047879630098062 3.85796509450689 10.145374586210133 -0.06958382173640919 -0.009761193151821898 0.9205816871262017
P 6.302721638115106 7.875557846945662 10.211475708076632 0.421201462315965 -1.131772100794225 0.4989729620694891
P 2.331892153709025 8.590642765302956 5.7189190599766615 0.571191650325584 -0.31372857884326616 -0.46790426568914256
P 7.079705761501181 4.038141481232268 1.49810986197136 -0.8216258399855785 -0.09374164992953533 0.3355814130522995
Ni 5.294857998161832 2.9614748417039376 0.4667416932297111 0.43652960803260304 -0.24894140716455188 -0.18878016429362326
Ni 1.3854397542485364 1.074633453961692 6.993237542085138 0.09848430682084329 0.21693245835812316 0.15546123842651935
Ni 6.69254204771168 0.7224034827591643 9.094714649174184 1.30901829630632 0.04139527511733516 0.14244322890029662
Ni 2.7758495176599673 1.5163769047400721 9.171542858090271 -0.64749530728433 0.11646325989676717 0.5313683476810591
Ni 6.282606655575827 2.186614267687464 2.675391174269391 0.8777486511210755 -0.227135367033054 -0.21324935307958115
Ni 4.090787432837768 6.7802220457254405 10.461863866065238 0.731422799336921 1.0698684213108929 0.27981110016021493
Ni 8.102759556732321 7.164656772665496 0.18773170429100802 -0.51270702382613 -0.35572266388686474 0.470176606663087
Ni 7.789549579286695 3.740510223417243 8.100264612132548 0.3154213931646568 -0.1372591135961959 -0.5990215280536587
Ni 3.193357396484014 8.342313998383847 12.38089374406048 0.5300455151045774 -0.26332287269720456 0.3862622272366186
Ni 9.14210594563746 4.678061788286002 10.04308727944761 0.07259432642795885 0.27910044724643546 1.1369284481841837
Ni 8.541141474040526 2.4402112443192414 5.871398037456243 0.37749656522884667 0.36097285654221056 0.2413286278143005
Ni 3.6492970007076804 2.8712194753057694 11.67908778654841 -0.6080453288188238 -1.2274935001579503 0.07744445543140856
Ni 1.187380370917033 3.2867754959858426 12.618889410110917 -0.5167472553337746 0.6451509754218696 0.4140044303468934
Ni 3.134864906826891 8.484962297739223 7.835261916290942 -0.2749596856051845 -0.5542712204211615 0.5017682654264392
Ni 5.634951206988569 7.936237140634459 3.7541687122349074 -0.42463645613944284 -0.18436429461411474 -0.18038859779581837
Ni 3.107331056064454 8.409851904717438 3.453417192303614 0.0808532240026414 -0.19288338782871944 0.2787044973595974
Ni 3.533757842240822 4.473866702733398 9.369650134237345 -0.28448048061142617 -0.7120742196069801 -0.7020451175057522
Ni 7.213344789701272 6.014668943414024 11.284354296984807 0.7765045221669078 0.161650912176999 -0.3960571018398534
Ni 0.48137520748133245 8.991975523396855 0.19298364851914335 0.4205651142835467 0.5433825985331158 0.5488940152696482
Ni 4.5745139064721645 0.3107385274346231 1.6058587569848881 0.4761227969441929 -0.4974940635311174 -0.1287418201538041
Ni 6.157741952643319 5.526225479265025 0.18598858653187636 0.10161462491970885 -0.0013423729605073658 0.7189172106707424
Ni 7.89119078485804 8.819471023542926 11.417602953556104 0.5101071243094376 -0.5700444240950182 -0.7000823373524265
Ni 0.12687077935825833 4.91966748826476 5.668145446368529 0.44737837782164885 -0.34486566656770284 0.9989951913390989
Ni 7.971135641338276 9.092405854008513 2.4907345501931704 -0.6691697069339702 -0.33467715607047527 -0.16625215839443624
P 8.390812251433404 1.8136918892447313 3.694996686779512 -0.4283079914537592 0.15798991838564405 -0.09872033409104933
P 1.7340542696945656 3.0214402613493365 1.5814840247739932 -0.2671623010479528 0.9837904585742026 0.1934531442892604
P 4.674745436717307 1.0738201797350364 8.203040787069092 0.3695672830794409 -0.5371741557295588 -0.8673737356446545
P 8.587480032199297 1.6313106257270868 12.30636710120583 0.016247572207113953 -0.24247328294170498 0.40665261796751256
P 6.352123529194279 7.91612215809518 1.5581141380520325 0.3149182282759931 -0.0283096455779706 -1.1169787445351345
P 1.7650761632513248 3.1718056294776424 6.061741255652843 -0.1565174476051756 0.4721854095629997 -1.4580535766018372
P 6.703593540813899 3.9465487305502664 6.068354078753583 1.112653120576587 0.587633340821375 0.8099432614413277
P 2.4326477940113453 8.525363954043408 10.16530522659137 0.11900890913675634 -0.047666967058659845 -0.05775186209848763
