# total energy = -381176.38530696207 ev
CRYSTAL
PRIMVEC
9.15862093263121 0.00000000000000 0.00000000000000

0.00000000000000 9.15862093263121 0.00000000000000

0.00000000000000 0.00000000000000 13.40456750250800

PRIMCOORD
 96 1
Ni 6.178744433987353 7.215417876486744 4.997598328301782 0.19979219913341076 0.15138346881271994 -1.108074757177285
Ni 7.416953326321088 8.207965084162149 6.733449122414835 0.4286139527299521 -0.2087316677148857 0.6550168124723559
Ni 0.4992547348952378 6.2940697866033055 3.241572924377546 -1.448837457320208 0.5257952244686557 0.36103764834187496
Ni 2.0742077953502696 5.251892013026866 6.419969682749308 -0.3476254887010271 -0.01263877180993307 0.8613568400266134
Ni 2.9805906989110853 -0.06702553431141435 5.9296308651643965 -0.20427414616416434 0.4948286008838123 -0.4203995352399599
Ni 0.9106123546280054 2.2752303624220254 2.5511173273140906 1.6924587378234273 -0.5105403551921143 -2.0560363789783365
Ni 0.7761024391050767 8.211024063496149 12.516259969892142 0.17770925119144235 0.7584666908285905 0.1174161107283397
Ni 3.732779063348475 1.951097615087909 7.049917935896583 -0.55048115725111 -2.3880172191635713 -0.32344117814533974
Ni 7.6254035348295925 2.8094343941392514 0.608006945391395 -0.725328513513725 -1.422472079952802 0.54841373319912
Ni 2.099247464509419 -0.4067077879726723 1.110115506515598 -0.9889568332664903 1.6597795024228512 0.021691626040820707
Ni 1.5058879013002586 7.181512662431451 5.2571105951361865 -0.2869523391906864 0.551860811207456 -0.3769260374373573
Ni 4.223149936106048 5.668142167969881 7.873146058124705 -0.5186699262777842 -1.179327224865369 -0.27552044320466096
Ni 2.740662310848814 7.043968495850575 2.8084580851661847 0.3812490902927434 -0.5688344629473171 0.6895963502194381
Ni 3.908908499193249 0.6726878727881268 13.25203700178883 1.0354547197177135 1.3260557114045808 -0.48412406998211466
Ni 4.994855321384018 1.710528123572404 9.333399299761725 0.5279567508963487 3.091553833613186 1.7924646234951196
Ni 6.224830613654083 3.8019632845731346 10.797660353843527 -0.2806775619255682 -0.5529388747629832 -1.584952944230264
Ni 6.818492411348339 0.6750938424619045 5.043026003135835 -0.6149317715260119 0.6717986599163849 -1.1084815056974007
Ni 8.310907981509935 9.33199345147499 8.745045838660241 -0.3915568999766547 -0.12656795243093685 1.458372650504153
Ni 3.1556485761268833 7.115030234331133 12.893209567289865 1.189034424850804 1.2698696511313163 -0.1627192055405133
Ni 3.950735920206357 3.938115340798417 3.1109453481949845 -0.8338228962724027 0.2617840674551749 0.3917769864072608
Ni 6.461580960312468 6.131824819831419 10.748921837604563 -0.5768714743191807 1.9696856221962336 -0.531800035901839
Ni 8.404857113270928 6.186364406460071 5.6688849321135555 0.6805131569712474 -0.44900717167432347 -0.848555574496887
Ni 1.947635656440448 6.70552998288859 10.968126098610021 -0.885897505480455 -0.3131840191937058 -0.0263185832898708
Ni 8.572084369736515 2.9860583955050917 11.896057405096094 0.674000295553394 -0.32537336217104607 -0.8892458531273975
P 3.5522992826424735 0.9437683935050919 2.5834893882540797 -1.3770057200898866 0.8454828491088342 -0.5042606928309896
Ni 1.8484752694667406 4.723293057215052 2.149422052483628 0.6444251529994385 -1.456283114964976 1.4662505105903327
P 7.437358733375436 5.849739300408661 3.1567760023424984 -0.7839710057472822 0.6860613404829862 0.8044007343565437
Ni 4.252970405302168 8.37067714059282 1.4673713216920636 2.1855839828628874 -1.4449653759593115 1.1794182419172785
P 4.934884672644402 3.646413269577157 7.6669571130819625 1.5068749689799144 0.06573410897301583 1.4427156606931864
P 5.215916950679704 3.5744356690205517 13.459793902705766 -0.30064114953168863 0.24413190159105055 -0.16959202140094665
P 2.553753178368956 5.126373115504499 4.300292082909488 -0.5216673183432112 -0.11570221336102654 -0.5804303953150326
Ni 1.4003073211734551 6.503554919257745 0.9298866720184338 -0.2811401033842836 -0.1667347544578096 -1.737964178454394
Ni 9.169427932976486 2.019594939755532 4.549630953803152 -1.3700460009426019 -1.2753080485380681 1.6725761399668873
Ni 2.188589810027893 4.811618795829113 12.430471169228735 1.0492949680349155 -0.8073168795620741 1.3189201288010641
Ni 8.556716204100432 7.593907038034304 10.374934138160778 0.9820845316266893 -0.6476359466272524 0.7594275120799631
Ni 5.971356625487064 0.5487634911401598 7.790935530592416 0.33342631438250964 -1.012589899304398 -1.426283226168776
Ni 6.4938742571139185 9.029749807758419 0.6407462670238797 0.3885227411360212 -0.27975607855256335 -1.2057584224737041
Ni 8.377024064779834 4.981630273005886 10.342722353084097 0.7339193405065296 -0.4038652850303625 -0.055671839641007345
Ni 5.702093175128977 6.629394368506728 0.5067446549531577 1.7043292640087682 1.450381147658244 -1.4348223739880388
Ni 0.4720536312366148 4.269034626116048 4.563343240805741 1.243358235104349 0.8498580953583945 -0.13692255619238355
Ni 1.1112337741104525 5.692989506093061 8.939492516025974 0.19678015177996433 -0.06566751740113852 -0.7790632840330196
Ni 7.924276806106308 0.9700444764669065 2.565808670875975 0.5577198410913943 0.18286328458855602 -0.47174677936368437
Ni 9.084509201285323 8.186726242618597 1.8096839312357311 -1.1249085409051722 0.4171959407009976 -0.6148592664168636
Ni 2.994575912812337 2.7260268348735686 1.0896844553231213 0.7011583440254247 -0.1639214533787306 -0.01517439374759322
Ni 0.5265703213133668 0.8981392290143089 10.662113682450514 0.21754849467556728 0.802527942813863 -0.2094893718165166
Ni 6.492124960548666 8.30088845039797 2.8921825327101804 0.09144899724061671 -0.4863447317825172 -0.6115093761080241
Ni 6.110952323118286 1.9912764843641308 12.125651205492241 -1.0589664296864085 -1.3076476412110383 1.806935820528101
Ni 7.088699199644756 4.813441361360449 12.66258450619609 -0.29695598737061757 0.18337107746291 0.9568725511374359
Ni 4.336084888703517 8.61131990107441 3.984735468055484 0.2649884333250856 0.0019116152004160626 0.21714097482450345
Ni 5.978710997957728 2.347052266425703 6.3339931303603105 0.8331832058058747 1.2295105305879792 -0.3306029860011016
Ni 4.021156555233681 5.407286331469915 0.9655668267771083 -2.4877793642555734 -2.485389523867158 -0.2775906954701284
Ni 3.73382314611517 2.519774695347578 11.330371530376796 1.3354422948258031 0.9424612608081123 -0.3055542705625899
Ni 0.5748765506524379 3.771144525714122 0.5032423983743505 0.6580085481108281 -0.04831257106245873 -1.067307345451936
Ni 1.5095421909836895 0.9020710249067826 7.830559387450553 0.07947794092166957 0.7278407384126175 -0.5045157462645893
Ni 8.508990631317577 3.947823478804525 2.492833696518553 -0.8429839939463805 0.24610702303955034 1.198769906971013
Ni 2.782434780137359 7.416303064247093 7.5827893882931585 -0.02755142725570739 -0.23669344303513426 -0.29826724998287346
P 4.947725058950593 8.1351632077371 6.4498753271185 -0.3082089345766176 0.9359175461523237 0.9967956125846187
Ni 1.8212924830496384 2.1946344997298093 12.325821104971197 -1.8058477296702449 -0.7963264419888415 1.5735799265066321
P 7.926658047504032 6.522888767683115 8.692607239634041 -0.6794232663411782 -0.6832151292834427 -1.1907966589575494
Ni 5.100161142888008 6.278939745106994 2.7703756241820363 0.2627127499170314 1.4915936173408115 1.4684236069822518
P 0.5531184153117676 9.336114830817206 5.867942975032189 0.49144117246881813 -0.22671961965187404 -0.49889042965801184
P 7.457993105948795 1.786288234503087 10.480669498978434 0.23313735025275978 -0.08625999684050951 -2.354974172665673
P 3.246025845791291 5.198781171236847 9.818805284205041 -1.0986442078920047 -0.69191934192566 0.6967877257615548
Ni 3.844596664213165 6.5714477749551765 5.278584813233282 0.3786887857647349 -0.1508131981315467 0.014068048057291902
Ni 8.341964864508718 1.50515521163942 6.9967951878995756 -0.46582501456261066 1.060320886831774 -1.3718311178674825
Ni 0.9756678696138407 3.240045266434698 6.646386357603644 -0.028119641054351573 -1.0435932896644478 0.26707256954762393
Ni 3.8648555333353447 9.062968125256676 8.86123668093806 -1.2062024519896581 0.10022185833724029 -0.8813921614109336
Ni 4.432937303245583 5.233281695641573 11.710189607796703 0.14811662513599005 -0.40682076811426066 0.38844226560707296
Ni 5.716710333862702 1.7775234344353088 1.7905817959155998 -1.2053614441456018 0.26544788946000736 0.0017925731240485258
Ni 2.5215423091543507 2.212887630905444 4.510154550739259 -1.195566569542367 -0.139390815227218 0.15354653790230974
Ni 6.266392434665137 -0.5407524455609687 10.197256895407483 -0.5585114837547542 1.168232400503788 -0.25848045700323874
Ni 2.9727875540231574 9.199926140108882 11.306443717777968 -0.7466092772693722 -0.548003899355211 -1.2131549720480912
Ni 6.483955470830319 5.811895879426361 6.8637149330773575 0.27838002414064317 -1.5157959256186282 0.4898380896477564
Ni 4.04348527264773 3.821581050242081 5.75983553143757 -0.8289041188145467 1.0200142167929271 -1.3556046287062913
Ni 4.144834569983191 7.114572303293109 9.977702775088973 -0.31676453745611255 -0.075165943809877 1.2974290488068236
Ni 5.763648265260158 7.2920846908727155 8.405106227755613 0.7647908332744054 0.964750668333932 -0.21213555119011207
Ni 7.73315470807663 7.249112442264547 12.73551826676009 0.11971493406484543 -1.372464123465791 0.056264736029999866
Ni 1.424220479979066 3.8341558365462185 10.452693576003474 1.2462067602967377 -0.20411602331974527 0.5638457514834742
Ni 7.032877406109636 3.870442291999237 8.469715717910413 -0.7454923900561097 0.055007466584131075 -0.33208599830453134
Ni 0.03709241407994043 3.009788381895493 8.921731202785177 -0.6020009223969567 -1.3048808770991784 -0.5791594990224089
Ni 1.4454684801433777 -0.16727030198316253 3.5720223724501654 0.11258603632954803 0.9629984615295155 0.45369943494367027
Ni 8.31294119531876 8.22520160843337 4.52593119086126 2.063628846613614 0.018710689035625838 -1.5566715807870675
Ni 1.423799183424084 8.33299857478421 9.32827871489454 0.7219845367421566 -0.4997982861842618 0.8871774006341432
Ni 0.4366464033766026 7.425324305696165 7.402270225517888 -0.7545370167568811 0.1696403581403788 -0.22101819839172257
Ni 7.855440612470546 3.9551137409298662 6.1021078430498905 -0.15467808040359168 -1.1117758601779564 -0.1149329392951698
Ni 8.255086187974813 5.8774624454506315 1.107973305119722 -0.27251353805753714 -0.09762401570307704 0.5504299922982006
Ni 5.9820172600522605 4.238646322432779 2.0937129099838616 1.5322553567262323 -0.33131852401088746 -0.7316973931545464
Ni 4.7305650020988725 1.9407575322493282 4.09047082887314 2.096438951165099 -0.044521993671774944 1.002422471853093
P 0.1945712346080747 5.498515352865048 12.346866699616701 -0.9273161776365578 0.7853974537811635 0.10745745685373105
Ni 7.715936501046928 0.07748559508195756 11.82569721696579 0.6839250108662738 2.134918852407852 1.366401205101163
P 9.304975520231578 1.1308790156416804 0.3020540602668295 0.028481395269144498 0.01352117441488639 0.22845151474131623
Ni 5.79371601721681 4.935113638163414 4.6291332771765665 1.1031603505948033 -1.317968306410756 -0.3007702189103852
P 2.4997631089859316 1.6548345507279305 9.667802524416642 0.24240000650160834 -0.13809420790298155 0.5436561639094767
P 4.996833583468282 8.157748366532442 11.826246734211418 -0.3565914396450633 -0.23600233050538064 1.6032491714362902
P 7.046880937252408 2.647207744608885 3.59187459881058 -0.9939882250428106 -0.01973295965255311 0.5589763392063147
Ni 2.798590587158844 3.5553033102519107 8.332908820300757 -0.82280057701997 0.749094248474755 1.117199602296689
