# total energy = -340859.7714028021 ev
CRYSTAL
PRIMVEC
9.46932066826590 0.00000000000000 0.00000000000000
0.00000000000000 9.46932066826590 0.00000000000000
0.00000000000000 0.00000000000000 13.85930797160578
PRIMCOORD
 96 1
Ni 3.3243471095438637 7.958377041433426 11.000118899980011 0.47484084490797573 -1.0625726589804283 0.4546849387853911
Ni 1.720537713573503 4.9304670197914335 5.28121445025687 -0.6034070587158641 -1.251903810681515 -0.3708201816499356
Ni 3.191625109095608 5.092884810294322 9.860288231903747 0.08933992131741388 -0.045183024294541546 -0.453824904777941
Ni 9.05104196949594 1.9167136327577574 7.153772640085817 0.2590612692073732 -1.2688211552621438 0.548439701341049
Ni 3.891029143992023 0.7617150066108591 1.2794605380541282 0.6377189446238566 0.05939788234234286 -2.7578958628358436
Ni 1.5349390257320499 3.2741028933353555 7.746411029801435 -1.456969342398723 0.8964786234304108 1.940838358947238
Ni 6.666363971715898 3.4151578960948603 6.575063621279115 -0.10445595102324591 -0.00012521272395462306 -0.024486158066822344
Ni 0.6389045442525858 1.1715443703951314 13.854208175001833 0.1554812930311774 -0.08468108238916384 -1.9912582061606867
Ni 4.875781692123863 7.2087477289701205 1.2609991502063884 0.10123667275499985 0.4594471360607249 -0.30176112206874484
Ni 2.6077278494180733 2.3718565374056877 2.395096144533264 -1.6628586555688072 0.5785792010389067 0.0756966195023664
Ni 6.877349908644235 7.24178618927006 5.973694517778303 0.908109779911436 0.8691367410823483 -0.30966443607622157
Ni 0.9445041469685082 3.5508532632769025 13.69249774276332 0.2578320247859624 0.6863847852606759 0.08044981791663564
Ni 8.828976927221964 3.7749826174870735 5.991780920522036 0.8089526153932841 0.7076195262697361 -0.9390110974759829
Ni 1.8487239093546126 0.621507508063692 4.017064857017582 1.3772427758013572 -2.6282544136859056 -0.5066541327638306
Ni 7.488092692813123 6.880664170927119 1.4016753801335635 -0.6967586722958323 3.5485113704828377 -0.6854787285066388
Ni 0.8666312934378062 2.5039725013222163 4.196445988816346 -1.8182982967287715 2.5796405093329446 -0.41648400223563753
Ni 4.323265761604827 3.09029390712666 11.318550379323176 0.10158248613019279 -0.06347488062519391 -0.20696274873992102
Ni 7.412745307141979 1.1927651183263912 0.15535746490826613 0.69521472484748 -0.3136133934216405 0.6005191956451077
Ni 9.049394307675307 1.769323654377542 9.607466835644617 0.41958938063383866 0.26220547126330973 0.1538427289864899
Ni 7.687497650392986 4.92758834626573 2.0021988732862015 -0.678362943397464 -2.222827440595378 1.1029106964778426
Ni 1.2727903484768057 7.838580663888415 12.389278678801327 -0.5419885463990666 -0.8230587157773632 -1.2660909008151742
Ni 5.819371102702296 7.903322410254334 10.951168192993908 -0.8956314449387672 -1.8962070933911088 0.43092666002352875
Ni 2.6688049686312048 8.325370038677475 2.395456925656058 0.2941856237143321 -0.02306176691546996 -0.972842187092815
Ni 4.883698044319549 4.540473042304177 5.073781402495784 0.44563337010608417 2.236974421519722 0.3978226783807084
P 5.159444666255422 8.524509855274708 5.5506942756818525 -0.711538144597852 -0.6457670117393137 0.2626631276260186
P 9.769971743898939 6.2561056476990125 13.702823090172624 -1.375450974008257 -0.9756760569971841 -0.7553533420105895
P 1.6649528004291496 1.1256465724376048 8.03645822002191 -0.6968779714825161 0.42354296596494795 -0.7311878005079795
P 7.783611256596596 1.6662785053423028 5.066686040414171 1.6035831577369415 1.041146113675536 0.9722891428028222
P 6.773727131039694 1.0240596988068338 11.869153507038945 -0.22393614336946596 -1.3823237898686904 0.816660268450187
P 4.022217114469344 6.990991227663892 12.909738117588235 0.6729428008231572 -0.8140855657444754 0.5728165875235167
P 0.8895934494657011 0.8527577915216576 1.9961839607088088 0.3508956748118667 0.4194767663153744 0.9008052758302227
P 0.7496861283881552 0.5625250026133428 11.145004243006445 0.07145147107276727 0.5120048555527827 0.7626403625903059
Ni 9.052500244900408 4.807877192607992 3.749178718284626 1.7742434725014022 -0.8953979887717224 -0.22151159308837334
Ni 5.029089996009227 0.5849038484794503 7.443321744031778 -0.32392608820155827 0.04479350216560672 1.204096975610881
Ni 6.399215493073905 2.121961161276303 10.136448663158939 0.8908517641619367 1.9229499087025916 -1.071092266415665
Ni 8.064802737997207 4.277349025005684 13.642853881494057 0.15733582974141289 1.12446039762416 -0.4806188850423336
Ni 3.071677222417665 9.330898276662587 6.0784848626385 0.35334542190393986 -0.8558269113473197 0.034745116790669196
Ni 4.779838533694801 2.8491955300281275 2.826051563040714 1.179431097433085 -0.2470693869528197 -0.6211980641506979
Ni 1.4002758145181058 7.516055597159848 5.860353376228266 -0.5668156327450754 -1.0449449185963358 -1.149427351982143
Ni 1.9725258096015084 7.043403918337487 8.565468455498657 0.6070253721947416 0.8107361896562681 0.5122979613131693
Ni 0.475760456843706 6.590230632417669 1.9541761597393061 0.04944102823994711 -0.9262283438890178 1.251010352332968
Ni 9.135167415556321 2.793534862317308 1.7890425680286157 0.12219527728453794 0.12001163936965784 0.20651100591448304
Ni 2.8305693759983246 0.9040587839323645 12.061839034573284 -0.3875274671022874 -0.03805618344177317 -0.610427455897755
Ni 4.971819543761007 0.5455597674533048 10.828623818550346 -2.3377986893276512 0.4109358187238988 0.11760765791385552
Ni 5.430778584694657 2.631893556120695 13.717403003421065 -1.2025206322626967 -0.35496650244713057 -0.7872923568110313
Ni 6.948521323838948 9.151473585988105 9.308022291454048 0.30855320528991376 0.8926962735698433 0.11274698738744453
Ni 0.8253232752760322 5.5407552765615256 7.341386399395263 -1.8002008157971126 -0.5712042487310743 0.7367010170167247
Ni 3.812348557396378 4.84867102664988 1.6739685407706721 0.5985188773856273 -0.6015152410097899 1.482426349019247
Ni 3.434106007032143 2.2344188151949305 9.005820281044121 0.8143876703659264 0.04675062589197755 -0.17171652394311718
Ni 3.0235446647493944 6.03703291080044 3.8404838033818134 0.46080596408146446 0.8243807770228964 -1.6651816472750292
Ni 2.3494237164109735 5.817032180462661 0.31936420744277627 0.022219987740464957 1.4594018630996155 0.1692703763954698
Ni 2.2016928424816617 4.853377279091574 12.084027547091146 0.8175421568345081 0.04620838023526235 -0.2747308574238301
Ni 4.405014408142341 0.40044621379538986 3.290504703907304 -0.18663766402932375 -0.27860319589504273 2.1991987454328443
Ni 8.414069166688234 8.8640796994581 12.052275967489045 -0.30467418195048174 2.027521045147463 0.21398366014244435
Ni 5.946042207154087 5.882465187247582 7.368453505993529 -1.062496554326854 -1.9626179167161748 0.12160495199870669
Ni 2.1258814600909135 1.9173007306478678 6.065318718986727 0.5898915407279324 0.7752086861736197 -1.598305711388086
P 2.8876030952263383 2.863380572598867 12.928794178782733 0.23599487430621288 0.048814193289225614 0.48264131478900096
P 1.0669935993513822 7.880037350386878 3.715625126932718 0.06748657288774829 0.28206647185329486 0.8799536291921941
P 3.890603024555652 2.8492618152737847 4.747256494657818 -1.6201842566287321 -2.5234012272242414 -0.07484738412819367
P 9.10567995055947 5.872636032248631 5.568504174257985 -0.6912349142641256 1.3143839314936072 -0.21378645652997375
P 4.8965289740147115 2.887195914431584 7.459190431842221 -0.8545614143713347 0.014178091272594938 1.4522940484102407
P 4.10781977457581 6.409101463997704 8.288919782090327 0.24950884963224773 0.2137738581244835 0.21299995607293637
P 1.502269868943631 6.360580664176296 10.678375052218124 0.554269934869581 0.10733224412977643 -0.8608215363484336
P 8.019776117554036 7.96399234867271 7.9039776872542635 0.0008800886121081618 -0.8892417393623394 -0.5831737623881247
Ni 5.65811803865882 4.467464578872666 9.517006413963523 -0.023333018298985625 -0.3896501698722451 -0.6800956098178546
Ni 6.791794595141811 3.3566564321415693 4.094690561275188 0.5797521383010854 1.0608243088307536 0.18279515035478194
Ni 1.8663557846995507 2.813448843977031 10.79030337110357 -0.9178743154973676 -0.32030263251635804 -0.19038504688689792
Ni 9.334174661662239 8.348086939296435 0.27800505494863775 -0.6803766313933831 -0.11202476450943934 0.8376877785444476
Ni 5.019734307050689 5.382182030306783 11.664464668448087 -0.7035510126273173 1.2815650851913736 0.5196070933800728
Ni 7.384659301624746 0.1572314434962163 6.72843063495349 -0.42152387865239016 0.20884505336429837 0.5228055457127125
Ni 3.618928210567321 6.929099746861253 5.991628464457023 1.1965291905659523 -0.2751993124198163 0.6518124466024452
Ni 8.901398292763364 8.792264370448427 2.503753760011546 -0.6327217485195813 0.37517383063294096 1.12715877039193
Ni 2.9071477733745397 8.705686370298713 13.580721879942887 0.7360826667064356 -0.36408954779432134 1.8396896179203541
Ni 3.083296079049372 4.837525636058584 7.203639030394076 2.010805017944363 -0.5102289945992826 -0.02743161384839147
Ni 0.19101135161544158 8.034396748881957 10.183778222422672 -0.08235192003535495 0.05682086564378601 -1.6682284045211526
Ni 9.27114686236261 0.07469779026369992 5.218736818496201 0.11747138944630736 0.10301664747355807 -2.267129862057179
Ni 7.099348665672553 6.893703425680061 12.900590753687478 -0.009678146519712364 -0.6487476916341924 -0.2815206266521539
Ni 2.2428370413934533 9.370423221716171 9.5944806090882 0.38035460350293204 0.5777798450660631 0.11874999904841485
Ni 8.245979253021211 2.4702806578865073 12.23287674780791 1.4463062062579222 0.559416512067527 -1.563984826619029
Ni 0.36539646975577994 8.91769499387434 7.2659774631388645 0.7841340136877077 0.39298309090022 2.7436123563336365
Ni 6.52011978115348 8.678566235503922 3.627189246040427 -1.4601040313729627 1.3953289438791066 -0.721057654052513
Ni 5.769846554875214 1.0152532304551731 5.175522626055729 -1.0459039400754953 2.4439708517110557 -0.6858528240166059
Ni 0.03034254466583511 4.720721563888976 10.975491090421947 -0.801451936140865 -0.3118375324681404 0.042252995131940134
Ni 7.741169760734076 6.973719186509668 3.84619380382918 1.9875347345625125 -2.6831970884703726 -0.36439653751177886
Ni 7.499219144762803 6.183617996911956 9.03014317847216 1.1877115922743222 -0.8883410819249411 0.19088075557639383
Ni 5.419907804406801 8.828550807785595 13.076756104139765 0.10693680846357068 0.6871327191702941 0.9975977967709401
Ni 7.373996846394671 1.4332574588931966 2.9407790131570763 -0.12169828304346139 -1.4127970187568828 -1.321191441333744
Ni 5.746949737160897 4.978258681910608 0.28813817514553264 0.315056039405438 0.6318318897154602 -0.025760396793555632
P 5.6320868757569755 5.739876154517143 2.80978042909592 0.09879592452399114 -0.006237239158963451 -0.10928602542203758
P 6.6828595285638475 3.08019014182427 1.5228467030599306 0.8255722262278363 -0.1869145718397942 0.39838292175955264
P 1.7941995601407819 4.490067847641929 2.6293463088232794 -1.0095439133892228 0.2566889123204547 0.5243934590251227
P 6.751976101143173 4.171785036635454 11.752513254119322 0.19201486918083707 -0.6506220258387697 -0.1154985819906527
P 7.761481453867745 7.269417667388496 10.81996223080705 0.41435307193556387 -1.0096580703695837 0.5515651343439082
P 8.999538333619936 3.9695582214547356 8.940695027185468 0.487121976268174 -0.3271080854739657 -0.7761263128918827
P 6.170843883141643 9.345755641010712 1.2368324965716857 -1.207046030936876 -1.2006408987414807 2.007514263008233
P 4.697190301680505 8.555834368508357 9.177744322706399 -0.5230845104057121 0.18977929498209894 -0.848749435675248
