# total energy = -340868.09195377136 ev
CRYSTAL
PRIMVEC
9.29829665106457 0.00000000000000 0.00000000000000
0.00000000000000 9.29829665106457 0.00000000000000
0.00000000000000 0.00000000000000 13.60899703506086
PRIMCOORD
 96 1
Ni 4.872753713288799 5.597937159944653 0.9218517171001094 -0.31365761639601464 -1.2207338128366136 -0.31386356175923363
Ni 0.1508313877445252 3.0147773938759697 3.8386762059127246 1.4554953289563577 -1.3176332916688405 -2.5522081241536045
Ni 1.3168619513686017 0.5849688539183376 3.7615951871273814 -0.39921673051475765 -0.8504211669507161 1.0661866015839316
Ni 8.396464070830596 2.473774605390407 7.420182915183868 -0.8953684210853676 -0.8120209699059628 -1.1928252593518038
Ni 4.139517941815929 3.5347939270358895 2.049977774815907 -0.24122835479101037 0.8832050462499564 0.8801896564624003
Ni 2.832949204734207 2.0930186597414147 4.849280163634575 -0.43946992160784953 -0.3518858066392778 -0.34753704275227887
Ni 3.6642541099773753 6.031507430028584 11.636182135657315 -0.059965324810038655 -0.649180922516869 -0.29799265616524806
Ni 7.312161814610276 9.294791097645426 1.7485521058890203 0.7965557843908282 0.5394079301560839 -0.8024101862890762
Ni 0.9829229288762843 0.39560532524804076 10.740655755764985 1.6013995198220614 0.8094629793707995 1.559251682809418
Ni 7.614495927110629 6.299791180542891 12.861387058560254 0.8454098297790537 0.4725235096287088 0.3608921239029462
Ni 2.977574909357627 1.25752022275174 7.0473100653545835 -0.9396024512030786 -1.4502556778239735 0.8980125435764341
Ni 2.187387071482645 7.304007208531148 4.426203951043121 -0.3520449579249615 -0.5882403782777545 1.002070744940629
Ni 2.743797137360583 8.424749488952266 9.642736144239212 0.9610246256325965 0.5663284086960119 0.048783082940974054
Ni 8.871644218000151 6.7923405456780195 4.7194778033798475 0.3690908576636546 -0.04026296128510485 0.07790751111075615
Ni 5.79335945865048 4.758282384394693 10.460310254958952 -0.6406163207763096 0.29286356246879885 -0.791240799935818
Ni 0.37159154456394383 9.008626722854993 5.91758656029056 -0.42704429424998713 -0.3056501727105059 -0.04522339061417373
Ni 7.762627089535452 4.572381541361645 4.406334421133787 1.2624260503690774 1.6950018159602551 -0.9152247936896626
Ni 0.5393765164180152 5.3662701012656955 2.849560611530513 0.3101416328229562 -0.5957148322779289 0.9010248480401966
Ni 1.9057881603009375 8.107975121901303 2.0217658132370255 -0.4346653011303546 0.13574730493735976 -0.024767179642350895
Ni 6.301009257391654 9.26786323082085 7.926261301807172 -0.021120841139015238 0.7524503094311815 -0.7314634227668693
Ni 4.523872328231879 7.744207164059112 6.083017203456792 0.9136931875364845 0.5814020151996826 -2.4659082752140953
Ni 1.6350775543856586 7.493171753655159 7.483342524366396 0.04069927749157507 -0.35197990901498094 -0.7244003452725009
Ni 4.341607119152011 8.076221439164451 1.9671122857434205 -0.17362248271657843 1.8707986806203327 0.5677895666225704
Ni 3.7575067261319517 6.208137871395852 7.797233489655515 -1.5081481792653832 -1.7963842702644999 -1.0558883049817172
P 9.142736054074202 7.714675774199012 2.71792090787643 -0.41213009614231605 -0.0715046929082059 -0.11093076011431217
P 7.163770299881899 1.3750599895091433 5.838178177877389 -1.2068161743142571 -0.7201287144803404 2.112378762323807
P 5.854914181847537 6.6411595419830105 11.726355155992726 -1.5168984146541875 0.404927921966922 -0.08964665392455529
P 3.2186239492610307 6.831904797521446 0.5613195664592141 -2.251399852916432 0.4208111688560818 -1.4745731715234154
P 5.3140229729206405 0.2566171778261882 0.3478176599309773 0.6355710450429183 -1.1032205144087774 0.2245112991466456
P 1.4822972436831117 5.497385380994051 6.160329749826365 0.8335431602484548 1.8076770695694995 1.0444121860213174
P 1.9925598637563673 6.486845012348814 10.044963716294042 2.10289421987214 -1.8957082993778194 0.9665355281484966
P 7.224348701940635 1.6381180973592895 11.192733355312876 -1.0650234345137657 1.237145678535734 0.7481982190230468
Ni 6.24526596954175 3.0701766447533223 4.723138542733727 1.5612530295101628 -1.0838359392345787 -1.109470094862915
Ni 3.109629317038083 5.893018601131758 2.5764008343025293 0.25454075562920037 0.18419691579831501 -0.49437634383774215
Ni 7.186718495780742 8.19127856074155 5.873507055639808 0.3346370468611592 0.539424128106 0.18511891339195216
Ni 6.952280544728261 1.9533768420717141 0.48311624327962854 1.0870834996375986 0.2072599682653656 -0.25968810415809473
Ni 0.2969438899871611 7.602612704112768 9.538859294440382 0.45800808962135314 0.08006800909718469 0.36997943091619506
Ni 1.803209352701248 7.742989087210349 12.666370165584244 0.4322278953334556 -0.20829252329493808 -0.4266177482355298
Ni 5.098516353655049 2.5406014627344033 11.229967454039508 1.7267662528560455 0.2232514585976155 -0.3578237693902676
Ni 3.1205827103803996 0.33118672671190513 0.32944794525603655 -0.142685941038722 -0.7931493298124405 -1.0826856276802193
Ni 0.7166029785944873 0.6088124757754699 8.235008449441818 0.4012587006454509 0.23811294909048022 -0.48707543930095476
Ni 6.582905714063135 1.8973917985113689 9.038932660818162 0.5346267067173567 2.5939152740844036 0.5480900313111141
Ni 7.306731609421894 9.212185031046836 12.677270558636195 -1.1891313554399845 0.3171445465033506 -0.9851343741966067
Ni 8.275930252582338 0.3512096785144043 9.921081581456168 -1.7099448104233328 -0.8147527670148291 -1.12294087565584
Ni 0.5225456698230009 6.408060545634514 0.8229485261287881 -0.26355787152614607 -1.249478231959158 -0.5875940029430073
Ni 0.5908797810386351 0.9367382898853799 1.5508944966912652 -0.2832854318620605 1.5866115628796094 -0.03710256127925223
Ni 5.800351777660175 9.248336808054413 10.4600247972547 0.7167685397588559 -0.4944658182277549 0.8555332913663007
Ni 4.861670143794707 2.2837081255005183 0.14545325301685474 -2.4067230231031904 1.3391662806446096 -0.8576976460074713
Ni 0.20925630432101977 2.8666369331545907 9.311126345034035 0.832489779283276 0.310501073044904 1.3903777705214184
Ni 4.154571883939197 8.32140822103503 11.978979645278004 0.9830898329627521 0.32640411742840564 0.49999934645147437
Ni 0.16422558393264636 3.906279471019101 5.790505811437614 0.42050649313146937 0.7511161640007903 2.55923289221087
Ni 6.106832930424258 7.4915073585717336 0.5543030718784739 0.688438325355595 1.026757963274664 -1.0311362948480176
Ni 3.1277423987280932 1.446656872986084 11.54296020388137 -0.5649670095721108 -0.5156334534443054 1.2901641397142942
Ni 7.5945045895164185 6.144044713239157 1.9914040854945252 0.8351310735608649 0.7080028777510838 -0.5415380891252093
Ni 5.065154065614106 0.5408372788068759 5.048802081291696 0.5622197858442769 -0.19405221132584 -0.5650076330020591
Ni 4.852957639922254 6.835447448509072 9.528039796568464 0.05009845931828791 1.3395457754712157 2.688468878392273
P 6.631712472682676 5.7501688711504295 5.700794916441006 -0.3878748231393772 2.0304847557614774 0.5720686536138987
P 3.768227662060382 8.539620644598255 7.70029688840567 -0.5184333847869459 1.0568766370369151 2.3193322550923474
P 0.8251550119013957 1.8400956951367056 6.050070549271878 1.0696467922183903 -0.6337681875062247 -0.04749547447780207
P 3.5633396974611107 3.764359570693316 12.261460964802824 0.07130774640605138 -0.606883961520871 0.05218079576861336
P 8.07585880559879 4.6755926331271045 9.057631535191165 -0.18701741596624566 -1.4710080798799763 0.74565308400369
P 8.979894986498662 4.5405999637351275 13.1794836433814 0.33503093986546817 0.18348163489884528 -0.21538028337965484
P 3.4279100081310276 8.99231751069674 3.8660978122843925 -0.36109652660426844 0.5174946750227604 0.19470321464627757
P 8.287822773876755 8.11665973088409 8.084982294178994 -1.5102189457514827 1.1070722840546998 -2.5975161040617847
Ni 6.881334542010202 8.023304833467403 3.522797264820052 0.05154830439093702 -0.2629626611443084 1.039049121937191
Ni 9.095035792744762 8.478149606070197 0.25395786501133044 -0.5918802890231871 -0.8168991239338705 0.7529550169817419
Ni 1.3591413058062183 5.053261544319689 8.615733710712178 -0.8095393411346896 0.2658214707493422 -0.310961043400458
Ni 8.796058365300924 2.24128929661457 12.699113187074596 -0.19981688172375908 -1.071854084282354 0.7396580427625198
Ni 2.3873004474247512 2.597572125729626 0.23405951038267422 -0.7972255567643431 0.4895143877597504 -0.0332595333840782
Ni 7.927160447084084 1.1124110067074369 3.9298701792099253 0.49481214582358 -1.0639625973494193 -0.5420039730180344
Ni 6.402816306377241 4.336204808853296 13.409230603821658 0.5174648502260895 -1.027687931288101 -0.47976347902057376
Ni 6.52763663933756 4.21080798150654 2.482784654752635 -0.6704745417883228 -1.3295151307080908 -0.863009545138688
Ni 4.404193953266724 1.0619584495975825 9.118898941024659 -0.5796981451346984 -0.29760107715378425 -1.1121239875459943
Ni 2.431207003759571 4.610681224873531 4.3293621924181425 -1.66568764037717 -0.5395573112497546 0.5148109575430102
Ni 1.9998776231455038 5.069784617298718 13.100224963542772 -0.0037298993560774467 0.19928466336937292 0.5755920933861248
Ni 0.1640619339132705 6.033832004167445 11.389518784293733 1.594380922412383 -2.667304585609832 -0.5080610404136863
Ni 5.704040021938858 1.724610851918056 2.6869873348957696 0.08650605141304457 -0.24957852652791856 -0.10675785968354516
Ni 8.671070663002608 5.843979385098331 7.430621182897012 -0.3769090681564928 1.1252924066071524 -1.2301419935243911
Ni 2.649865745557459 3.579379259019257 7.242952733688773 -0.028847006138679347 0.754514648159378 -0.3457416414147529
Ni 3.1248413302027935 4.107578293147969 10.028578258104035 0.4485888531899823 -0.6618418058139892 -0.2989074546700336
Ni 1.0004130246970797 3.4012517919065615 11.59701585090646 1.7569918845098065 0.6054148331745123 -0.7969861870600274
Ni 4.782337077583635 2.5414011162381716 6.2560017827446694 -0.4576033979837668 0.4933473883525955 2.706222345720952
Ni 4.271423576751498 5.633493845972683 5.440999580852166 0.7245517832487005 -1.4107987573799314 -0.3339251083957991
Ni 6.584058702836011 4.208381126105569 7.24096661754453 0.9163090278927767 -0.024037500565177956 0.360843787163514
Ni 3.2832006188386087 1.352455830582852 2.337576876764844 -0.6748837265996119 0.05123822934968595 0.9852562444864515
Ni 7.263494530439067 7.157056929768866 10.15798637058481 0.15456212365101768 -0.36966832743367944 -0.229052895770741
Ni 6.158354791637989 7.075882800839816 7.698609247580856 0.9490759379111524 -2.504198171933229 -0.5828048090844802
Ni 7.880957211500069 4.042332146218398 11.192379090214114 0.4303322209726395 -0.5992143607907552 -0.13379840874110505
P 4.69275728856846 3.938535261769946 8.139649769117433 -1.3014602814534035 0.24369764226710935 0.7066137107130411
P 2.5176625651321163 1.7488701076312168 9.577930736566369 -2.7623137893978815 0.9782618154464894 -1.4263588166017178
P 1.9288665323515564 3.6071811657200428 2.2202807253771937 -0.27127966565043604 0.22283262589264205 0.08517781951992427
P 1.0774029201761794 0.5736760727517475 12.987405941946568 1.4389937317569088 1.893568884437313 -0.3867795331926694
P 4.285994007453883 3.57393975553432 4.324354129893379 0.3639741052623796 0.39914319696434486 -0.6723313924914034
P 5.576151251115242 6.546605164310672 2.703835848254239 0.28797435269729765 -1.5760314733709178 0.8635263368741063
P 8.138836168168831 2.3809962023601585 2.1529703566123137 -0.48131616821967427 0.09826113506644368 0.8409427951466356
P 8.94081424607612 7.951298824942024 11.675757545456607 -1.2034986799052498 1.702123771717017 0.23545777085582031
