# total energy = -340889.1013790275 ev
CRYSTAL
PRIMVEC
9.12553832237799 0.00000000000000 0.00000000000000
0.00000000000000 9.12553832237799 0.00000000000000
0.00000000000000 0.00000000000000 13.35614775835140
PRIMCOORD
 96 1
Ni 6.527178072715375 2.020284648574041 11.251018391545399 -0.3541080111015772 -0.6460282358205003 0.31336296797373125
Ni 5.073078315536205 0.45837030790776795 5.814638712400031 -1.4434376264608755 -0.7108940832559499 0.32570966246454225
Ni 3.1196929874253163 1.831915289277849 4.747375994373131 -1.5022549537093999 -0.17142033285893704 1.1173392131983468
Ni 3.6515841063061347 4.515772572799177 4.784880131222055 -0.6963388111495943 -0.8052558832679874 0.6543334132520859
Ni 3.7398006839786606 2.9921362146202504 2.5976638376652903 -0.8991039768683999 -0.082741956384922 -0.3053442114343128
Ni 5.23177142464195 4.731819689422438 2.5222686411482313 1.019290194142709 0.3822063119996902 -0.09365731774584515
Ni 5.25797084478241 4.75608449546684 11.29896670685157 0.7954921190130042 -0.30179171819636413 -0.48451487766263013
Ni 5.431237438375898 7.969286872714272 12.409183333133832 1.5831202618968994 -0.2332088269206435 -0.044520965230510426
Ni 2.0731215146880295 6.399621299910309 0.4852203789210993 -0.6073747851143604 0.2978137073852226 -1.1551601407008623
Ni 2.9347822071027347 2.0014677888284376 0.05963174184947661 -0.45768207374050207 -0.6121858333497586 1.2609270972260476
Ni 8.222557059610237 8.620759044023018 6.880218681184889 -0.6749575172603408 1.1679061275126208 -0.16526305500828956
Ni 8.60933387021046 2.45058115079734 1.1495312699078717 0.569542287647619 0.8403067042245335 0.28906167222420537
Ni 7.270161140982857 1.055085599867572 4.897485622258354 -0.62845217460995 -1.0862445486760712 -0.6052510539031382
Ni 0.9535548619773758 7.744926390800883 2.3586422660975432 -0.62546892361191 -0.46627572894678404 0.7911484973323278
Ni 7.898253683451528 4.175052353438557 3.681101572132094 -0.37701165517262814 -0.11252972917031587 -0.0725408474822041
Ni 7.828790086757282 4.088971151702244 12.281979718656677 -0.19042875564063977 -1.2806767690491492 0.9063565446657551
Ni 8.405241208614717 7.137284179413636 9.166124020039812 0.3481093703159811 -0.5899589036307582 -0.25862778121438035
Ni 7.2165759807373755 0.5210727933578244 13.275302763507653 -2.2490552639436556 -0.4671722726191245 1.3802465956246874
Ni 1.9961293489879048 6.905386002956179 8.988821200905353 0.3750272777527477 -0.30236713108385993 0.5605349419426863
Ni 0.001834233175977841 5.083362797075146 1.189610633633716 -0.20153283597360133 -0.9111303119053148 0.5123380705224855
Ni 6.595875124201749 2.0409083648810555 7.033894569394351 -0.5581415020098451 0.8478207532133915 -1.0757778448167923
Ni 3.689829236856001 4.505323831572835 0.6038624134693854 0.06602001564455082 -0.4130261255940242 -0.45644665867150425
Ni 5.855492834318117 5.471353304254499 4.865791715574331 0.7210987917030935 0.6428333830322864 -0.7745697670380401
Ni 5.330664881995541 3.268147242683065 9.180734919234132 0.287251358488344 -0.6910245980255325 0.3595227543592453
P 0.2804816292215787 5.553410143649487 12.362931455376986 0.8069805792685779 1.330991458143301 0.6845531313685759
P 4.1300360735524935 6.0970275791030994 12.575173222575456 0.4946532516482126 1.3087581006663975 1.4771111074539207
P 2.4111588258211 8.820900347582947 1.2451979369578523 0.3141039599048139 0.12367031916816766 -1.0316679989817716
P 6.519549122789417 7.97008079453671 5.665837686691102 0.19011328128274999 -0.6035214728065412 -0.3677356291873409
P 4.811941914721371 0.9258132258829845 12.589064116806668 0.1968086910250546 0.4009594242374772 -1.3756157817208954
P 4.261443823473294 6.401619792773688 8.007824933040002 -0.7224121111978783 -0.8751397527433187 1.5393217766547103
P 4.770566724572696 1.3199269691871187 3.5396192280506993 1.2844125819424976 -0.8367107593431591 0.27240118084938897
P 0.395361204374563 5.8035867730994 3.4905092317330753 -0.6879778407794087 -0.16431740326556862 -0.4170671284326172
Ni 1.0929930855044474 0.28302582926865644 4.475378378005814 -0.6614643678699124 -1.5461958780667244 1.320621684873203
Ni 2.0245736515228447 6.988884677385021 4.54527087499494 0.30010430319161224 -0.8258848723722486 0.054167230071022844
Ni 6.273013583076894 5.8833439768707745 9.15852427183606 -0.5560684215309004 -1.4593684387585188 0.4491557814370458
Ni 8.891121363946876 2.4564579973910203 10.35031955931221 -0.07377549122025359 0.5832917760232277 -2.0073314575734655
Ni 2.603935820062552 5.579226291186011 6.8488989215666125 -0.7125354755141148 -1.6024341317341628 0.6031502055100516
Ni 0.48438447962299197 9.007335092783084 8.77555007299917 0.9012022541583254 1.2895632729055015 0.8611218411976717
Ni 1.5541612834209457 1.311348963289511 11.56695821195394 0.9196208658748289 -1.8751790690762158 -1.492127635467411
Ni 4.145923635539446 7.225902280766476 1.4072437687942152 1.087433683888166 -0.3774099190523113 -0.48440380600606253
Ni 5.817840863750532 7.876799543169319 7.864046603550269 0.10477373937398085 0.8930852814781458 -0.3654095521573255
Ni 5.381046978336704 2.728754931410935 5.087516742058753 0.046418182253223285 1.3394177345337834 -0.5161831553001884
Ni 1.0899999089784735 7.47234656509711 6.8187809953278204 -0.20697354737319837 0.30068023029974017 -0.4079253140323491
Ni 5.502489640555177 4.666873234131719 7.22675734369478 -1.3557889768029554 -0.07700042591545447 -0.2687849242530403
Ni 1.3456883634945092 7.265059965135237 11.474012780391902 -0.9693760829210853 0.28613369994413296 -0.6245083594708536
Ni 4.476523633048527 0.6109456562116441 10.225987751703116 0.6778674918182841 -0.6243918884976473 0.6903607391892884
Ni 8.351701676060179 7.428717367015767 4.5750684948433005 0.32379316216811976 0.21049287338036654 -0.0335706368665938
Ni 7.418149993792969 6.163497999271371 6.766865808570915 0.019159603647586357 0.265753079405252 0.5242777593828648
Ni 2.5361513223950727 5.313508870200326 2.6659803542091858 -2.453425312255736 -0.6600062952671473 -0.9327743725376517
Ni 2.597219423955489 5.131947162393086 11.50425116373479 -0.6408099248443544 -0.13912676293255394 0.6414082205499857
Ni 1.119676159168921 3.2979786270227245 3.7024708449091452 -0.18276095468273684 1.5111337442562685 0.8573230362768719
Ni 1.722764726999884 1.4281193499552445 2.657939842510907 0.5543797209745679 -0.46041978438663933 -2.8725534369824404
Ni 1.120853353595295 3.2798735592558588 8.12287515575712 -0.42142669095289365 1.0901585390184967 -0.0493492398570892
Ni 3.696545632963064 3.024221606892579 7.270498785895848 -0.343286495006041 -0.3223402317716771 -0.719841779367541
Ni 4.233401044618668 7.000501487499547 5.931905528343243 1.1114763266596663 1.0954403562427262 -1.2249249680998258
Ni 0.42952083147723885 0.3689518968557577 0.4863601586408985 1.7838375439477407 0.3167624805735835 0.07085368958776829
P 0.38501375662211884 5.589848417637943 8.009307832995706 -0.10253276585860406 0.27179157228984807 -0.3954364375367189
P 8.551468832554363 1.6560114151477552 7.830201807515112 1.7994433688057976 -0.14713883460375304 0.067975853819341
P 2.019326467064202 3.324807709298222 10.323099904002225 -1.100160644536531 -2.160513155937189 0.4932715408093376
P 4.031142616198903 6.290133092719353 3.5957823528345583 1.4764287366749154 1.732557662726842 0.7866449530350195
P 7.13733893264277 3.8479200604412753 10.249908524957796 -0.49778356974707827 1.3673725678754967 -0.7971052291363949
P 6.498533008340279 7.800172398996753 10.04145933143065 -0.7835406030780828 1.163191495645771 0.7200397543109599
P 2.7413481741116783 8.640132561598147 5.8348472167194485 -0.47407285639369967 1.264252562054855 -0.6112160132373216
P 6.826897248993068 3.873170424610084 1.171853248871849 1.5090143839204204 2.0354418426564362 0.2986701418482469
Ni 5.362020231212754 2.778699001919028 0.10464528407408305 -0.08078251866570604 0.6217084281282131 -0.2340619189495582
Ni 1.4986597601557856 1.1894591496997795 6.801457986183746 -0.1976188456311758 0.16241530114684932 -0.5390438619484459
Ni 6.905887907556571 0.7500736114402917 8.868041052759397 0.1262535065143116 -1.331380980272236 2.479028614646137
Ni 2.4728748405929317 1.5407467422831973 8.975344606107921 0.24769982144796693 0.9051388702085702 1.440975795183944
Ni 6.4527866853991 2.1000874800363607 2.2096012387342454 0.02118409027678287 -1.0376674110983162 1.6488998793958698
Ni 4.017080161849739 6.920516145273449 10.592707541917857 0.2029801099430891 0.6761402247145323 -1.589677860509759
Ni 8.71988976536952 7.39904111682532 0.28356879879089864 -1.1358061616542825 -1.1541676948806059 -0.6294482199746321
Ni 7.820832617456523 3.894852703347017 8.04750642330081 0.494560177713774 0.5755854085179055 0.6798192162280163
Ni 3.1066890955060704 8.428228439312667 12.486101581974626 -0.3037532127981091 1.0114267322342323 0.3085467775320106
Ni 0.5544631375911723 4.949983930905534 10.187174100124079 -0.9308421885119452 0.03249385886264727 -0.3769625471022476
Ni 8.799391454071607 2.781956819052481 5.793388984173254 0.997909671584404 -0.254901995623361 0.11753720968723629
Ni 3.847564164451906 2.896190306101688 11.418837951393908 0.17579712177039403 -0.7553741679461958 -0.6623341720693755
Ni 1.2198471918689646 3.3366800344820384 12.570632354772638 -1.4607241814554652 1.6092056461300415 0.6377909355123725
Ni 3.399253849843631 8.836076117591164 7.912315225246872 0.4563165608515431 -1.2262472864556753 -0.28299926808020937
Ni 5.69906285868323 7.707484307611643 3.5475666592594512 -0.13600081570906256 0.9945420406637516 0.2880774539340652
Ni 3.3136836782458983 8.659597334555166 3.2075992967994185 0.32930457890465226 0.1274128169297354 1.7418282893954906
Ni 3.2766796208897286 4.53528297344714 9.274696023196597 1.2307354041340157 1.5213536222120638 -1.4603883953826011
Ni 7.491783961439562 6.337494635919975 11.422564821190273 0.292415933408419 0.3067084387716911 -0.415137258399756
Ni 7.882557757766543 8.895684133041348 2.3976822310236665 0.06611848889562806 0.5172087683512254 0.28755140622726605
Ni 4.424270801378631 0.845708339106611 1.464461805792716 0.2883834152102582 -1.3491673577213796 -0.3272541241335267
Ni 6.277767988473333 5.7399452697697 0.027143000789196466 -0.4853335169091835 0.18083828373872726 1.3476740610053048
Ni 8.018300138327092 8.930050909860913 11.09015705456596 0.6949581287519838 -0.3467592840459899 -0.3874534193312424
Ni 0.29419731311956226 5.333274785917579 5.749033393252071 0.32943339117303266 -1.1969670494343194 -0.6293199219268839
Ni 7.25742188967109 6.356065106134476 2.4561687178304306 1.2812650374524515 -1.0406432058971884 -0.21431584667088255
P 8.74160854625921 1.5161899190167476 3.498028675200766 0.10481976212056786 1.4307584883313103 -1.068817354338559
P 1.7565383438371676 3.5786345540237123 1.4245932419990364 0.34035312340932994 -0.8979503228799309 -0.09334544293238117
P 4.8774632789179915 1.3236684398445862 8.186356962168512 -0.4665179268645772 0.19798754182450418 -0.6030666446573097
P 8.630477742194243 1.6135776625691634 12.228889162581035 0.48723561902790286 0.6421913785729134 1.2171044436141425
P 6.479780027361997 7.822347456795887 1.1026688936461853 -0.28606582282067505 -0.27268811596218845 -0.37962286754323005
P 1.9037880280539758 3.507446230611756 5.962705132284749 0.4083721717617805 -0.21867540919115888 -0.5832596372337117
P 7.0310720404325115 3.988343842092753 5.889660674405162 0.5721229038906018 0.4304193813698071 -0.867368336328016
P 2.483998871645255 8.794491040064143 10.095484342616839 -0.9202309886550023 -0.5797007162378597 0.7529398474730904
