# total energy = -340872.92046295124 ev
CRYSTAL
PRIMVEC
9.21944622374642 0.00000000000000 0.00000000000000
0.00000000000000 9.21944622374642 0.00000000000000
0.00000000000000 0.00000000000000 13.49359146435588
PRIMCOORD
 96 1
Ni 2.6101542281452117 0.15411225894048108 2.0210703519302564 0.6967794982314387 -0.4185041179894598 0.28191889053183705
Ni 3.103966193529876 1.6039438942875839 6.911458168123599 0.8416112819685699 0.14177474207836227 -0.6696206784284596
Ni 8.903772146109057 5.83793758113732 5.235702165237116 1.1426609797925869 -0.7345672585031736 -0.6518790381743226
Ni 7.619328152131498 0.7026646848096576 0.6647404937859874 -0.6330498212829614 -0.8901493387782734 -1.5708327027787978
Ni 2.4436418143665546 8.70371938786848 6.488717067881337 0.45172097106106074 -1.2959606917914133 -2.6239321321614684
Ni 3.4116559835442106 5.444451626867174 8.421849578255479 0.07290851523426799 -0.24421854776758586 0.33577193179655074
Ni 6.51863693590835 7.787887282916903 13.25347264579564 -0.06562406575771278 -0.6108437174995673 -1.2258971022051082
Ni 8.786510012736004 5.322201773220922 12.489101287121747 -1.0754937379174703 0.09922247053844847 0.4887667109604485
Ni 2.5534454159447515 1.2691212747648841 9.98011664939789 0.5700292545863668 -0.08467336907967998 -0.2799234573683631
Ni 8.636297579443514 2.9171894374952263 4.798563978158203 0.5127977837677232 0.6162188657685517 -1.6020646642098861
Ni 6.849993043743947 2.5625911063532794 12.69328620104892 1.185241790577591 2.1415489561298604 1.0389475633623204
Ni 2.6739343554095245 4.004180556997536 10.38101135045462 0.5702891931159727 -1.8329468998798821 -1.0529605898119607
Ni 4.644332788364627 2.9181390404307894 0.17295127484853198 -0.47394712944911277 -0.04213163906272743 -0.05850185289063474
Ni 8.187928263276223 0.6198454796596076 5.018846966704661 -0.8220557284341455 -0.8324987781443405 1.4465383768733864
Ni 7.843397567140439 8.982626067544684 8.144300001026993 -0.3141132158761945 -0.9264697704758624 -0.7559218129195496
Ni 6.118070447128376 4.347531164048349 10.602278975831352 0.15306651294209767 0.5628432783608887 1.9940152000805336
Ni 6.302201222167818 2.1980726513407918 4.081892189076694 0.34257712764384224 -0.2025396799715609 0.4586981737098423
Ni 4.498352080775277 5.418406691984018 0.7332907623984577 1.5107197966473014 1.1791148517442467 0.6678023942727983
Ni 8.649177145472459 4.408877357574908 10.309467527733634 -0.23928974300740077 0.3214488303056593 -1.8663599281226888
Ni 1.7669897963791374 2.01847784372171 11.996504444716765 -1.2644572218664933 1.5168624192099296 0.48624240187669804
Ni 4.992744871256451 4.795771407971969 4.638314334031273 -0.9442042116411481 -0.4883468498142106 -0.8418488519006727
Ni 1.3042658028266882 -0.03071827204856359 0.1395833340263686 -1.5838761662263174 1.2094582399227944 -0.6570832080830813
Ni 7.34669991516518 5.246187441146007 3.368473020535637 0.3022403756980085 -0.504635302561589 -1.0077037748566904
Ni 1.202519997031812 0.4671207473385655 4.037363186955575 1.3133410920513897 1.1318554045366507 1.0949934985132947
P 6.1871886336129895 1.0171077190016604 6.144724787390571 0.18673022374313003 -1.8469236737749484 -0.5274980660923754
P 3.379867333817794 0.10243173257551573 8.280018543300079 1.6051021654846291 -0.7925173526553964 0.9907458068461131
P 0.7739153291485975 6.283679355201352 2.8352460797129284 -0.6974281875590311 -0.6737789235712074 -0.3763012593691648
P 4.822710629114832 4.219841837276054 2.534892202861967 0.23276813983879913 -0.36534296058544824 -0.6707429649583609
P 4.396163741573536 3.4350364985402058 9.009414089773536 -1.1704823728802292 0.04991179722877856 -0.2310421582866279
P 0.42279457302892565 8.783338523320143 10.087741695891879 -0.32756548472635844 -0.0041199357056445176 0.784556703047423
P 0.9345014830536637 4.884545453278137 8.629029890180364 0.35978166444758686 0.6570454128666104 -0.014262166345968986
P 3.1628507949807525 8.052854160276883 0.2934392923687074 0.6225337522429858 -0.6083991126138166 0.2768373622438716
Ni 3.8949393416238958 2.1377774746555356 4.68142630730583 0.6557120387671675 1.2266977437295326 2.8156078728353315
Ni 8.656266899428264 1.001453099733837 2.6606122559737146 -1.1987416248362386 0.7889545750048026 0.8598817981429837
Ni 3.7468105031220587 3.7121546056970005 6.677317430330106 -0.2499027426365567 1.7017028821295144 0.45852719534961683
Ni 5.682525380314174 7.347409812505358 8.386374994027722 -0.07783372045002725 1.689669605114064 0.6772558263762143
Ni 5.925365587330941 6.896495929248599 10.73143972618147 -0.8746072772786163 -1.4834743306677871 1.338896571922991
Ni 9.192709583007519 2.5348682323024287 0.4314092233492168 0.03711361702284576 -0.6715258658709726 0.33108969582953296
Ni 2.2465392788384055 8.440264499648618 11.71172221211984 0.006021009383099308 -1.2666264616036702 -1.7582982620260559
Ni 1.3010389967349694 2.6884273244843286 2.461419672042729 -0.031107005817449657 -0.34598178245001704 1.4978717370400398
Ni 1.280101634922704 6.546830001703994 0.19374757913735963 0.38980572161350285 0.8529480471376278 -0.36103379168713307
Ni 4.170416387396902 4.862971949693504 12.026581043325375 0.041710749475224934 0.3345120912475206 -1.206048185799981
Ni 6.419804475041996 3.5992440508247783 8.50671089068929 1.154121929244335 -0.584354155849471 -1.70237394005461
Ni 2.645280317315063 4.127868644216098 1.140657514530578 -0.5478493760552178 0.357356599945862 -0.3509792356646084
Ni 2.8871893602882195 6.62815473466128 2.161281530227614 -0.21748010333147705 0.735969795277655 -1.0575412672041078
Ni 8.955428701914485 6.700241582750273 9.406585056600422 0.30432528325149527 0.751775394851344 0.8152366486297831
Ni 0.7520348180129525 1.6046261332898333 6.531221479666052 -0.6807669248532663 1.526852697653422 -2.515964825550854
Ni 6.281881563235967 6.711793548558625 5.141139229802406 2.688566837422718 0.2744261816992177 -2.306279278563131
Ni 8.720932093506304 0.730665986128994 11.906057069965891 0.5590365030202888 -0.1991946747587279 -0.1123384390951162
Ni 5.481034388501288 6.836864552673639 2.514814093414696 0.7499632813432697 -0.4806546233762754 -0.21011389277439296
Ni 8.107248891537282 7.765539345870257 3.8010236112967246 0.3426149228603132 -0.5672537487237586 0.023695543844726934
Ni 1.5000868353641263 4.340819407377574 6.092086360588663 -0.2649897188766662 0.11114133346322148 0.9093004577854276
Ni 1.4428525147430145 5.801603744544568 10.952558918477981 -0.3681524050097853 2.0421588496652956 -0.018055829060446324
Ni 8.071993730123761 6.876904606548879 1.3069772418883294 -0.07818544736249115 -0.040123350383447026 0.653191586338159
Ni 5.103000225687487 9.071261821161206 1.196334670726286 -1.4528355227360075 0.6228847078245014 -0.28595577960537205
Ni 2.307959227932775 7.61083704238729 9.24529545896736 -0.26263407416029605 0.23387962773542303 0.9399618914250263
P 8.342851833462623 3.150976148563228 2.579313337465163 -0.7830837180463223 1.0550328989599573 -0.3729122882922739
P 3.514397489504531 6.799682527051065 10.820524466817039 1.0745586276977108 -0.21949893353371877 0.033919792675896426
P 3.641966963479133 0.24593886280941418 3.896490052437116 -0.2916088641260913 -1.960448676978998 0.17380940191640387
P 8.391622702677456 1.8050753277073934 8.111537777805475 -0.9063277483103487 1.3174669412943052 -0.7341522824529422
P 5.834176047178973 1.0107831790618917 11.973133149166745 -0.18634378693798875 -3.436956603631281 -0.5747670263816682
P 2.1034442578396493 4.413625372252723 12.428852207666372 -0.48969307942945983 -0.4096610657765332 1.6101433274529624
P 1.8558099389151865 2.7873796381483746 4.664491106991893 -0.8181394240988749 -0.08623274314699987 0.01542996140182504
P -0.3826577149709343 7.843618833843871 6.031446376623892 0.5898982255961518 1.4547353108618815 -0.2765625113159301
Ni 1.4215832528756005 7.373731330767806 4.61422760947349 -0.044189292922704536 0.2586594057832642 0.3460928541065846
Ni 7.103739855350722 8.796171992119206 10.481888684438525 -0.12675641429265913 0.724678795744868 0.13325282065028018
Ni 4.426302110470188 8.882770248174957 10.145305150734345 0.6047949402023262 -0.41784540135953846 0.5863606447565386
Ni 0.24733099915184134 2.037433024649063 9.8510232010034 1.9575456443995898 -0.3057537881679057 1.028411439717687
Ni 2.3936447588368694 5.114957847118799 3.9922542816825435 0.02703540685123731 -0.7144635457747631 -0.23876523796249843
Ni 1.691888189455881 6.612546212623337 7.253708895269436 -2.0652712673130433 -0.6283354465264276 -0.9593927464561282
Ni 3.8244105799049035 2.060970270226656 2.516420120903774 1.0538525054986108 1.432993805419732 -2.2896198156295795
Ni 6.984679930012281 4.719157811908594 1.0713143735641426 -0.9068715366289608 -0.5076676616300095 -0.758325794375352
Ni 5.77734738218082 3.068923079373812 6.179619468466416 1.8899042911015325 0.32670185117448247 0.7159591564836831
Ni 1.9242182280596212 3.0075584469553 8.232480314012284 -0.6230510581990366 0.43601744428287487 0.7044994925835157
Ni 7.217959571551584 2.0679217324928154 10.20605300221704 -1.200122050123533 0.06993940530361503 0.7274522447249472
Ni 1.1350705302689166 0.21821967653695362 8.146431536936722 -0.9448058497808889 -0.06545103051495825 2.1794894399293754
Ni 6.3417618648522875 2.4887894413126865 1.8667165435051953 0.08975438314701316 -0.14877328488338248 -0.9813270846353744
Ni 4.968820408947852 7.890001866550832 6.191614889626229 -1.821130109750612 2.8191130577751125 2.1695284720619217
Ni 3.8682398260764184 7.1104423925755205 4.254961472833723 0.18475921605968826 1.1852847280003844 -0.23183328672935558
Ni 8.48133713147321 3.7472899143128284 6.904980585380624 -0.4994046502902689 0.4412007882560272 1.281572027169909
Ni 4.614646172320816 2.458623414078106 11.046123387913454 -0.4742011544414478 0.5044090454833958 -1.1617470498897604
Ni 0.1322898303144869 4.783454228147581 1.2478492470636773 0.6690622348218284 -0.29665979628643746 1.804602544409234
Ni 7.972958441445929 6.39297588725085 7.389886565952145 -0.5706146947761914 -0.2966119737676376 -1.3102796795172467
Ni 5.583711358339774 5.501593753028524 6.998477752860469 -0.3790402555668827 -0.9132422160419948 0.47320613751803026
Ni 0.5623050734320812 8.361677942146306 2.123580449796571 0.20626109468720605 -1.5561000245543135 0.11905107522860142
Ni 5.697331810552175 1.0949382819339133 8.511420183694003 -0.5273905939802336 -0.09806058901986338 -1.0234029307595018
Ni 5.834480288896192 8.95209126247105 3.964026181992189 -0.837072770668268 0.33766863459863133 1.2200193032680924
Ni 3.6977261727440305 0.8890588338362894 12.603202994414113 0.8584566356606829 -0.9942499633446297 0.788531628534771
P 6.221512630982899 5.3797403355592515 12.648716633365504 0.31128705928130906 0.7322391245906292 -0.5887075477221603
P 2.319188513131956 1.9471101124188706 0.6432932966112302 0.6320391206302599 0.22219807763243668 0.1998716462210945
P 7.124170147634288 4.772363234638045 5.385454548175387 -0.7170819572342166 -1.967789176504469 1.9245221382857178
P 8.88047460612685 3.038213104826627 11.90379000820031 -0.018462577580561752 -0.24458364441648844 -0.9972301290188761
P 6.903991338827363 8.64119310525695 2.1824530659676786 0.9874360257465897 -0.6883246825958662 -0.10957244631420485
P 6.857230308835372 5.7068739371376855 9.085329773776502 0.07381894286367932 -0.14647291888497999 0.5771748644922124
P 8.729552275494182 7.994430531124823 13.006796227308117 0.20739058030595897 -0.2738371419649671 -0.003338063234297477
P 3.4207555767228572 6.073789448104021 6.062940004079065 0.12758945171691574 -0.7807974931153069 0.7020420321819587
