# total energy = -340890.04764224804 ev
CRYSTAL
PRIMVEC
9.09343153679092 0.00000000000000 0.00000000000000

0.00000000000000 9.09343153679092 0.00000000000000

0.00000000000000 0.00000000000000 13.30915623224263

PRIMCOORD
 96 1
Ni 6.7373324326442985 2.1848605804643 11.425244580425915 0.32529802884842035 -0.7376885777409747 1.258640100964084
Ni 4.733531165187244 0.17307346153404085 5.96315405525568 -0.317517356461737 0.9462605799495445 -0.659935847040528
Ni 2.8587747830139913 1.7566781751821878 4.779770354615726 -0.6445606501360382 -0.3598608544249544 0.646101769370913
Ni 3.2263312810177496 4.555972823276768 4.814972846329535 0.7099959969217127 -0.13418973064225276 -1.021998851323124
Ni 3.666316960283258 2.7153349957920394 2.7181557782185806 -0.5474097174146378 1.0061109764482736 -1.1865003455750402
Ni 5.020228871002743 4.678925109509049 2.557900417614428 0.3920796052493441 0.32385178332019715 -0.04070776213200731
Ni 5.444983052639446 4.661438440888039 11.198669915131232 -2.009869393503971 -0.1110649716993313 1.5445634846696237
Ni 6.041030201938118 7.964218199855259 12.308746918377388 -0.5718225990413636 0.28390301084140135 0.36018507053359256
Ni 2.193435686293532 6.711252471331217 -0.007112882056866397 -0.6825957505318889 0.017884336479588557 0.3084763293053913
Ni 2.724537548389264 1.9940349221117797 0.33584679329844147 1.5790579189020675 -1.8262959702222676 -0.3341277113249085
Ni 7.962390420139803 0.024128510930311042 6.65549609657837 0.4153853698548201 0.007699682637102868 0.4611134680195543
Ni 8.562402305537676 2.4304377893977365 1.1024094218726577 1.3184138785886068 0.7522754744162141 0.6186030497300121
Ni 6.854637697964647 0.9695416580198098 4.620872643322608 -1.6713702925842442 -0.48378031348945066 -0.9869588289998551
Ni 0.9016473710073045 7.578565773325339 2.4504688001301136 0.47008353272864845 0.3153229199135795 -0.5635235922573649
Ni 7.615803374990985 3.9519962017796972 3.823919766942143 0.8070808522918681 -0.29834258330549907 -0.3664217954719238
Ni 7.863199270208458 3.9976725078032715 12.64320605404111 1.022976898965677 0.19158832316637972 -0.7407055101904275
Ni 8.852073563427576 7.13199644971162 9.429563747227082 -0.7021973268129004 0.5003546729083641 -0.3278099966369967
Ni 7.032441562523466 0.874798105396075 0.2989192776442242 -1.0072301776543813 -0.6082908691707265 -0.4855651733040154
Ni 2.2567259689779986 6.425491388951995 9.287994478848262 -0.5760829169796142 1.373505420246112 -0.9839820057597183
Ni 0.1525759577698085 5.342463706808314 1.2196892255850296 -0.7663867170066156 -1.192683334457301 -0.8485170079494677
Ni 6.4403409624611525 2.146850037127939 6.870385702498118 -0.5078432679759254 -0.6353746127613961 0.9953285411207892
Ni 3.4061720742146897 4.430347068206953 0.5063495417699969 0.030025085607180545 0.5815534531758823 -0.6548828579976528
Ni 6.140466874517809 5.6380275082584905 4.748853597130251 -0.5857368951296106 0.21107677090829452 -1.2404066086751926
Ni 5.733699500230226 2.6502169333921164 9.469144726169707 -1.3643142406651472 0.7108650297902273 -1.5011120983542083
P 0.57024180961448 5.710265727460417 12.234188964820172 -0.9536476164422351 0.4025599359553776 -0.1826264859874016
P 4.3010839405690655 6.1253535914974675 12.447588157330154 -0.22872070924230287 0.33264418480084645 0.1681115802006782
P 2.7191815172827765 8.606478167631298 1.1049583106997347 -1.5969376273959657 0.16002057566242764 0.9592968443082124
P 6.5367768026721835 8.027517575971148 5.503349242209885 -1.2359984523051681 -0.5741800435299466 0.36132355501341
P 4.759520192186124 1.3365070829812562 12.351402386483176 0.78085971381181 0.5084063395682471 1.1230912851907755
P 4.032900461125057 6.255371473943229 8.037000206256113 1.1824714269213055 -0.010624055372749444 0.12478540660921734
P 4.630820857296286 1.153674550847076 3.731062191994954 1.7845145154101074 -0.28886086906730896 0.057854449114622945
P 0.24936644180622622 5.482593484993319 3.454538217252354 0.1371092182818929 0.9586751515638133 0.43183297388788205
Ni 0.35688535623217466 0.09323858972369459 4.372762913738651 0.6026580963649815 0.033634400224993685 1.1814434998774233
Ni 1.7400281022518345 6.776170478239895 4.755494530096409 0.37476373967871585 -0.13899563667132836 -0.7527539567145294
Ni 6.1966370004002735 5.441372960365634 9.00834236369712 -0.19946566903192745 1.4678209404012463 -0.9822771072534697
Ni 8.999532647337247 2.122861565041499 10.12806840702323 -0.0003735812893348405 1.615330785191173 0.10508638551839321
Ni 2.371967025365966 5.476182615842091 6.810760982019127 -0.44484506987683387 0.08505594923007932 1.0279463271558102
Ni 0.858960985234686 0.21009282084560196 8.982176014785544 -0.26263021750555415 -0.816478234346368 -0.22223741551080434
Ni 1.8411379662128389 1.2910944864688672 11.54824778987415 0.10950354074948238 -0.5099235475437218 -1.419519425082381
Ni 4.1920900715667635 6.705259900025316 1.2233247794668183 1.385184913466569 1.353726694957288 1.2611770084533247
Ni 5.751449878362422 7.897454226368283 7.794600242260889 -0.6466391299316219 0.18400099773742504 1.03677523830135
Ni 5.180300544292208 3.080190744664004 4.90109673531008 -0.031076923910462607 -0.6514684329994652 -1.2419279304157256
Ni 0.7059403586684306 7.697917060715229 6.801631176873264 0.5917566189611292 0.7028429308166992 -0.15440374369628246
Ni 4.953283028887363 4.404649031013519 6.874791470021196 -0.21891529311610686 0.9341640537963267 0.7780834366182535
Ni 1.018200609549204 7.806510818735043 11.415449136100094 0.46493027066248316 -0.5116901525258414 0.01090044896258768
Ni 5.310673070563357 0.33352796828629505 10.485245662403992 -0.7652032382214757 0.00014578154924491023 -0.8610115408720527
Ni 8.156116883115363 7.176972561515839 4.411759185040959 0.8986913148110135 -0.19927052230198586 0.2641631092103128
Ni 7.294559723210213 6.389281345036831 6.691949844455596 1.2143757318290698 -0.8940898114832602 1.1776470089494686
Ni 2.207039459698124 5.705282527042158 2.2834515639219135 1.4584173876991593 -1.453813827488877 1.6298798866499413
Ni 2.6694677277086414 5.307153912603746 11.211487106717978 -0.37862965039202534 0.21260940550273705 1.0471540104325128
Ni 1.3281229392118483 3.4181481233950697 3.6057565257111297 -0.9573343212652029 0.3903366544163084 0.2261290372557267
Ni 1.3171471674876887 1.1885569537748943 2.4731078069937986 0.4006943435015486 0.25807859357912977 -0.847481881816734
Ni 1.1906939101586371 3.531670521244622 8.05979834816965 -1.0241004710471588 0.39690453744181325 0.8711848818606287
Ni 3.3226580000517383 2.766249118313639 7.601258431434403 1.536030250387632 0.3274122469779458 -1.8906900202276213
Ni 4.401921001587464 6.762530331109622 5.808288371454269 -0.6121814624743843 0.8710632686810998 0.8890167678357269
Ni 0.78943078990969 0.33875123529404766 0.10856193100984335 0.381246262079266 -1.4904309644912783 1.805216266733833
P 0.35260325937641096 5.92521625937068 7.793535401441584 -0.14472868250036364 -2.0101234184963057 0.7184456703509626
P 8.64348843351144 1.7497762607342697 7.9822995788911495 1.4949139399632962 1.1818890720552742 -2.153351348081427
P 1.9578157847651945 3.2863752086852114 10.148297654560565 0.7966563145244344 -0.011073741315658348 -0.8968354925491974
P 4.055825001735336 6.384598227855437 3.6892715092172232 -0.8959461479657086 -1.040352414129647 -0.8534627819905173
P 7.153420574137568 4.066227887280024 10.37247711001917 3.1622877097936377 -0.3816491539446395 -1.2622273040947098
P 6.824474785943903 7.81142127170194 9.873983383653071 -1.1324596137795528 -1.2137116158825096 -0.017556777936840733
P 2.3936457658716797 8.727402618656878 5.588288257076379 -0.27275136509995607 0.19660634520626138 0.5224458483804487
P 7.136861435521417 4.286534450296775 1.3891562322178264 -0.851024861972986 -0.27459664583881094 0.632011352716118
Ni 5.376918718459383 3.3278139756669813 0.1046026509694961 0.8503442909661936 -1.0553756270113566 0.060264601218012345
Ni 1.5499753855700298 1.3085902485212975 6.815445917886803 -0.895727089976367 -0.4873384631543543 0.2030107060707084
Ni 7.245100549715843 0.6872960962276313 8.973511793328395 -1.555944729923372 -0.8742280395623266 0.7207961728610102
Ni 3.0035331177918696 1.433352127606195 9.381756850221757 0.8475775268543337 0.7012874134041213 0.11973910243456153
Ni 6.355990292607544 2.431319852245494 2.325362279994391 -0.24794510468955366 -0.6266207778281659 0.4579600099922371
Ni 4.594674467401063 6.826066136442434 10.414720645681628 -0.04665189553058417 1.2054354919166466 -0.8561344152854095
Ni 8.500830681391623 7.47717401299031 0.18323809917552036 -0.6846564897156596 -0.43958022193346874 -0.5140604525302308
Ni 7.878003376560514 3.931363205887304 7.992520595807434 0.1730820368320761 0.16138068923474788 0.06978231090046047
Ni 3.489395158572196 8.619227158482394 12.327792201143817 0.37105800869235445 -0.07470520212337457 -0.3602164379921603
Ni 0.20524329386921888 4.833204266983858 10.126909903860298 -0.1342835759076397 -0.4816923206121704 0.03673103687244642
Ni 8.503822420328863 2.1965456398392336 5.682809929973461 1.5695183548427485 1.6761841690331196 -0.15633901304578235
Ni 3.7355725339793646 3.0771171648439823 11.437688941324433 0.20093608292986684 -1.039986803260112 0.3714770985076441
Ni 1.3272590632269312 3.551876125860267 12.160110235098802 -1.3557020735161038 0.16539058172508933 1.596756107512779
Ni 3.1115176159065308 8.594884042570566 7.779627907427559 0.23775865107485503 -0.5392747470123292 0.14901676835275626
Ni 5.453121673760509 8.086688534222272 3.475539497117265 1.0346965013954503 0.034998113341739724 0.09343183199860038
Ni 3.083746276349295 8.545552177116077 3.4320183343402735 -0.4309451719662901 -0.01172371619483142 -0.22450101473400044
Ni 3.9188870179788142 4.369848468968482 9.297656249732205 -0.6020716277338921 0.3485400300954965 -0.5617968393742454
Ni 7.350520700170014 6.167883570249658 11.28666977901376 1.6297775567441222 0.42788915874878564 -0.8893774936092554
Ni 8.057926010640236 8.686973222562749 2.309497879538741 -0.7741964428590216 1.6495094879554109 0.3909730024487267
Ni 4.6229914128435095 0.547519143181729 1.5140890678134233 0.3171689719833828 -0.2669959506734176 -0.6011653138695389
Ni 6.322981136552284 5.785441125011062 0.003931090402944698 -0.6628599626658584 0.2107201588998242 1.633910347965573
Ni 8.058771699762312 8.998441435566825 11.26385799695309 -0.10101170122838733 -0.08813484526571917 0.048981572105025316
Ni 0.11827371576659779 4.935923668306235 5.783426929951491 -0.6620269252416018 -0.38354405697450716 -0.4288803190174614
Ni 7.070170209485802 6.308886317851001 2.4591330215872627 0.2165578486275238 -0.7576069139314565 -0.7100199081811126
P 8.389045128943325 1.7393188146010603 3.288426686813605 0.5229050474050543 0.1740181754931003 -0.015374939794173521
P 1.7823853058070425 3.417356994861514 1.4257436535369286 -1.309822280264854 0.9272138477307386 1.1253481995457522
P 4.986464960139607 1.106525108933432 8.148344727280532 -0.979221094035965 -1.0025409997088284 -0.42504654709366796
P 8.834259531275437 1.6667259515737471 12.257506341667805 -1.0449035238354392 1.6941649218812567 0.45505286364777114
P 6.324754355679218 8.003056245450857 1.2373122956773426 0.10652157530302299 -0.19025109241219493 -0.5485667138372166
P 1.6911327215055156 3.384893444691464 5.941872697703027 0.9710053909943922 -0.6481738214085933 -0.5927248964116695
P 6.889210924224179 4.050096139940621 5.973348701220846 1.082209716485065 0.41062420102075087 -0.11339182006029504
P 2.619190145386455 8.641005926733728 10.157481110951808 0.3379365435480373 -1.7568587013660517 0.5418684758814346
