# total energy = -340894.66173973685 ev
CRYSTAL
PRIMVEC
9.01790887734764 0.00000000000000 0.00000000000000
0.00000000000000 9.01790887734764 0.00000000000000
0.00000000000000 0.00000000000000 13.19862118620215
PRIMCOORD
 96 1
Ni 6.280639842021387 1.8212207969917584 11.420555698601433 -0.15447367770226944 0.8595598960271906 -0.36347453991814177
Ni 4.7333921333924724 0.08878401786836222 5.895243275656052 -0.9103263279467807 0.41150480385349125 -0.1916400023399216
Ni 2.8562242299788356 1.5235486442064938 4.85066462706634 -0.2780149274917405 0.8430115047502061 0.808010306084673
Ni 3.501780251951206 4.147264130652884 5.018102845806982 0.17886187673864679 0.5874469358421819 -0.15138526858493284
Ni 5.061616961315926 4.614031092032063 2.4091442653807014 -0.16982882000210106 0.19499272086223837 0.3911200695495522
Ni 7.185722262400468 6.044055003694827 2.6870942515404592 0.07739971823640218 -0.3651179890588357 -0.06838748743546287
Ni 5.128601988153727 4.353548795288678 11.65059443690355 0.06170339054706792 0.11354840024281736 -0.05353088203860458
Ni 5.732378038486418 7.807011091693717 12.452529114219434 -1.1356534381265024 0.9847379100891362 0.6387491856605838
Ni 1.7255678379626056 6.565804155250373 0.30727442211441 1.3326079107008018 0.6397647714092918 -0.020073373711107366
Ni 2.758731617547029 1.4039080476721513 0.6734042262504816 -0.2765072325979625 0.2866486919073386 -1.045082986836097
Ni 0.6422924407644275 0.1883949370858713 4.8873043906691915 -0.6976485310999533 -0.7132191318447006 -0.4285666444317845
Ni 8.853936200162696 2.4445296378643913 1.3010524848552558 -0.5217948450600111 -0.38762671168431306 0.7680520205241804
Ni 6.782432361321677 0.8608153094822868 4.760835433563823 0.4183189985618473 -1.0176102353371248 -0.5949141907535045
Ni 0.48943708240335027 7.388562085860705 2.431819797150175 0.7557498061180598 0.5086932746810465 0.11843118225641538
Ni 7.811592189382678 3.733080595699555 3.6005966934002163 0.501344033404827 0.13199606542504363 0.3792302600905017
Ni 7.580075415822251 3.7143503990460665 12.546688707545256 -0.5630970462429076 0.7615522717324498 -0.2491540373959902
Ni 7.76368905764299 8.760077804992013 7.017878237762182 -0.4609340050188965 1.1974596728000215 -0.9570093338256164
Ni 7.00161263559372 0.6622517783923358 0.3366556708947327 -0.6050394521129645 0.3805523213360349 -0.11232095559361947
Ni 1.6749503156631211 6.714383221241166 9.09736112234177 1.1921176917618177 -0.040109209316059956 0.4533862745786256
Ni 0.3191546152156644 4.984955718296522 1.2369486798907294 -1.4956922128902177 -1.2385991231528088 0.3971858161276579
Ni 6.20734227899801 1.9492390308352443 6.833612601132561 0.5003233054497964 0.23338931836256577 0.9166301586776214
Ni 3.5127189753699257 4.305898164996414 0.38285351607343043 -1.1722160677418842 1.2742839781489281 -0.07674460115090655
Ni 6.076790012771457 5.495369358444542 4.977423960836245 0.11228830258347114 0.47883993876503983 -2.223186366596694
Ni 4.924670997724268 2.618746618677458 9.305780325999171 1.1781512022793967 0.29503820152261445 0.6660424741588981
P 0.09805803531585734 5.614414772995673 12.332408764934986 -0.4534600652393545 -0.24702722086097453 -0.6740113512969875
P 4.186140335647197 6.170819748210033 12.44549424353605 -1.2768609948474847 -0.4267013090882716 -0.08559151001857518
P 2.4464053629023907 8.357536390346656 1.534379152719175 -0.5512779421207925 -0.25559285104279855 -0.6306381265176753
P 6.378763708071751 7.687397548885883 5.718619414974514 0.39736785023147697 -0.4479347645457511 -0.3625134615564531
P 4.714571757650618 0.9042076832219377 12.8084695831611 0.21822212370382418 -0.00189927390524189 -1.6248757485671306
P 3.947715843917983 6.056707129792488 8.165656933286346 0.6829217664127399 0.23980962006661277 1.0034475706834978
P 4.766091070833758 1.1623723773943322 3.8208158307702282 0.11819181255209968 -0.34380920027873046 -0.09085790062383708
P 0.16758611244556115 5.527211594546355 3.4691787079253555 0.8033866912697325 -0.355371194084717 1.3513543380703696
Ni 1.3850876719302976 0.8804472970194288 2.6695138382636294 -0.05624468142534184 0.9100741027266585 -0.2239435995686337
Ni 1.9086313873443161 6.503355136557352 4.70922864666497 -0.039500629197783584 -0.0679740540471281 0.6651058212772416
Ni 5.738897986575235 5.574889278565129 9.36089778480809 0.3111867862580189 0.44725059399453293 -0.7143252204246859
Ni 8.686626937518417 2.544366906593697 10.150478828808799 -0.6726910898236672 -0.9024237852702521 0.20506193217278235
Ni 2.38595831997108 5.257918800869674 7.054452170630527 -0.6968566313262773 0.038289896719134055 -0.18189115048327384
Ni 0.3736669723416497 0.08937919985157369 9.092174021178993 0.4597806081407436 0.17553332658604606 0.880640885067206
Ni 1.5228542652260801 1.2582237304178887 11.489043109051401 -0.459251475110151 -1.6081682060044629 -0.558057169826155
Ni 4.1550826576141615 6.928549538200094 1.3946719054417696 -0.10100373080858734 -0.5024382949102701 0.28140364145831537
Ni 5.7383388762273695 7.772084730769807 8.017423253203994 -1.1793063989297625 0.0042171234051411235 -0.0681224066995343
Ni 5.532892877113373 3.078037733631147 4.617709497046486 -0.21245565353369217 -0.3297984878219352 -0.18512534114985538
Ni 0.5830186277727505 7.530981920116141 6.88164198359596 1.8503496687373615 -0.6424176356511064 -0.4197526456845803
Ni 5.202891521149122 4.566497694554673 7.080941376046972 -0.38363018893041023 -0.6061290856327174 0.14301401380210207
Ni 7.919401289523483 7.313992997691377 8.923693332176848 0.209336134068104 -1.0076011878405549 1.4360081667660236
Ni 4.470330714721839 0.20882951850946518 10.487532189483224 0.6422967938025261 0.9201579693252218 -0.38936554875229074
Ni 8.379864732625922 7.11787151631436 4.776858453984582 -0.9872789313434351 0.15324057662611676 -0.11815710265942231
Ni 7.219918172708619 6.033639318988626 6.980380871028976 1.1119982606014074 -0.4598937366798402 0.24906353456471297
Ni 2.220064869014137 5.462012113658189 2.573599359878217 1.2721062537713188 -0.7087526114329148 -0.438097209630039
Ni 2.055776605830098 5.3460237702026445 11.313303905226725 -0.00046408412061210404 0.43516203826111505 1.517840723962799
Ni 1.4004000811347384 3.36795448481699 3.882902329528021 -0.6625159490628784 -0.21262688900423382 -0.6095226846952987
Ni 3.6363905771542004 2.7525453320851643 2.6691305771380764 -0.10149224040923166 -0.3550842589719175 0.1903145986602787
Ni 0.9803098158934772 3.467701574457931 8.176466700608703 0.060231948207864004 -0.31110965316318034 -0.04567796165308907
Ni 3.7618837965234557 2.6150312402368048 7.180076149677912 -0.37185067979697894 0.38762491191210013 -0.8240951274616776
Ni 4.259744507571016 6.671791637806199 5.892484697342955 -0.8119320097365823 0.6670315775450447 0.859200970025875
Ni 0.6361584591738147 7.469642104210014 11.226681480106482 -0.15652233270118207 -0.1441573833779259 0.3340384940452118
P 9.22802611242878 5.76294874944228 8.015971369881312 -1.0402637110705826 -2.121471211543379 -0.9603029169752237
P 8.475093849939757 1.6599084437237765 7.85509367981925 -0.5977187500818352 0.5415488877584866 1.0057013997146809
P 1.8899462802350107 3.080120870572388 10.27148383495011 -0.5030047089367015 0.9214111250060324 0.15283588498853032
P 4.051692332803261 5.961297654301923 3.8625768648013494 -0.4324752354575713 0.16903023536020567 -1.2190430553977523
P 6.716592608906116 3.921275335209255 10.326350595893372 0.8746062488373519 -0.9013431506115638 0.20677788642262454
P 6.240356843248574 7.843903356743991 10.35083421838457 -0.5763757656296847 -0.31270039468906796 -1.5991765440288137
P 2.41554607886376 8.364353929427077 5.774357305911384 0.5217976732734885 0.13021917603027897 0.8188377357174802
P 6.973972745009732 4.032051327357282 1.5443574688468038 0.1762745756274448 -0.7030396202085375 -0.21034863449301838
Ni 5.231261862348869 2.845177291654077 0.3833918852309717 1.004146139412419 -0.4858168843035052 0.5184992050278747
Ni 1.4254428139738025 0.9497120512111057 7.077667875139309 0.5397272611687156 0.984237830524266 -0.629004190458678
Ni 6.93741414258641 0.5824243475804226 9.185910674580382 -1.2163871058321438 1.5522891354486557 -0.21702039008623916
Ni 2.732101732752734 1.3676380183315975 9.058015986087955 -0.6654128109946992 0.27129072139402954 0.7316477708635335
Ni 6.398233373249835 1.9987653861655081 2.431581724356891 0.0973764184686452 0.940781044892212 0.37142850465789584
Ni 3.8595748029496657 6.91615893145869 10.3251629372996 0.2857940572165271 -0.18739845345474823 -0.17373175460093307
Ni 8.040493769380507 7.139027530444877 0.40193631296242727 0.5528486290420221 0.4027802794962999 -0.450227931455302
Ni 7.376847822282043 3.770586078550714 8.26462036664939 0.583200244750686 -0.25634309894526175 -0.4906423307166066
Ni 3.117247601252412 8.260647977806897 12.286979245589162 -0.3130973730171705 0.13805692690714289 0.9516976918047158
Ni 0.01565418794934537 4.937422320819133 10.072699365093664 -0.6125918105389256 0.13622912966978473 0.017355203448995916
Ni 8.62653159303173 2.2329514607415493 5.711268015690968 0.3522578452667159 0.9744193017719477 0.44458770245038914
Ni 3.558800489524632 2.4827475355136364 11.630994913838219 0.5185429137816167 0.38882818819158194 -0.12951572220535112
Ni 0.9112957595674561 3.35889148643627 12.470347600289548 1.5863385117238809 1.0536270197513662 -0.10089111649012303
Ni 3.311926217215583 8.17992867581105 7.861138384112381 -1.157688820659987 -0.2877228988081238 0.09038558897310885
Ni 5.433046590475231 7.825254321270032 3.6023524802506897 0.5454366528486672 -0.3688813127560098 0.7329348651060733
Ni 3.0632393452303894 8.50006443950813 3.6818209982909087 0.7772424287741969 -0.8550203562856242 -0.6319470751370859
Ni 3.4920950178607644 4.500793210771662 9.899757516590082 0.6205545170294281 -0.4590357595549191 -2.2015862718284147
Ni 7.100953919337017 6.149330071452565 11.275186106365567 1.5699726687713478 -1.0146462676127943 0.38109148166895657
Ni 0.6300307901193875 -0.13446152970719175 0.3164537515191215 -0.1103437772625906 0.8572222490329494 -0.38562767897641326
Ni 4.729225859509992 0.3576719074382832 1.7021203731967247 -0.1532081807262845 -0.49569789086264304 0.4732495891614559
Ni 6.21007470537548 5.617814524627047 0.27865879379430936 -1.0253420567637437 0.04823338108509113 0.8529526751233182
Ni 7.846590693577279 8.965433625017646 11.327769532791416 0.9109225667698829 -0.5760371513433434 0.20635725394543816
Ni 0.3566564909032891 4.791602734932322 5.744409732456127 -1.128781136486701 -0.0800474402718944 0.33851015666332024
Ni 7.736851760945455 0.02072225271547942 2.428889878569184 0.8451619754343058 -1.0860792267428006 0.7158732816380962
P 8.577997207673487 1.6261634288574534 3.5673891459005502 -0.39863386142809415 0.7076133556221491 -0.15991438910186653
P 1.899099457704096 3.3178419654123514 1.4655220080069098 -0.4196089210178644 0.22635040923791339 0.44601055093984476
P 4.646342259393377 0.8388377638567612 8.074480464203651 1.4452132303040592 0.2819556573070434 0.17718526036717225
P 8.510615392846878 1.7267040944760095 12.337820412027792 -0.17249582531130292 -0.8048828161992848 0.5406451449972948
P 6.280594752477204 7.669524053571867 1.5412949870059158 -0.22150105156541205 -0.017261101073292852 -0.46609446617391337
P 1.9351801109590825 3.223478567346824 6.200593276024746 -0.6855921141560516 -0.8554774984277009 -1.1020591471108245
P 7.1091872701047745 3.862676963589435 5.924095173187671 0.03924351888165499 0.44967231606214814 0.5365532343161082
P 2.22544856058955 8.56496632940469 10.152933503594106 0.7534437836927024 -0.16911225355105067 0.5427740184148394
