# total energy = -381177.50420328364 ev
CRYSTAL
PRIMVEC
9.10915566040165 0.00000000000000 0.00000000000000

0.00000000000000 9.10915566040165 0.00000000000000

0.00000000000000 0.00000000000000 13.33217007657177

PRIMCOORD
 96 1
Ni -0.058960830104187116 4.57209460169387 9.516529573687722 1.1559738948514091 -1.1346756475942652 0.916581307717557
Ni 2.768837091187437 3.3181282704654183 11.681927022286452 0.2994198755300779 -0.9409777342840504 1.1132753275416183
Ni 4.320344874132045 2.165455747193238 2.49402207125816 -0.9508587408431881 1.0741287392491436 0.17603109215807103
Ni 8.930379108032557 -0.05542829964326605 9.251592521865259 -0.3995998248857892 0.9696007973373817 0.6206738162161117
Ni 8.032271041338253 -0.21660751697598776 0.8708024624919914 -0.7055731852636687 1.4507526720650497 -3.0656710523091526
Ni 0.07112701804540984 9.362207728533908 4.509619459439545 -1.380801182576577 -0.4595538368419182 1.1432392208935602
Ni 1.7628128605670579 7.727314737133212 3.3239098513925622 -0.5048751864865371 -0.5037030205553067 -0.9700772227531679
Ni 3.03696508014363 6.488670005273685 1.4774977172177093 -1.0228542573448836 -1.1752309433088084 -0.6590737561505489
Ni 3.394435665182117 7.036321536581152 7.465321764333363 -0.015475469927779801 -0.8414004515093445 -0.29054391319668676
Ni 6.083057533989794 6.305566872744097 7.190865645126522 0.4391009683042051 -0.9637016582441275 0.5372114367253975
Ni 5.198157742613529 4.607592980255524 3.472110344123117 -1.6237598897951326 1.0057937023181711 0.9805657809893177
Ni 2.4072491679118784 0.9451750726034823 3.8741019261387875 2.135183161812832 -0.2648701625796664 0.025838301219342594
Ni 5.810666460310262 6.271735469619134 11.463186141117715 -1.5343824303715639 0.7896225476061047 0.6141972073528326
Ni 6.407015536342029 7.452564392207216 4.27196068435322 2.054129648873927 0.10529001688876705 0.560722375363144
Ni 5.171613663801966 8.167906365121427 6.315968617285938 1.1784620486515962 1.2680341405844742 -0.523038744769441
Ni 4.9567377972659505 7.649057983162678 0.2372470412626173 0.36958502369125384 -1.0075019432585295 -0.2996998686643419
Ni 5.617625239248274 3.806825348077471 6.69266954027195 -0.4602369789518719 0.4553526542763771 0.2328434731614248
Ni 1.3673662067003605 6.570187836874466 5.814332895355442 -0.5676607543541901 1.0056759457933844 -0.062370077596789364
Ni 8.154169758790667 4.531868571483897 0.7537279537350501 0.705195747319592 0.19568666160546944 -0.3398011075606019
Ni 3.876246221318006 1.2284606961315487 10.11281033105405 -0.7719600973293351 1.0337415936813488 2.045214091551852
Ni 0.8641136096878287 5.319956259356632 2.5988001311517763 0.07815896499992991 0.5696543877454512 0.4889986244655966
Ni 6.689253607000044 4.285429481515464 12.270715499343066 -0.021375123241666412 0.39499549334455847 0.9572816136503965
Ni 2.5279545860079717 4.576002429356931 6.405293905972988 1.5176046966925927 0.6092043821239316 0.9885770813295685
Ni 7.082714464991339 7.885950678280556 10.311940111579885 1.2232334393300157 -1.8369223395878622 0.4526126296373947
P 0.5748988369152714 2.2657657663672013 9.575911246771007 0.5155082407203508 -0.5048854708991821 1.1110240696135962
Ni 8.72110537206247 2.2741279710168287 1.1869994644504545 1.1548264115105271 1.0097794264387963 -0.7642110495115354
P 1.6925539450304818 0.06656697485629925 6.018034560972397 0.36544786159442866 0.3253993303129751 0.2405824936768953
Ni 7.964799527351554 2.6480132540712513 8.329899940946172 -0.5447221432801458 0.29389174662299705 -1.0236397293606563
P 3.284506377914465 4.385475335183066 2.1074295164322447 0.985746553859309 0.37777681547342684 -0.33030859468913437
P 4.620855910505913 6.101175644063987 5.334080915707082 1.7871648085487608 0.289388716546321 0.6126969686582222
P 8.534549869639408 5.742074520210377 11.675740994859915 -1.7154590553733424 -0.7094450095142492 0.00842499083890162
Ni 1.6770501625537215 5.466841390048618 8.383188499987915 0.3660605554777631 0.7730908684996686 -0.5125730693514269
Ni 8.105016756296777 7.445076666475197 6.11299932776248 -0.1328077626930616 -1.0890779043598082 -0.14972073639831635
Ni 4.074179058825365 1.1179210954526495 5.694156719187609 -0.8778088149350495 1.2556668772683728 1.0873676065369209
Ni 5.9167972297795535 2.691372833735986 4.689150892140028 -0.3527409555507215 -1.1199478544657873 -1.2986081567165895
Ni 4.460890032671373 8.209143511579885 11.33417044055773 0.5455852626113894 0.1308097584264263 -1.3101069013848083
Ni 7.063302854851518 5.146499722386908 5.15248352656375 -0.1403053566216874 0.668181631989088 -0.4798552674034316
Ni 0.4786460355527947 6.85304533009912 0.7940049952152166 0.7089001927543727 -0.08593449518029071 -0.2049457183098922
Ni 7.408257460381739 5.547712471616584 2.644582746150718 0.4410069270776663 1.100458121172292 1.167298575835609
Ni 6.455321387384485 9.365942482244527 12.163511671368626 -0.15581836465562196 -1.4754753716227105 0.7214646596829446
Ni 1.0276220380542211 2.1338287596730785 5.214038644123508 0.26195556003603276 1.1748262516712218 1.0924771598493443
Ni 7.892673234959669 3.091301192055425 5.785228232963258 1.4522194864185636 -0.6263613535191923 1.4760088755286773
Ni 7.397508657019473 1.2940010691751973 2.7793171744656466 -0.13602806940257217 -1.9400451736219817 1.9955203238711505
Ni 8.57279010397398 0.4168495253751555 6.908970078711237 0.41640558358921836 1.2487480386613525 0.2351726355152337
Ni 8.472726031995593 1.0345632144627355 11.388019212656063 0.7517378567451892 -0.7777260532788348 0.2593970552802371
Ni 8.703433610602472 3.34705894798962 3.4656437547105132 -2.041025764502117 -1.390836969546024 -1.5630977960283854
Ni 3.848691026257959 5.563416655511963 12.600820359753655 0.4461717591080574 -0.8901861055534798 0.5975943086888289
Ni -0.07343527802167955 7.82400842161665 11.939318049782388 -0.08093395664190577 1.0812424674757897 0.7238992372663662
Ni 4.336950864411207 3.4093109159368464 0.31452365011299827 -1.0119126707317152 -0.9316348596165698 0.33191296306177676
Ni 1.9512903947777793 0.8517588622299967 8.319354271749141 0.43842965326879335 0.4804149965616436 0.3346136498223915
Ni 3.28843242388831 8.00639193087029 4.983751908495727 -0.1509119284929401 0.588440924324335 0.9361846837707811
Ni 6.363901903872871 1.328743387839336 6.895011208988917 -0.5336252620360358 -0.03615151021989258 0.6786635053570182
Ni 5.370329888673015 2.342091379394683 11.743748127183649 0.10197149403849537 0.8888519601230884 -1.2974802137597332
Ni 1.258156542708657 3.047823193370597 7.52720936606492 -0.9647421836934997 -0.06664505082305941 0.2374940845595587
Ni 8.633903427497236 8.194304697446722 2.718856066468438 -2.0821029941584013 -4.942693859462326 2.1935893696658675
Ni 3.295655984113968 5.987548039707284 10.252398117361704 -0.7854486187340731 0.03716298220354245 -0.14177628474025908
P 4.499348886735346 4.229317084302277 10.792151100028981 1.2792791173706741 -0.295675063775665 0.7704158927706667
Ni 4.900470544411104 4.8938664067520845 8.76586138524876 -0.8057976147040703 0.5749940547908097 -0.5009586250409501
P 3.050483066744988 8.095488579757006 9.607721328314542 -1.502679185731012 1.221545767214948 -0.22400427760324004
Ni 7.192935245231527 6.797087788527593 0.023387756468320857 0.21963957287664113 -0.7000579118723943 0.08327366051867593
P 8.767288789898648 6.462353655346917 4.235643392721848 0.21633853352786614 0.07486435340905817 -0.11098501039101531
P 7.209778073550876 2.1122947163269794 13.118001766275713 -0.19511047738702528 0.39809598664675305 -1.2918230154739556
P 3.724351055160557 2.752240210063667 7.3996210701548195 0.01258092198880414 -0.548653617124068 -0.8662524775560178
Ni 6.3306352683821965 0.7840705503449729 9.955851385414327 -0.17821113052852536 1.278838687399146 -1.6026156516173495
Ni 2.1714040256640517 1.798047073622351 0.5708926303739794 -0.05805756626436453 0.6345261487181717 -0.08257200646596102
Ni 6.542568877726676 3.243815780779513 2.297039318658161 0.37603283619912664 -0.1899137636774342 -1.018068405920466
Ni 3.3061315128144817 3.4411656323417996 4.698936857777386 0.5839756894641297 -1.96313290867938 -1.0811059418979252
Ni 1.1543759353304373 7.842162968312409 7.725672356416079 0.016963881547848204 -0.13627001021004917 -0.02429203977814526
Ni 3.490764983449884 -0.23896958254719744 1.4098367327988608 -1.6588839871917755 1.0687551336420562 1.4850547877810296
Ni 5.516495396089053 2.663489709081836 8.833721860170689 -0.7169824555418749 -0.17224257164991624 0.6836401326360033
Ni 4.521629880823569 7.112647149608633 3.1325665768955964 -1.1537246938059165 -0.7805272701730558 -0.8717073300230019
Ni 2.861213036015185 5.743951006221078 4.282745924337053 -0.24312222937961353 -1.0938347023185033 -1.4818280533136157
Ni 4.392662458787157 0.292694470132206 8.264318576703259 0.7532632922507801 0.0018532511586548729 -2.1926642867484363
Ni 5.005316922970159 7.292662278460418 9.232527059630325 1.9963153089686196 -0.3894488524947164 -0.5600806280140871
Ni 6.921719252597531 5.256292372323684 9.830795434703132 0.14683235910692777 -0.3845359885741313 -0.22440614102734902
Ni 2.5666320598013472 7.4917155420809625 12.406930165409154 -0.9692426426670145 0.6925343498018395 0.7644187946469673
Ni 8.40315941226879 6.609976627625635 8.554426957619748 -0.5563350449287257 0.7960572474878549 -1.1360136496793982
Ni 1.8336638712040976 0.5285787817482174 11.23769901946585 -0.554980073562728 0.043303804993957674 -0.05546075207146577
Ni 0.666914970105045 4.482943297874802 4.895146243084626 0.958924291460142 1.2421899258278606 1.3384222033897335
Ni 1.044528630461311 7.050887076052561 10.102304742140742 0.97420795709209 0.4733953707107008 -0.49257580029389353
Ni 1.8201003388257802 3.060156989771028 2.7982623958494104 -0.2025121691677351 -1.1008944373787621 0.13185208364801165
Ni 1.4854572971990214 5.415893883942553 11.820608447632628 -0.20536815055929145 -0.5203840807554134 0.39196133450392495
Ni 1.3681495940640511 4.116108501093595 0.5657942361012164 1.3263652722251995 0.651168385260543 0.055624531342839685
Ni 5.068461588145777 0.3054645950759019 3.6552808844026043 0.16525816991228312 0.14881596519585982 -0.24244500080693082
Ni 0.8112777756690549 0.6884207750694301 2.3227043639744194 1.5501402074264528 1.645951338290507 -1.4856921642547123
Ni 5.718263188016339 4.970310438799659 1.1631571611280853 -0.8416310794629117 2.156524603603086 -1.1273302629727875
Ni 5.716605321735041 0.9063409213373691 0.9345583519943964 -0.154200883656857 0.37338434283268596 1.1696040840403341
Ni 9.52025157458079 3.1125528515843803 11.964542211977687 0.37395461351385917 0.1207084083263663 0.02544775064914327
P 6.119457718935231 7.998339437503981 2.035515467360988 1.3899522529482256 0.4969988690622537 -0.46100985256215443
Ni 7.63429204227265 3.0066862476214493 10.701266323938865 -1.4516481872961258 -0.31147474981208295 -1.6694725613408987
P 7.891798756042061 4.950379606802508 7.269379277279103 -0.29018781540884864 -1.3653323975170164 0.00953853561805454
Ni 3.9262463752633274 0.8627645437743104 12.652975739864663 -0.8522723612268419 0.06611386090993776 0.3134439577233118
P 1.3948120918957065 8.901357338954439 0.32099843776545495 -0.2614835054956206 -0.38967202424911596 -0.43567574467273995
P 6.802562390918035 8.399124056430244 8.106958828226299 0.0662670986583504 0.4196150916654515 0.10607574601485603
P 6.866617971632829 0.6557480565102973 4.9565273757764015 0.6010426722487455 -0.5954294398270261 -0.628270397616447
Ni 2.909801270874785 3.513018650071932 9.28952213400097 -0.3842817064714801 -0.5788350258034548 -0.07011475453921474
