# total energy = -340895.1404924708 ev
CRYSTAL
PRIMVEC
9.02803962062998 0.00000000000000 0.00000000000000

0.00000000000000 9.02803962062998 0.00000000000000

0.00000000000000 0.00000000000000 13.21344855302704

PRIMCOORD
 96 1
Ni 6.322733229065247 2.0135777967367416 11.66080167312805 0.6476356895169363 0.447658628066229 -0.5516515234101274
Ni 4.797021653736067 0.3125543354173528 6.106528838590028 -0.05410963736021003 0.24399074802749593 -0.18669268563697525
Ni 2.7386918656686703 1.5255490706198902 4.823318526914991 -0.18445505455570813 0.032919633546156214 0.2608466432425701
Ni 3.3005970382367518 4.161095586086273 4.8205297655427835 0.4063281447485582 0.19799499802367193 -0.16439685035325238
Ni 5.0201496476309915 4.41690508262735 2.5237423726707466 0.11005427104662982 0.7089490437144371 0.7550697493318996
Ni 7.34020229804975 6.217989915888272 2.62878902797173 -0.6623197738916723 -0.6202107605367642 -0.4080309863722779
Ni 5.05055608434708 4.61798660429523 11.479896916726437 0.7864084115441811 0.4144446032081056 0.2243254083880846
Ni 5.528148396911734 7.767734132113601 12.235864310325002 0.27727213578844506 -0.230728483700951 0.6520088788839674
Ni 1.894046555014354 6.397611787890435 0.3750094092173003 0.738466850667896 0.7579550412994946 -0.08953866759178128
Ni 2.828222932448196 1.4096290446595083 0.474830635310661 -0.47178097503572936 0.3636375478585673 -0.15058694105335355
Ni 0.47131150555058654 -0.01172652038317291 4.4658677515365035 1.0421071920372247 1.1060644116154759 0.5709612794823328
Ni 8.417798109471645 2.102919274688762 1.4258894464318792 0.6563555858884373 1.576915161527452 -1.3493956716821018
Ni 6.820855303236905 0.5764592748929055 4.735858492374977 0.18716216907422603 0.04333594378347375 -0.09203803697486729
Ni 0.5473113468698768 7.223695449528042 2.364956312811417 0.9657037762758207 1.0778316420220275 0.13131780841109644
Ni 7.595759009487486 3.8893877121529665 3.74301340086765 1.0809676165478481 -0.21307374673366528 0.14912526890616254
Ni 7.388646757497056 4.1162262302433525 12.511972450664313 1.6720287521038493 -0.7494284918857222 0.30483487589806213
Ni 7.93555635661341 8.756692652657069 6.796033611696759 -0.7054790828879657 1.1865111442083178 0.6781780810801675
Ni 6.974747262934775 0.3884521598913664 0.334094334633776 -1.59913360660602 0.7277566633392434 0.06818385606508902
Ni 1.929246880654504 6.5345671456645 9.12298729543671 0.39422544794775327 0.03521922821361031 -0.7220369872466468
Ni 0.23030618802585212 4.98111240524371 1.4277528337650742 -1.3091111131304423 -1.7458222410462323 -0.9623492579812909
Ni 6.440594283497707 2.083211064667616 7.062654185425339 0.6740041522081359 -0.9547048540621559 0.9337380220025017
Ni 3.3796194671488413 4.024745106952344 0.29119670259691066 -0.2676803783349519 0.5193584677043764 0.456890173966826
Ni 6.050194775506679 5.565515452009088 4.646389719067346 -0.846752202739561 0.10559237862053428 0.9602813197086687
Ni 5.237102462572888 3.0064274022637703 9.638179586515367 0.5526113162202354 -1.3103475566407046 -1.130572424059169
P 0.3311448741601579 5.547973971445146 12.40265824113658 -0.20765848925536493 0.0836978925402881 -0.9401907196063807
P 3.969267804808532 6.080935249680752 12.831565948405753 -0.1326352416709393 0.20919935137992357 -1.149591131253517
P 2.271328321749896 8.387454869031394 1.4661111675890983 -0.5694175891442967 1.0318397486729456 -0.25490765205031585
P 6.294565746121602 7.5259180966502965 5.8136926440371655 0.3858284821333097 0.6950437464872545 -0.36854526957282985
P 4.846775178897099 0.9293824885097791 12.744939201902822 -0.7841538111820495 0.18018265243259937 0.40955976431197855
P 4.1491334338746295 6.24807134318578 8.021884275012036 -0.6495323923190168 0.18693848309919417 0.4404734231716995
P 4.7432235669215865 1.121715839994201 4.071565422110688 0.12133909993182974 -0.4110756867358727 -2.1099758093092693
P 0.2594161982833798 5.480037974922414 3.5676970008577396 0.22678235456900944 0.1536038735028064 1.205094306527144
Ni 1.3937848355037084 1.1475902009289718 2.599481303651232 0.17246805739716103 -0.1342403813745301 -0.8073981264219707
Ni 1.8684159511435185 6.400609096972899 4.831986347547746 0.06074256929569539 -0.14517502600916288 -0.9511593028027424
Ni 5.990059005029879 5.67804996319259 9.06915580487643 -0.07819573177513629 0.4705530161658993 1.1582081834985665
Ni 8.575211004537474 2.4213833647006364 10.178848101991035 0.20216532735127762 0.1274974062237417 0.5136503615760057
Ni 2.635564571545193 5.137568328132606 7.015957554406844 -1.1882224704724698 0.17999804722561902 -0.15488659686997197
Ni 0.4992162725475448 0.1316513846236192 8.972327373845832 0.09297263297399472 -0.3344979501801336 0.9472874785521622
Ni 1.379601785598431 1.0512068522410405 11.344537716319177 -0.11731300949157215 -0.030371927423638017 -0.29884831929732397
Ni 3.988786426002173 7.068485396077038 1.6347414016156558 0.7792805422501482 -0.9866253569198362 -0.37303930078844144
Ni 5.650261657903957 7.915333548346178 7.965357011885421 0.07075110257163299 0.36304773679336827 0.0628030513691499
Ni 5.261730954069766 2.8460442822336933 5.219655776422697 -0.6454294258942368 0.14702210652023068 -1.3389554501853842
Ni 0.7496883921923772 7.459941184678453 6.844354387004216 0.7811731312871708 -0.8165656518538518 0.5841854914820906
Ni 5.13687316909842 4.392610628588456 7.114186234349161 0.5813495646951924 0.768868859998521 -0.01612981568232706
Ni 8.258146260633376 7.186481871100574 9.115178041351372 -0.2939087159038616 0.09564118094509334 -0.5537207472343303
Ni 4.590703869213278 0.47898443624090803 10.539746685618297 -0.5567029697911058 -0.5061167722031219 -0.03659528262553052
Ni 8.29315699744602 7.259013139680457 4.786267453196813 -1.449441409452794 -1.896150014900928 0.023747737238901036
Ni 7.271959348187248 5.966802775522564 7.029937473425509 -0.3424308318739651 0.6309931958642487 -0.7002224624747166
Ni 2.441281163549288 4.978241488712916 2.439136101386657 -0.12202841268937048 0.728815700731377 0.6757548163506555
Ni 2.505642056467634 5.176226392864877 11.38445609535239 -1.275271795983494 -0.0696018194585382 0.5384517368904017
Ni 1.194734622701956 3.3159717893434912 3.8269317355490786 -1.170537908708513 0.3486431313322641 0.061241620419300986
Ni 3.488335117664022 2.5675653787466266 2.6350788630252033 0.4395480831439526 0.0794422025877277 0.32203221361295503
Ni 1.2665165640112235 3.3874828894706086 8.203873298946194 -0.7818943257239114 0.19622916437250076 0.37920943415489533
Ni 3.530207164424478 2.7689267696360624 7.153919538574568 -0.5355546178482647 -0.5359227998209609 -0.18627359582168565
Ni 4.008666168772014 7.012141402150345 5.8767607217127145 0.7789447561772843 -0.8023127414792635 -0.507966423817351
Ni 0.773237130176416 7.386741841182598 11.034788392744964 0.2559633470083398 0.1801962792793542 1.140509737777539
P 9.274324319982961 5.567411340284141 7.979931878700875 0.7048149669414056 0.10620970048955901 0.7169837410934555
P 8.46188202588633 1.7943408878253775 8.06699558231101 -0.2592834125205083 -1.0363384078742475 -0.5975248889034742
P 2.043632139916034 3.1120193511448164 10.30160054817313 -0.680894451570066 0.5145579609919396 0.34700790972168627
P 3.9491443049747557 5.977139880641304 3.735164423408931 0.16487713242378058 0.552476590414584 0.2658366402579938
P 7.017973515605983 4.149539695647855 10.334211632111924 -0.8967935835676686 -0.3188738704896315 0.4287255386071519
P 6.316892087570203 7.714522867860447 10.098311670870725 -0.5346848136488018 0.4101907130277581 0.4230809387268649
P 2.342586636773673 8.462685521393377 5.612345698010778 -0.5347364928223436 0.38358262352192646 0.6624069342888398
P 7.055385710900363 4.069497098283 1.6093843473387925 -0.09517915370701027 0.41797112830412525 0.09589751993027355
Ni 5.467461916031229 3.050285617693329 0.6289293371109075 -0.5259901140882812 -1.3814521858970144 -1.3621295743090023
Ni 1.4079949695272007 0.9493525116736705 6.932303741279983 -0.5534672364626274 1.464033448334356 -0.5660563859815476
Ni 6.676740710214663 0.7747628688358634 9.54612157150638 0.7002219482540845 0.47643981396397944 -2.2820782558368955
Ni 2.706046475180139 1.3685424373272888 9.162271003299747 0.3376601499581991 1.0729360044926233 -0.694642654394094
Ni 6.286395370460065 2.1020616109452854 2.6618361662137846 -0.07491397570007098 -0.42650693368927833 0.8330201978654492
Ni 4.008828673481304 6.898324909371331 10.494530653062224 0.7078653237319551 0.1576212221923156 -0.4847848434945652
Ni 8.05093470020949 7.056487131707774 0.26160369223121477 0.03620061829027314 0.0981840019716051 0.3237114010875909
Ni 7.56685122731263 3.909809137287109 8.200080619592146 1.0428605252634813 -0.5261353814168939 0.34309417648957685
Ni 3.0724945946296645 8.46478002653534 12.37871497783054 0.020140736613933057 -0.8664355401011015 0.13267689354215215
Ni 0.08854791328831953 4.873146081999146 10.200623733035927 1.1194570308722978 -0.22024995276713036 -0.2984387425637312
Ni 8.453350528648592 2.196476847042924 5.676907013403915 1.0850214749022475 0.6733390078203113 0.21197742834569297
Ni 3.718116776600443 2.6430217320937346 11.594219882516072 -0.09494852575344293 -0.6081620569023461 -0.14491483036924077
Ni 1.1918727342105664 3.224111488397472 12.441994311628166 -1.1200244733399938 0.5553233158347597 0.24015929009654768
Ni 3.1442043116236915 8.44518918102646 7.729153708520213 0.05741556180499144 -0.66093986282501 0.8680195967587696
Ni 5.495818987802379 7.757911625240945 3.7014437934272624 0.11273078943752844 0.3011877660637781 -0.33033276305885045
Ni 3.1293531868024433 8.266948599053265 3.589406727214977 -0.6664937027637038 0.3671463323427741 0.10929630983468273
Ni 3.6103851823804085 4.5683233595282475 9.398818274966285 -0.6458719127482941 0.25614101023678465 -0.881824878072978
Ni 7.470314401954814 6.254959737251806 11.221349215833818 -0.8499799656482394 -0.33238141805776306 0.6034335410784253
Ni 0.4411334782314456 -0.016097897063080773 0.2534269969420934 0.8226499103747187 -0.07685515858684185 0.19267847090676493
Ni 4.628450101965642 0.47001417628808595 1.8583659376778567 0.2831072544129834 -0.22501292137341247 -0.17743311471192022
Ni 5.977844067714896 5.616081500716573 0.4323148893406278 -0.6887373446532526 1.289825782538269 0.4563988361527043
Ni 7.835281922941917 8.834983810377352 11.426051884107052 0.710972244792053 -0.49837286659164487 -0.5651014782674462
Ni 0.11672442427136877 4.985129882778942 5.8931448076249335 0.3826030332174766 -1.2320057862060072 -0.8836495899865427
Ni 7.817144591777244 -0.1809435769710561 2.460238240691937 0.232587905507193 -0.14896894583395634 0.7483344874905951
P 8.391391094211981 1.7290952470453398 3.501247019621073 0.1003064476312466 -0.7839159841396305 1.3919230035213512
P 1.6655468776734452 3.149467658596815 1.4618174320480737 0.3994543004468604 -0.7693457996349395 -0.019655312337082276
P 4.7381859209335895 1.243251306464502 8.110995537959228 0.05578779639358134 -0.8057058263212123 1.3997196167476345
P 8.39063273890196 1.7315147616058835 12.421421215432021 0.8391743903923031 -0.10096593559211645 -0.613992033320562
P 6.1112784901210055 7.777818452129002 1.468872844843092 0.7848570078966612 -0.9774830282989361 0.1559050108321573
P 1.6422274518902935 3.225772647647995 6.011022112528322 0.4909063830112707 -0.8080398737710276 -0.18918202771773224
P 7.0136039445339575 3.9447025095874886 5.890383130370941 -0.20997582453463193 0.7627897436839767 0.6555256337879743
P 2.5383416151925955 8.532941724043198 10.131226096933524 -0.8991872806108256 -0.966424456491929 0.43365434336733705
