# total energy = -340870.9468457697 ev
CRYSTAL
PRIMVEC
9.25085579135081 0.00000000000000 0.00000000000000
0.00000000000000 9.25085579135081 0.00000000000000
0.00000000000000 0.00000000000000 13.53956254147600
PRIMCOORD
 96 1
Ni 7.648607590915989 0.29364899116798154 10.916069071564403 0.41497013669427246 0.23868810486765987 -2.244405938097102
Ni 0.8271578723460092 5.959225552157538 8.774963117750048 -0.6876960478729318 -0.5155120973750928 0.6422872807208293
Ni 0.44401425181658666 0.3066362676518796 7.624411977522132 -1.385916135205639 0.9810542905899621 -1.1588684427903848
Ni 4.699434755908712 6.796566766588793 10.848128011174992 0.8996277105823538 -0.9753389853727396 -0.6823849200726635
Ni 2.348662780391022 7.246269369648309 10.67908619771398 -0.9000696832157788 -0.2827267311451131 0.3657085714549831
Ni 4.293137168350619 7.4548946700720355 1.1885851088409916 0.08140703962358238 -0.19446101672848445 -0.648938724599076
Ni 8.229052539261446 4.264764793554612 9.619155516000644 -0.9960217105330718 1.2687550779108987 2.360952244625979
Ni 2.662442558906115 1.6205371697555517 11.916711018335578 -0.15471227607563678 0.07672300388435173 0.37277910514851925
Ni 8.929481087575674 0.3453575748522873 1.0320004978254624 -0.16459353974509072 0.7426868022865145 -0.22875104825960604
Ni 6.276298635344095 1.0644497247807794 0.7953858080366225 0.5859217574469071 0.7295343240649564 -0.488097967028198
Ni 7.532037556744324 5.999300259564225 1.6614666562398874 -1.2530042428345451 -2.13956920669567 -0.14412858702251952
Ni 5.001734222352776 3.2021559890817572 13.347395649380324 -0.3293930248534005 -0.13734447422115056 1.092544779862486
Ni 8.148440581657137 7.613778118758516 3.3427014662787933 0.7516427259282217 0.3156041985994242 -0.14314796827680507
Ni 5.458051187322676 6.074417208812214 6.991071560690829 -0.1750684711344856 -1.2981672125244288 -0.6785771162907991
Ni 3.8097521992551515 2.5057238104812147 9.901305693385957 -2.636623611586207 0.6325137462738333 0.8763566558695552
Ni 9.14771802719505 1.3704125301290562 12.15909546689855 1.62468651537446 0.45195956943442805 1.225846708583147
Ni 7.641650947340313 2.5751792359681493 2.4331406706419725 -0.23878554967747262 0.7493071358165095 -2.998839853617216
Ni 4.315246713757356 4.909688206956532 1.8316046961154202 0.742267969581541 2.005293344097514 -0.48778352111157286
Ni 1.913243498715606 6.243929890834402 13.112957685965629 -0.5281066462106517 -0.5128954856878521 -0.3088378264098681
Ni 5.459522073397852 0.6551937135318616 6.272216232671295 0.6388062641507644 -0.17236032817470315 0.16774982598588528
Ni 6.925024150487509 7.710551321478125 7.889340761715323 0.39039373290648893 0.5927693764963597 -0.07031838590958857
Ni 4.3784485607108365 8.12107655014537 8.217119860340881 0.9464606117754925 -0.28289462418154504 0.3786044535810447
Ni 0.70865810965056 7.977373755857406 5.234110170005479 1.5304545560720675 -0.8705660173297072 -0.3443409044124844
Ni 0.12293184771819704 4.346542358992078 1.7126053872057603 0.3182796885490583 -0.4471022413421268 -0.4891914572026931
P 7.485172721166699 8.662214612117095 12.95554697352549 1.6290800164564654 0.07791162487581421 1.436878742296435
P 0.12854804228574068 3.305034756641719 4.296929094150713 -0.5880876547499743 0.002617125907872912 -1.272014722498777
P 4.372370748437938 4.097888605440759 11.442785049314747 0.5758047236175632 -0.9313168141555186 -0.7899035691816332
P 1.656347232629809 0.07018809326777672 10.441182863709592 -0.29396939393846794 1.0226071743310838 0.4809621273143653
P 1.9717459109131783 5.639090435694985 1.6357825801447992 -0.5507727203495999 -1.7453566142637233 0.006369908082085803
P 8.008706404515404 1.55979605044985 6.808775121012755 -0.8785672903676288 -0.5584436066312963 -1.683480959804849
P 4.201405682052212 1.2102987176186863 0.41634679223396504 -1.027643451203411 0.33031707932956667 -0.7961289812660547
P 3.5388778900272713 2.1755977697344466 4.106644540473176 -0.27094028003314624 -0.419897913013193 0.23897066910508527
Ni 7.535238352857601 4.403934668491404 3.539851080059401 -0.01615372694172702 1.605073883349855 1.904229963695585
Ni 6.356022510789806 6.708803897436615 13.204512480917899 0.19409926251369156 0.5208265676094708 -0.5771954333175027
Ni 5.7787043517110765 8.718052777838876 11.735564460035768 -1.7714988198767299 -1.6002407236272698 2.593526523286417
Ni 5.908623370829152 3.0943187628029625 9.661060042688273 2.4095280966521533 0.4935098820723888 0.7090719424455466
Ni 0.9866777799128176 2.4125861940983624 10.101745836581284 0.7451545471007167 -0.7907525474454897 -0.9534483559472354
Ni 6.311757165697242 3.091506502634072 7.252805099284233 0.6430539836835247 -0.4936389514510854 -0.7650456295976888
Ni 2.6570308082521654 4.584243099254036 3.4467393660728405 -1.4720005257002327 -1.0045963395759603 0.07898043245996075
Ni 2.319855615371534 4.59893345829416 10.847775553568301 0.09858252296160441 0.28985922842483625 0.07673663073110655
Ni 2.568999664281246 9.206766239885926 4.199836736905358 -0.46054422577964554 0.32567109591712295 2.32198794754764
Ni 7.391110019201975 6.977587513249466 10.546155099941329 -0.21189952391990602 -0.6292988388809614 0.2720322275457444
Ni 4.480864785479863 7.864911101669252 3.5698275532543744 -1.1339922483739953 0.3537344298122424 -0.4968538588439573
Ni 1.482162868419169 4.132634819895864 5.742060786727554 -1.1830650946412462 0.4665657493833771 0.11568678674205883
Ni 7.98787347721165 9.126283794263081 5.560251867151126 -0.9129388258689631 -0.5345855690667761 0.25894608378574757
Ni 7.249183389231205 2.2511680109175534 4.957862963718088 0.12638977498185974 1.1024206442153015 -0.045785947985863086
Ni 3.640396781781882 2.814138092621452 2.0402632996200945 1.2710664996528949 -2.543053968458162 0.3684102866568623
Ni 6.645306023096936 4.896255964307754 11.699427841951112 -1.146978119110702 -1.217908684682993 -0.7598270615112269
Ni 2.1065678836151736 8.012832286210552 8.205759809395495 -0.7267390207080064 -3.370286098886925 -0.2542376225664847
Ni 4.352990205497725 5.466312201568791 13.101909388861335 -0.45095118277457175 0.19892162360299934 -0.5759489625049113
Ni 8.305529364314788 2.138141054524458 8.648016398606526 0.006261664638995667 -0.2655147381422008 2.4496843571560647
Ni 7.752910990272034 3.2266337535780854 13.329293574714258 -0.7966424305673634 -0.6901195697127599 0.632599106898788
Ni 5.1083503356635 3.7367999502687415 3.7253427653372597 1.7122325780162446 -1.091145071301482 -0.291344297610795
Ni 6.155639722900558 6.40513530433138 3.393921604775871 -0.06862402892630118 -0.5287525073247668 0.22246495814057815
Ni 4.382417177857066 4.1346700081759815 8.25486797750916 -0.6432133920795245 0.7471029290763391 -1.0255174059993437
Ni 1.4110977940197778 1.9176561569411346 2.8640372089076167 -0.5926125392035213 0.19680817680442234 -0.26955394120858095
P 2.3648055237946846 6.192171352528675 5.115693665012398 -1.7458027006622063 0.08087122172477039 0.4977943683803555
P 3.6424597226294564 7.4429333134984335 12.635445160143883 0.1517359670561322 1.6102268883057043 -0.29003997697707473
P 0.48928238967990095 2.429108222590593 0.6078885372172654 -0.0284831950413574 -0.37508872711830243 -0.4294261642186024
P 6.33897318351591 4.405368551143305 5.491050840199207 0.10596416013765622 0.9714152248383012 -0.25825034327030366
P 0.7043786637488211 8.949074400199718 3.025117735851043 -0.9181365680198187 0.2674813749502684 -0.20032853125285496
P 4.535925879312872 1.9356213189410847 7.960504820271974 -0.1437182389579783 -0.25193571390618547 -0.7029966827857442
P 0.256874989117414 5.97068736251693 11.34125228127641 0.8841985205114772 0.5101240935903021 -1.5487818936263456
P 3.4348335146341507 5.774596971727566 9.26976641818256 -0.7910361401241796 1.1779028337140167 0.1522365608416346
Ni 7.886363836312858 0.6785308475057412 3.2043132886586827 0.5106223733829593 -2.610037890677879 0.9636448368642628
Ni 7.933034403918291 6.414663685824659 5.2851138384763985 -1.100140589931873 -0.48077855054864943 1.0513490223504667
Ni -0.03175818802565867 8.094831872187667 9.408546832089383 -0.14525961530316917 0.48291256617251677 0.7835542299248377
Ni 4.293044659792432 5.629478796499337 4.5792966666477675 1.9420408638957716 2.9317453739615638 0.2044168423896157
Ni 5.339991765364197 1.6893172827677196 11.670818645246143 0.795657698056591 1.0162310956014111 0.4365761449998223
Ni 2.3190970451943995 3.673487093045436 0.5634890547153287 -1.0507322147020743 1.0051275294890818 -1.776042216273038
Ni 0.2539174905121699 3.79965951555693 11.810749865616817 0.02090024048777691 0.3178757682424203 0.37778350034164615
Ni 0.4250842255547441 5.517626698795219 3.763645933854661 0.5793109369986088 1.1039527645891116 0.5872908698802918
Ni 3.7796129109977685 3.904268193154992 5.764577369790312 0.19270752437248745 -2.5303797154246035 1.442080855322665
Ni 1.0244582750764615 1.5560679555549064 5.335074935496549 -0.5478264932370823 0.18690197343430393 0.5899859002139517
Ni 1.9336508866516977 2.7092426384930097 7.580922779232758 0.5701434115667278 0.8057667614661349 -0.6038176638907213
Ni 4.138416604782562 0.22893000386023088 10.38160827732263 -1.9844476109967566 -1.218140855298457 -0.7561030756924204
Ni 2.588648482040203 0.8498798244079443 8.532726682880172 1.4991639734889017 0.8112470678544158 0.972700776418944
Ni 7.858148726065769 5.2592132923551524 7.491860164838051 1.4629900946715062 -0.051820584215717204 -2.090749871200122
Ni 3.5020039787338617 0.3620821970869475 2.336264783422776 1.6272974706347458 0.908947188211067 -1.96126474512239
Ni 2.5911184605438002 5.617249165106993 7.300207409584925 1.0746712420161748 0.3225590326507025 -0.8800559590980134
Ni 2.2785135407176837 0.09159734888903565 0.3597759587313411 -0.11129662809416317 -0.5460226072591241 -0.4922554408399974
Ni 8.462109349902407 5.543325576259617 13.09616923282582 0.30505367677708756 0.3555498857544263 0.6033983169651156
Ni 3.9969062633236336 7.645203275974701 5.958923974257848 -0.8690269549773614 1.2142883143215861 -0.32285676639677946
Ni 0.5668989201701082 8.162196604259572 12.577725370348576 -0.9992111640046469 0.3005251927791147 -1.552821353803042
Ni 2.205848068261654 7.53185253962795 2.340164019150366 0.3436060831289889 1.063870037635613 0.8402287997987464
Ni 5.585601987351159 1.2957951270952774 3.4068515259536927 -0.6926989004041618 -0.8033072441820488 0.17369035984003636
Ni 0.03947617703521505 7.216703634451687 1.2061709857523744 1.5080250234239576 0.23816539959497043 0.3558352782053291
Ni 6.573732151627515 8.136053685715876 1.4453749900848734 0.49013762316604625 0.5720126035649826 1.2900870066194556
P 8.925355205880527 7.402072283347157 7.109488990769491 0.5634683135393973 -0.5750480479571967 0.722847141852768
P 5.965072093034968 8.540695370082416 9.642551855451764 0.5491652666531639 0.13171118719477315 -0.3126304606830809
P 7.5696052822241375 2.638871378280022 11.034825082966032 0.49131750240676036 -0.365588500937351 0.6488510499812761
P 0.3113884322859551 3.8679123297874307 8.126797279383666 1.347270397808983 0.6516499528826519 -1.3268352698830825
P 6.491260772003645 5.657999184988445 8.935623655839303 -1.411303207820176 -0.3029525712736847 1.8179869361359398
P 2.286635792126518 9.29562996088053 6.432524313153859 0.7239113214512242 -0.2706039797396501 -0.24183333536486096
P 6.145251011816138 8.32650105445582 4.709764261515892 0.28380530892127254 0.305704422987209 0.10077978772323934
P 6.307233497201889 4.036749699334852 1.2926914649680974 0.827606997269678 0.7619500213915007 1.1565019994407373
