# total energy = -340885.53631208785 ev
CRYSTAL
PRIMVEC
9.14433533707629 0.00000000000000 0.00000000000000
0.00000000000000 9.14433533707629 0.00000000000000
0.00000000000000 0.00000000000000 13.38365908939273
PRIMCOORD
 96 1
Ni 4.912601997442209 3.611783753184837 9.600767263239586 1.0555944278903822 -0.16166016814837963 0.5573051221514789
Ni 4.654750036502135 0.8824393096343833 6.6138561620039455 -1.6621819412167569 -1.3198632094406237 -0.7669161071475245
Ni 3.458799027086268 3.156770783314024 3.113347079259973 -0.7111851321338075 -0.9497441676227707 -0.09062650133932135
Ni 5.0024542340617275 4.851088055274542 3.1506340200334053 0.6962382810159881 -0.3961679163861048 0.1575469173109545
Ni 5.0138480755870605 4.505688230158275 12.278837591059025 0.4950931673991086 -0.15097029253470126 -0.8042192144733569
Ni 5.959134571445607 5.7679448133303115 5.352258885392082 -1.4989171475854186 3.1511941709836373 0.5511144199597346
Ni 3.528643458523259 2.948087912166657 7.6578347232159905 -0.7369972081009049 -0.20145004645180792 -0.10643750022964896
Ni 5.545179666140399 7.944680627434053 13.208788122533834 -0.4134583280354363 -0.01651265294304253 -0.14127054874843412
Ni 2.422892170460428 5.603392503339651 11.990393257066781 -0.03258616146613742 -1.377804047621466 0.8054011505965999
Ni 8.382136473927146 7.325398821960448 10.303704189440479 -0.9582774019047627 0.8532748343494272 -0.5324487252294314
Ni 7.909767556050649 8.987665199421537 7.627200286222397 0.4282462849778883 0.7681324960531286 0.28927995888259855
Ni 8.85214615334976 2.504889423235435 1.8534094994674097 -1.0314782515684686 0.053352190368895214 -0.3531793286397208
Ni 1.5251927944235764 1.2578032919819593 2.971319095469312 -0.03300962215680121 0.6218338979624839 0.024004847555029626
Ni 2.24953386577563 6.90465882001656 0.8354383416921219 -0.8529567888883762 -1.1430003654098766 -1.023445096851347
Ni 7.323670542627954 4.375372310754168 4.3827737355780885 1.8340799850430605 -1.271231050255217 -1.4380776477005428
Ni 7.298267579740816 3.6974478843319614 13.170390145046655 1.026258397930426 0.4096009019625591 1.0423568461541854
Ni 4.757824981665498 0.21810153629270598 10.953440288506352 0.590644616843873 1.0272145911961084 -0.2527116728402615
Ni 0.6023528979167432 -0.04897980205629202 0.6495065762550505 0.25201927475892727 -0.2552028146932315 0.1437030694493267
Ni 2.990727946703276 4.901491630304746 9.809740009809387 -0.3605707360077855 -1.3563636183595027 0.5223507175634812
Ni -0.02362164641110721 5.164180944508787 1.9160317350482956 0.3610877848535201 0.020477294017745378 0.2615012461074335
Ni 5.927403728674416 2.6078912137180583 7.3426770431178445 0.9138441112920519 -0.4984224888826578 1.6467872039282414
Ni 3.098155595370699 4.070719642810359 0.48809808866921284 1.9363301866642397 0.6178800555210584 -8.664617653533465e-05
Ni 0.5918039929539631 0.05102081764895196 4.923071346689684 0.3956300416047638 0.6708982595893026 0.8015236699190648
Ni 6.811999272523625 0.732708137961748 0.8451167059540898 -0.08450419049166738 0.33546751318225454 0.30090057384066243
P 0.09677358385107869 6.136205476177985 -0.2311139251294223 1.1940298211828664 -0.4463026282589669 0.3441205608715622
P 4.10605335360802 6.041406154273391 13.378532585990051 -0.0764034157614039 1.506095924722045 0.1356028089396955
P 2.611402638393602 8.75871848170905 1.6606441724156664 -0.4443719868951573 0.9643174374512554 1.4130001359066244
P 6.375467003874881 8.11432633207127 6.47370276690726 -0.7829003983909227 -0.9925041842981166 1.0081277497679864
P 4.672490046581705 1.3554190690950627 13.333884455467105 -0.037310049304368 -0.578327747149733 -1.1592451094035132
P 3.793253083096738 6.503533416846217 8.668569054199024 0.42788093121866955 1.2532317854643191 -0.011997795791824499
P 4.620998295675487 1.3737808939609282 4.131816603297805 0.3021958956133183 0.7987815883975534 1.5044542753535637
P -0.004964459521752131 5.848213786772825 4.267406060749793 0.3159821507641333 0.7383074422718963 -1.0846041848591708
Ni 2.4026923342409576 2.120516441954667 5.29169778294106 0.5087799208575818 -0.7449126062932397 0.016321877088475118
Ni 1.8748447353578852 6.99148428172044 5.250395564628484 -0.5780009599379337 -0.896598951058359 -1.104174907902247
Ni 7.072146461571934 0.3643688338322787 9.847709117980724 0.021976247160775054 1.3594939364583682 0.40388533963502055
Ni 8.354200530219368 2.7754245769488937 11.119625776744543 1.1375239156763377 0.014741162864916548 -0.9337012552272951
Ni 3.0777728724493776 4.810414052782825 5.31859950234987 0.249737420703286 -0.7174429401180611 -0.40943275181581096
Ni 1.666427049928203 6.9797155224563125 9.511458200124567 1.2953860502348657 1.4353026560585667 1.1305217733268917
Ni 1.2257432531474353 1.2060829326984264 12.021014891991245 -0.3335085896836708 1.6026115378522914 -0.4214657717209451
Ni 4.525284540261636 7.164120183932925 2.0198748043594343 -1.7992397374354239 0.7904825816135547 0.9983956100818868
Ni 5.705571303663944 7.8987852096044815 8.927234860962336 -0.3002022622220572 1.7816852734914284 -1.3775749623297953
Ni 6.748263256928465 0.8594705687488852 5.519394470046391 1.161254426524058 1.704523382297445 -0.7005299664128064
Ni 7.974372283479603 7.595632212615853 4.9823074349857945 0.6679376342990819 0.3645433475022883 1.2378087660410295
Ni 4.656396016818796 5.102109197900473 7.162131291050293 0.3887847365481562 -1.6161867054335648 1.6435645832258856
Ni 0.6792146921037672 7.7045046662279 7.242446900601778 0.02279360085574784 -0.10220032221984977 0.0021818381426672103
Ni 6.192269394630486 2.0835550395105296 11.990179279625616 -0.25683649364191247 -0.5670765997159459 -0.6602808890847726
Ni 0.9473988372649282 7.530250216704032 2.898993805921708 0.3002017480014249 -0.7164394385542113 0.36458139982907534
Ni 7.046350292275814 6.296322783648753 7.70119807465843 0.7772419145535647 -0.2451472302294423 -0.213089173352633
Ni 2.5259671156237915 5.58854210314933 2.8632870062522704 -0.3931401853033745 -0.7199219977861729 0.29100414066255686
Ni 1.3114165286296526 1.2100241411233206 7.505649212004511 0.48250350365955613 -0.5500949775562849 -1.0986326379277789
Ni 0.5563376892974599 3.6225923572642453 4.098263294542666 0.8713502037938993 0.07260486795092011 -0.08067350389166753
Ni 1.2114872347381305 7.595906542668629 11.886549273322133 -0.9412019344797147 -0.471260326645569 0.6378415862446499
Ni 2.0824851523046997 5.565955595470702 7.663858096741461 -0.050306718674352074 -0.14812948065179649 -0.8782621004223843
Ni 6.544618914417099 2.3060458566476654 3.1750987741400465 -0.2994072771245876 -0.4852167888256611 0.009805673236512144
Ni 3.90531690965609 7.175239695405481 6.495785421722289 1.0751258130550903 1.320158114973223 0.05558570768510427
Ni 8.025050188562583 7.291317885070469 1.2202136737169629 0.19673232926116443 0.6752796764864499 -0.07665486965057766
P -0.0825385974124868 6.115319814826573 8.778515967184449 -0.43024428924452357 -1.747111649281617 -2.2939899196728173
P 8.575968944884192 1.8158912070161355 8.589565656733322 -1.2100557642974774 0.4325533969936744 -0.2494545993555446
P 1.495757179760618 3.388387646873537 10.943577208675514 0.5174494236071218 0.2518428970820631 0.7192578818396129
P 4.104114754568397 6.4446713318553925 4.260540493962297 -0.840533732633675 0.8603584806690859 -0.1563868355645823
P 6.769258650300989 4.3928654237862395 10.894405375582279 0.3869404842505659 -0.9555150086682769 0.6608154214320038
P 6.475506029787513 7.685420438889723 11.221193735484654 -1.3398640780425828 0.9804415967066276 -0.6640863788737917
P 2.5177920800510405 8.842444013816552 6.2149692920642625 -1.0025805946975122 1.702697641942616 0.651610357893968
P 7.11124763842773 4.165948748464304 2.0243052347117807 0.035707480703938504 -0.9884708947690073 0.8421093046509109
Ni 2.587161006063219 1.6373023426583915 0.8012074377066237 0.19478446150617423 0.5018502836172841 -0.3594715894063358
Ni 1.1110824354217954 3.3085576015154676 8.635551603480309 -0.47534889489264587 1.0698712495243703 0.7844057792918555
Ni 0.4960865798060754 0.27114233756360495 9.62792319516397 -1.2658931829820714 -0.47903251439182015 -0.1083416592308973
Ni 2.6851608452502105 1.8093255744196757 9.87451665073808 -0.3216684025156331 -0.27473342852699134 -1.081348911146667
Ni 5.313946864654774 3.0158108578621747 1.2751418657509666 -0.6558380228220705 0.6530254930739399 -0.7204850693784947
Ni 3.993129959549967 7.196957491250317 11.110002278493132 -0.5003852690359833 -0.6311029819692356 0.07843561570008427
Ni 7.165619854888106 6.074225172920597 12.652562908558012 0.15927855529008053 0.2029230314529086 -2.52979684633794
Ni 7.707586307154094 3.947197964380026 8.838274197014343 0.0560338509661164 0.2645606017590476 -0.38339390454988814
Ni 3.0834149272014884 8.881060540912443 12.657702024880033 0.7018116613387074 0.3495928968400431 1.1824804257823698
Ni 0.15106715902965875 5.326264284024456 11.021188838340128 -0.015887874874850057 -1.448361546125054 0.09484311052383021
Ni 8.288269874201992 2.8858698561968628 6.192311458571911 0.9338164406489208 -1.3156031486126891 0.6931285317424126
Ni 3.709865891387661 2.621040767581163 11.782357804843969 -0.8155007009244472 -0.05331362382147592 0.6319766428234407
Ni 0.8980230854991282 3.6352572613674448 13.182394828156172 -1.5508040662626967 0.19356498727677632 -1.192849684831836
Ni 3.530408315196124 8.929699259269782 8.506733526164364 -0.9773205345791426 -0.35007883533752615 0.4747189746181309
Ni 5.450800983650063 8.290199328906523 4.536337298088016 -0.5244849902976645 -0.502483803436225 -0.9040780330442236
Ni 3.1826492516259757 8.853197751885405 3.9137562165130158 -0.755098545687306 -0.43608866384044254 0.2705661845231792
Ni 5.160239736083892 3.2772565424936264 5.105597761738285 -0.5685953503533175 -0.32282642737947626 0.22426241636063313
Ni 5.5504650918239 5.949779916645916 9.86485383184577 1.118801656676486 -2.056056947803627 1.0031210405820143
Ni 8.559673739749245 0.004135982762365977 2.7758507029642074 -2.1300047029356866 1.0153299239433804 0.27517977203579064
Ni 4.696896276943755 0.7015863079077211 2.061699164205796 -0.8368789094899071 -0.7352609421360885 0.17645995216537352
Ni 6.019816379119851 5.6811284959615245 1.1549066613529007 -0.21278758295181419 -0.32565541218783917 -0.8699669502931275
Ni 8.305772131569157 8.9151689108077 11.972498707724146 -1.104563401589917 0.2102622454267992 0.8716587361732537
Ni 0.11034834929598761 5.186785740857601 6.359205632779777 -1.1190325417403695 0.4997440359075588 0.16140485760446396
Ni 6.824554444605712 6.559405304261774 3.3427162652537343 0.5034078579123912 -0.7997393243251323 -1.947110050888563
P 8.356715222369822 1.7885405007542814 4.1260081216470095 1.3823466726868257 -0.4293297478500542 0.7100942130624739
P 1.6313493805131336 3.556798866273259 1.8513081312631388 0.053051885519657026 -0.5770776767927158 1.9742503587487803
P 4.846781073445945 1.5597583810734623 9.178191993242619 0.44735009568687467 -0.9029572891762192 -0.8901215708641316
P 8.355270417425197 1.5958967933592692 13.084346523993188 1.0203183782969074 1.4946028364807808 -0.3715717151039794
P 6.312206493704534 8.351000012936971 2.3177551777336918 1.2540190572523047 0.06239604573871835 -0.4077180831175495
P 1.665338874052188 3.714520357949776 6.571363351262317 0.10396667009165321 -1.359099272123111 -0.5890759868051726
P 6.779811212997806 4.34087073444993 6.598853051417579 0.3756224881345854 0.496901424252441 1.002226296681887
P 2.217830456009716 8.967419641526602 10.630345325547864 2.6951329206760097 -0.36794954497035987 -0.3445975005079807
