# total energy = -340859.9872907107 ev
CRYSTAL
PRIMVEC
9.34202012350323 0.00000000000000 0.00000000000000
0.00000000000000 9.34202012350323 0.00000000000000
0.00000000000000 0.00000000000000 13.67299075661161
PRIMCOORD
 96 1
Ni 3.2848690359720365 3.8891015360577397 7.2853657505927085 -0.990835538346442 0.7770279987705457 -0.5286154675262702
Ni 7.7827806618284 0.2817702650718928 7.185060483760813 0.09258979571327924 1.1277652936276772 0.4238818373616054
Ni 8.728258461982605 5.710561850908155 11.829392388897828 0.4672062111808534 0.8817001795696557 1.7337642814404333
Ni 1.6302104850485555 5.911564749404484 7.420003874473491 1.1153676912942727 -1.029385116484866 -0.1955035990603859
Ni 0.9211726671825604 3.3247688026330238 4.367180334665261 0.4727662217671342 -0.2742685730754309 0.2320351183275165
Ni 2.3079833651753026 1.263601601162545 4.781267231692099 -3.129618758805707 -1.7907602392095028 -0.44390198923727414
Ni 6.128430397559055 3.7035783644069413 2.536175278162415 -0.08133504873506638 0.5123061888432854 -1.7244075228158815
Ni 6.749151562631094 4.109582545883536 9.330858911205354 -1.25774047196795 0.7355692174051267 0.7869187755216964
Ni 4.654745454632919 8.154182001883244 5.456671909793895 -0.23432699968548676 0.19489013384610304 0.9694629862079368
Ni 5.923494508717544 0.7495756444808453 5.14788078658802 1.6613741006034806 0.6692314134098409 -0.5769699475702579
Ni 7.920089669176375 8.518688931309239 5.1155583322048885 -1.3176458900743306 1.2804515404122205 -1.7698456005440228
Ni 4.360798800924657 2.351050076556046 11.57402267184372 0.3996381343228924 1.4810940033610684 0.5992264449756131
Ni 3.524491844413699 6.955245861930569 1.0798207162086033 -0.07782420736833048 0.17194200969036194 -0.5096895771560448
Ni 6.100039999319124 1.7210055757013631 10.091938318895364 0.2246190283691035 -0.09806393145397305 -0.11325452315148236
Ni 7.207471055112497 6.149066919346487 10.309461645245426 -1.0250008713742411 0.5762083868138851 -0.13390999461830486
Ni 8.267958461298877 5.337693813741213 8.154202554326853 0.9660668160421942 1.3494877171752757 0.5360045609014897
Ni 0.01432225058954826 2.1683108268122893 8.103625793210973 -2.8049717332777244 -0.4198814579529607 -0.549077334925048
Ni 4.301486317072956 5.1885017571792895 9.549777001114881 0.6967190773071485 -0.36384272189083794 0.6761679926286741
Ni 1.0608891130387386 1.9974359422428367 10.80089672959287 -1.2893383013788893 -0.0765222007274553 -0.808374374292311
Ni 8.451893489579888 1.1334392389786199 3.5477721578108383 -2.0750316891339167 0.28187312489556615 0.905044767832867
Ni 3.90609467011448 6.717893164305722 3.7104260649366774 -0.8786261686300224 1.5496218730291378 -1.0248617746932156
Ni 4.576590116799665 5.430553490774746 5.514945561041358 -0.006064718136841168 0.1358745745438434 1.2085570682647637
Ni 1.7152602335106566 8.423661905676935 6.940259393731656 1.8696388559842767 0.811261723142435 3.1939325903924285
Ni 4.6966817816151645 2.115771307331747 7.904765954061877 0.8501640566345874 0.9574248240964801 0.8228442857737119
P 3.275461622010993 1.3181403128850568 10.103396306207399 -0.6714173653175662 -0.8857254986789649 -0.54564234110157
P 0.5004931067671349 0.5671764442586197 6.036147123148557 -1.7155436446673487 0.9743269991684574 -0.6033376389305093
P 8.65826804947403 8.42220455058466 3.0898356881421494 0.2844110608260715 -1.615936794206288 -1.3747596043681873
P 0.751396404144209 7.226715615946408 8.677070732770346 -1.471561381280285 1.4310287112735611 1.0034059188122848
P 8.805432887734518 1.987355902854589 13.346684011950437 0.21565410586633182 -1.497980237593446 0.718602250533485
P 2.4117918894405563 6.346174195576921 11.868470057814456 -0.3987400479886552 -0.803803467092177 -0.006810338053614078
P 2.5722317378685133 3.239457477615899 1.1487722961129396 -0.4988143250044378 0.6682245694118814 1.4429316333587343
P 8.322646645338546 0.9018160021107816 9.444098204481207 -0.16856435146738066 -0.7623657687726806 1.3893616705520782
Ni 0.3561346112612621 4.2408098983272025 6.506853199712329 0.09285333378731106 -0.9729753702365695 0.2244339089414909
Ni 4.122166246584157 1.9987531670377792 5.645728233341483 -0.45128362641332603 0.03739566703963882 1.5316658027713492
Ni 2.9897266037265213 0.06186192106120256 1.6103091802211373 -2.698385880395669 -0.22046515410172995 -4.127925408718213
Ni 4.195837414902712 7.063688028027677 7.824696436367038 -0.1074217185197892 0.3358765756952151 -0.7046388463748575
Ni 5.67573480101067 5.401014024096675 13.665579463796098 0.8736014617219212 -0.5280505961617358 0.3100444451234596
Ni 8.96756364175031 0.33181359685592 11.96710683990609 -0.3892403360283361 0.5443873856485463 0.43352758798148566
Ni 6.012206328949981 8.336612964972865 3.465979971660768 0.0933924941202327 -0.7304910315512709 -0.5944747892232406
Ni 9.213903362444196 4.273310785288938 10.130441453592919 -0.292140054039213 -0.5087686080036721 -0.9432469899342013
Ni 7.235880137392072 0.010366839396791928 1.5120143160549975 2.2064888513363545 0.3465661941985773 0.8966789123666751
Ni 8.415917371244259 6.972846227275758 0.6148412977958927 -1.2065930025598575 1.8745481203604362 -1.0275228664651463
Ni 5.581137508290191 3.4454209886378613 4.878905351864732 1.2000788555904234 -0.34183613571275967 -0.7934298371673367
Ni 2.0849800099974884 4.979941164646731 9.956261362410343 -0.6131353417472215 0.9620751783842979 -0.41780323526769336
Ni 2.0355420410979455 9.287574530762752 11.562673986163604 1.8685749334961368 0.3182496066420713 1.5269835668043314
Ni 1.0037720038452758 5.950577024182354 13.76377903936005 1.113732726794011 0.03587691640226724 -1.718677819420956
Ni 7.926068561862638 2.5907102530769976 11.102864441520547 0.555099886970044 -0.37981235784621686 1.0136124270316413
Ni 0.1220927254614338 0.39244984491643853 1.164708847727779 0.6951324495463189 -1.498623784714716 -1.2995424956054005
Ni 8.835486165502816 7.373843086127607 6.669466001950951 0.22195536549401132 -1.955336809673729 2.871143958229423
Ni 5.870282363809797 7.942566568868798 0.4981305099540784 -0.22589583819899806 -1.4820196004991315 -0.7403890073912732
Ni 1.3680080146964253 5.027706911998084 2.1047103558621587 1.2021758473287683 -2.8342131466413445 0.65237397553287
Ni 2.4160798765389857 3.497418670968711 11.619101654294182 0.6095687074418856 0.7714813579207036 0.6517175728957937
Ni 3.2710148205755845 4.740523880641159 13.39519618668559 -0.9382953023558809 1.9011988901787449 -0.47523679479481384
Ni 4.684070054855078 3.2255845781798027 0.5703975726933443 0.5826978511929706 -1.4894953400508866 -0.17241894932678045
Ni 1.4875391583225879 0.33044499095195495 9.193008066707687 -0.22984376710315255 -0.6829400212451852 -0.8769950607845026
Ni 8.024664239067056 4.634090248805842 0.6391342861417679 0.12844820017278524 -0.23588380264964537 -0.5235539938429629
P 4.203040112185696 0.7853490409863291 12.912061486950247 -0.5154100245795897 -0.5314429096727363 3.449351634861524
P 1.4718819331004347 3.4979885341778703 8.48827411737382 0.9125629305867832 2.2097379544012714 0.24802300911534056
P 8.683837157727629 4.968936265296076 4.431306761331387 0.9942849303476232 -1.3857377006462457 0.811745604757389
P 5.514519564937462 6.440547279821664 1.9952312255647768 0.3700671055339949 -0.10922123362237318 0.8501046641515617
P 5.034489218389065 7.16741247411453 9.905807915956116 0.7976898979952713 0.5319944113008322 0.5463252261012075
P 6.229922100908381 1.7591490426357612 3.142559245413191 0.3010247581233525 -1.5885391189196256 0.44812271218684113
P 6.185454086554295 3.4449725716863915 12.103754432250648 -0.028270050589286798 0.4320638589517656 0.796087329394842
P 2.893690639953411 6.858668061007766 5.930262802078791 -0.20261295641165747 -0.11581842722391666 -1.1417595510242402
Ni 3.9332612637576903 4.899450321857905 2.3450001845191326 -0.47723222795828774 -2.047385645281874 -0.0016794445849519465
Ni 0.9997269092622254 7.924788705146986 4.935607675378085 -0.09116077657623654 0.13784018291064648 -3.194097912325699
Ni 0.21380520246079013 3.6528138286926333 12.505987240324984 1.307261204405897 1.4981746129924391 0.194929985945103
Ni 6.481792297337062 5.513305102360564 3.872081310143515 0.008737894093630112 1.6602261030419665 0.1755343550273106
Ni 8.520305100738495 3.5526486921580718 2.672946185168626 -0.02478286337163474 -0.13130829532939967 0.3764349567335517
Ni 1.4815789496759688 7.297733650635434 2.242972249232007 -0.5773849236204894 1.5620909520304258 1.6286742963776142
Ni 4.408209551522764 7.1268867921254495 12.490126359070707 -1.230383934331868 -2.529685774681372 0.021663858126678818
Ni 2.0205574413029974 1.8942066232065649 7.093396585264532 1.1042641251819434 -1.422586494043479 -0.3077595057440248
Ni 1.779682802205148 1.7679492253083555 -0.11956944590743407 -0.08945742073188465 -0.5566073247535059 -0.9882376957122787
Ni 2.6242574462588304 7.42536432544752 9.817794878806385 0.7683088737299929 -0.175651083110833 0.5506588204795548
Ni 7.921855310922787 2.528585821258789 5.373088858443894 0.42095232241963626 -0.8914204921812132 0.4981352966595421
Ni 8.737310879190401 6.031217339288336 2.6629651711904945 -0.6779304838457357 1.2315514722774081 0.35055500364299624
Ni 4.899861370730086 0.08843529644569804 9.062649522107494 -0.05457320726018988 -2.055309013894009 0.0185628506038519
Ni 3.661006780076779 1.7341030874922096 3.0591947973270304 1.2708605542896758 2.0727624334837653 -0.11360445029173337
Ni 0.45968903258734956 7.853621198140803 10.831893551363217 -0.8594010018518231 -1.9798425081245772 -1.1945728381705298
Ni 1.68933612850381 5.567993286400233 4.642226213869072 0.2726948008304078 -0.22217519481430123 -0.28628590925128117
Ni 4.700941742654128 8.863353410632698 11.36178973131902 -0.016055510800965896 1.5318586355084458 -2.1668604383114554
Ni 5.1280588889290915 0.5700360365262218 1.5472355991889841 -0.08519581724205327 1.5849418884866704 -1.0185967676201102
Ni 0.9263397383462673 1.7983668418497223 2.6468585948148893 3.213998250794052 1.374715124283497 -0.9294769327333025
Ni 7.2388415576757374 8.587203304685891 10.393044696595426 0.023887862361191118 1.7265510515214457 1.3410092473906197
Ni 7.420936208051756 4.619143017090183 6.095979957504359 -1.9156675161085654 1.887998075217755 0.3180506032573877
Ni 6.682449541099966 7.727868269312996 8.529976893860509 -0.18187083876829968 -1.2941079548533907 -3.3931468055351823
Ni 6.896288374832116 2.331590649266222 0.40603314173804383 -0.3282511979394734 0.5684840215864339 0.613834167586459
Ni 6.468180974455989 0.422478833433198 12.636523283301802 0.5689522194721041 0.22467739241086465 0.0618946806222676
P 1.5720564116548188 8.157012633889396 0.284953091225346 -0.009010173918410289 0.6141355008769617 -0.8406633162330038
P 5.054873505641295 4.926355338946093 7.613886285461273 1.8469085042662965 -0.4417216937565038 -0.2134000197248325
P 6.976218696431603 2.4813058589381938 8.177090502891456 0.13730590767373127 -2.047655354003493 -1.9870099724072943
P 3.6708252429100026 0.3063874215056014 7.401435675874715 -0.5222378461347006 -0.5038053504611258 -1.988461874362472
P 6.581200730266018 7.023601420970243 6.133484430282913 0.31254432872717786 0.13450983298583288 0.5658728092158318
P 3.157285071259062 8.89673244745773 3.4742934351006216 0.19516215656056712 -1.1196858590536523 3.4737568031787656
P 3.2956497268469556 3.678326884827299 4.3978352385101145 -0.4660877813056941 0.49087758665586434 -0.0625503119283955
P 7.853266201387556 7.762779397388884 12.23641017952514 0.010728442161097654 -0.541001757005765 1.0593286981218337
