# total energy = -340863.87709789706 ev
CRYSTAL
PRIMVEC
9.33452622985975 0.00000000000000 0.00000000000000

0.00000000000000 9.33452622985975 0.00000000000000

0.00000000000000 0.00000000000000 13.66202268577149

PRIMCOORD
 96 1
Ni 3.1537163303269096 2.9949547096724864 1.577553587361171 -1.6788108080226896 -1.4699372154133006 -1.4765773464376375
Ni 3.67447087483943 3.6925145138754716 3.624726251566295 0.29486336650764705 -0.7060249280891066 1.1835168374666845
Ni 4.1255431816881885 5.7344141042619405 4.4145139744282575 0.6584096402039886 0.8929269015234107 0.33201966384297016
Ni 8.027981854012468 6.683642067828984 11.605929061261525 -0.17975790619035492 0.11041859636458402 1.0803960603150942
Ni 8.719156842333067 3.456145642861167 13.188660510274685 -1.8656631591659802 -1.2117964011376678 1.2360467890446
Ni 7.554600029679933 8.582742077266996 5.4883074555743825 1.818546922404468 -0.09846759465029493 -0.8813903616387208
Ni 9.182606730848557 3.4948652573058134 11.016016879454526 0.20649557929551532 -0.45484331874012635 -1.8447032690848617
Ni 4.135792491394124 8.2514317408437 0.29066874304563395 1.6105482762008652 0.4519598265447442 -0.20194318403814251
Ni 6.553948161586478 1.9579261931964884 9.450184656572175 -0.39414162998469543 0.5139923182964568 -0.242457342102105
Ni 0.7501822618862665 8.344973027331115 13.089132992171223 1.6541703837661896 -0.6006004425050043 0.6877932355724283
Ni 0.7989560944404425 8.105822467525945 5.900053403779144 -1.79902016522545 0.41851851616716307 -1.073135264987623
Ni 5.2850313466452175 7.735484477295255 5.2242617145435934 0.5604668077089122 0.052111375983258636 -0.3398669278015308
Ni 5.335531133083389 3.81885732523234 13.197199734791068 0.35743604703354576 0.04090573707542633 0.6770519378955243
Ni 8.941374571713311 0.8067812277068231 9.928246812313231 0.09783716015514764 0.1790210280243304 -0.27227982478017626
Ni 5.489364123933865 5.687526779441434 2.4986883610457147 -0.5481409391537077 -1.4667277073370677 -1.7954242203440758
Ni 1.8948808036209963 0.7302073093910643 11.506674111321464 0.2975769087840682 -0.21403893886041203 -0.34429179634210383
Ni 6.3056310971080585 8.197795553621196 2.5171044476748956 0.49589612291637813 0.09845319647259174 0.09698895322223942
Ni 0.33769981956875517 0.8115409025875668 2.011500772546441 0.8285199960022505 -0.4038231189385174 -1.3041524835735863
Ni 4.3121963664604035 1.5110544231124579 0.19330123429185805 0.10041931906002705 0.36902143787829994 -1.6961500706320853
Ni 2.8821562957503297 8.360160301367141 9.442521010608083 0.14045602326693876 -0.21670208751487194 1.1463955071343546
Ni 4.315538126819899 6.251481510947644 9.393555820267958 0.05299814946358614 0.5840499943454909 -0.36675963842731674
Ni 8.635155441564654 0.9511228723742428 12.858764354562178 2.063326741992163 1.819922462595756 1.378122607303149
Ni 0.003692738542502924 2.4027537020550183 4.0471826350684985 0.643412395464208 1.6822941385855994 0.6992210177933957
Ni 8.833616801908828 7.918581207606668 7.945217277958115 -0.4889248338048677 -0.565037200688414 0.6181117119158904
P 4.695472009926456 6.264167131977122 0.25773000064186735 -1.5017823849483556 -1.6660046573969567 0.053798019657062185
P 7.626615898879655 0.17888685902054105 1.1759626701482915 0.16608220847547528 -0.23815845761643498 0.8204716717764772
P 5.2784038330830905 3.221316968660595 1.8200543085993641 0.9886932951924584 0.0008032126275857134 0.02189294341834939
P 0.6966272850412158 -0.016850686594859148 4.001988593290485 0.4175818632855067 1.2777637091674123 1.2009460886867251
P 0.7700433331625138 3.127458308284289 1.7484930308228468 -0.14351435047728833 -0.04045373713967226 0.08842358015073158
P 0.26152728587718127 5.973779358168419 6.77675956682947 -0.09776388371505099 0.0991579358491002 -0.5951545888990848
P 4.223462360937066 7.253122838812347 7.235748485300818 -0.05037485290812614 -0.6371854407178897 0.34028678894776876
P 7.999063492018852 5.86790716264499 9.604128728283762 0.1699748586616621 0.36653775222449775 -0.4705141925081639
Ni 0.8712277296565056 4.980091046578267 9.021634694403271 -1.8040878095563446 0.4276752429657667 -1.087219768105147
Ni 9.301780626126956 7.485636550529247 3.2998707399714626 -0.8331677791869071 0.23202869056961328 0.04698562472091908
Ni 2.720977032824652 5.678742990340082 6.186737237613974 -0.8991944796996771 -2.100471983583892 1.0476358351649377
Ni 4.112624197505114 2.802644802057104 11.345025321730752 0.9855884310148896 -1.6421360783094754 0.2935950413181847
Ni 7.514769606624169 4.726322618831845 5.94951052364705 0.05114746940809257 1.3174916238846537 -1.4241029306880055
Ni 2.439139684963705 0.22069713507141275 0.547243129350894 -1.9827352562913403 0.12280719983692397 0.8330855038857459
Ni 2.9913609171071087 5.292340280615844 1.7371263783374935 1.2939562597668746 1.101468307604361 -0.5099785691513733
Ni 6.492536314086157 7.6938338216414435 7.276843736649072 -1.128774708728798 -0.356680914035076 0.2798177850284342
Ni 5.220940490141615 7.188891964416587 11.857392794503033 -0.5237090313635884 0.06266164069527919 -0.8836439335595879
Ni 8.91555527239945 5.105565747003758 4.2229452281886966 0.3146696026002968 0.34612910666115876 -0.742557732907818
Ni 2.911373362580547 7.7458271322626295 5.42618618408713 1.117042250783218 0.7298240873912335 -2.1527569090305376
Ni 8.687335442708719 7.311071577113303 0.8896382155700003 -1.5983612472163697 0.9805043316237629 0.7823283279375365
Ni 5.916540043854394 0.6117811096567862 6.4577512024111385 -0.3093217080248221 -1.2300494338105847 1.2305037477391843
Ni 4.863344128097266 9.459142067859803 9.904050787095784 0.40946051972995284 0.32486454085542765 0.03416970390317341
Ni 5.960645679884036 5.3964202471196545 7.165375492702412 -3.3164780519275334 0.5592082527114627 2.045417980032542
Ni 5.728514683739034 1.7952720751400844 4.46085522946935 -0.5954242976207036 -0.5661916260078312 -0.018678036025477508
Ni 3.9063871768831238 7.5237027481438234 2.95207656383076 -0.5449591989916163 -0.17007050369926194 -1.2369363907384052
Ni 6.666046486047846 0.5682000739964282 11.48119458875924 -0.477754419010345 -1.0352474888029137 -1.7072225263961631
Ni 7.763534728357493 2.214457640681487 2.205733592547454 -1.4138342017721457 0.9837405791728734 -2.9692832230060215
Ni 1.3446851636508055 0.2500476856254874 8.220316031395823 -1.9172939959683948 0.22421073718709125 0.12063101812121162
Ni 6.804253480133535 3.6677593505420094 3.8396154444710104 0.15486397116215264 1.5185356931472944 -0.26616728412453516
Ni 2.9048205252275716 1.7120081019370357 9.218955375652667 -0.9676863539234882 0.5086032860704015 0.8332192012501328
Ni 0.5905329277955642 7.523917442245133 10.390665235689825 0.06716672765448434 0.6314007157153125 -1.648664366346296
Ni 5.04948391393157 0.9619042500703775 2.3653875939012283 -0.060090537533993287 0.4866352664397426 -0.9477986138606257
P 2.069772485451974 3.4781657900344847 11.48534845289325 -1.712477347037199 -1.3408081871234068 2.209659792865169
P 0.7293737362064193 2.8898479452928534 8.502614504848276 0.6210551108149304 -1.139865676435637 1.2180711784027862
P 8.753797268852855 8.763038449735257 11.629987868944657 -1.6777620550432009 -0.9769500386136012 -2.530982639115925
P 4.267866701803309 -0.08731795790731825 4.044518561307047 -0.18362767355840634 1.7417645260370909 1.2564261240319008
P 4.566487527670881 1.3682455076378566 8.039185152290305 0.7262340560471299 1.0392481253218748 -1.0735808371654736
P 7.7168434285860075 1.8485628848952642 5.620815721449257 0.1440501683761003 -0.6456626249509655 -2.598600852485531
P 4.128362208583628 0.39478511420140583 11.943531801758384 -0.3300784809561993 -0.7655649924362685 0.542615124239472
P 1.7587740779176717 3.8064517399871773 5.078570297395774 0.23009033589631986 -0.35833413336778286 -0.17048008043285479
Ni 7.848945642573625 0.7074786716834293 3.612238522491066 -0.5587179433386055 -3.3172424408973837 2.1503231027780645
Ni 6.351360940686728 4.964446380761192 10.981847846505001 0.6452964998607983 0.03119030955987532 0.9868310451727391
Ni 6.504764543334587 7.649177448569315 9.607789729437377 0.8204883839470257 -0.5949946662824528 0.9117021252483848
Ni 6.654340990263472 1.6734378399106904 13.471464915044134 -1.6680908505020238 1.4772316921921849 2.280797075131627
Ni 9.218852695865086 3.6362179867019755 6.595764971805649 1.4485597781787893 1.2413139509808107 -0.717152662571152
Ni 3.789024179676629 2.117975978458761 5.843902495213492 0.6290131893197425 0.06918838607020342 -0.8102291681128628
Ni 6.658942911652384 5.908054959589644 13.40927550151603 1.3057167427369125 -0.6735562660374399 0.4661952534178358
Ni 1.5958492586030963 2.1071946007626265 6.640835797838565 0.8604980915707438 -0.4786741026111369 -0.24614867491076317
Ni 1.8167414852709152 7.232577546769756 7.7763687683526586 0.431268873854296 -0.8563362468835702 0.46609446617391337
Ni 6.70378597524739 8.337234705157872 13.238267916013504 0.5642000494990993 0.5510411435196382 0.7556898994144018
Ni 3.0508218486433663 4.20062077546309 9.808484841887768 -0.9303889030246106 0.3576977853353646 -1.0493736437916508
Ni 3.200136928840224 9.339566787957219 6.963218593457893 0.7564874556150326 0.3832735769219399 0.8431786264556898
Ni 8.542594280322342 1.6748566878845543 7.507554951367596 -0.337597929261696 -1.6114409632184634 1.7172829959559588
Ni 3.544916986489081 3.6709050858524837 7.608435042309299 0.8406005813158683 -0.01302546572539047 -0.09251600505255034
Ni 7.928354456479267 4.361398653764582 1.773330337986375 -0.6841204147065315 1.848492303813649 -0.5904954928605185
Ni 2.7435852551450317 7.489799749189398 11.963286459436592 -0.08070589979149971 1.2822600543758693 -0.484736763865449
Ni 3.3925961888739073 5.251613743050272 12.122640822501149 0.9924180523422135 -0.37024116921801403 0.14906407665092394
Ni 1.3610392534548126 2.18704213739703 13.373084610203751 0.7069466685724276 -1.1045240637115494 0.5123280432201563
Ni 6.309215555147292 2.9125215092962398 6.771773062963431 -1.454567932046082 0.3078546365609924 0.9008780380496872
Ni 1.8391350134899864 6.06179460517868 3.8098056352306586 0.5799097469248722 -0.23179034930656206 1.188607107505398
Ni 1.5632064206780893 4.4595605306931985 13.494307433970723 0.14776824065763583 0.9925625483398777 0.08853413758666688
Ni 0.5206117262625198 5.6082299798495185 1.9102099624544093 0.8676591280955572 -1.5061848848914254 -0.8194884819276014
Ni 7.6562716884386335 3.915684364922388 8.538326534969379 0.28248273345510705 1.0944538239597408 0.7458490020645799
Ni 2.2995791845871594 1.586673419403702 3.6572692100615622 0.3203838793762547 -0.622339891064625 0.1671078215265122
P 1.9575154740461596 7.264230924923516 1.9182983293580465 -0.4563777531067817 0.8766014248905096 -0.4909912294155931
P 7.305293505430266 0.08208782290892495 8.404903485532408 -0.5428722345556005 -0.5119300364507893 0.7650775112768888
P 7.2147019292043035 6.406985381977868 3.3115790361136805 2.304086641787187 -0.33329467390065176 1.0927970050826081
P 6.893342197650339 2.7452374662724908 11.601188055433068 0.7704698859370537 0.7941677437746258 0.11222145390127769
P 5.160863479879864 4.181550338551226 5.355308193624342 0.14251830511260616 -0.8659313467711732 0.7339363097873941
P 8.904671214915734 5.477285247103737 13.464633908812072 -0.238388314239054 1.15610399267137 0.11900788069549183
P 2.0074925270202764 6.023579055145802 10.426323125559295 2.8350140452760852 1.4088447189773543 0.7229957516154903
P 5.140644896252307 4.179758109531608 9.524752585219623 -0.014280935399046374 -0.7595956622267112 -2.1375573184719636
