# total energy = -340888.18634195824 ev
CRYSTAL
PRIMVEC
9.11378073503421 0.00000000000000 0.00000000000000

0.00000000000000 9.11378073503421 0.00000000000000

0.00000000000000 0.00000000000000 13.33893934079576

PRIMCOORD
 96 1
Ni 1.574086673278193 6.575911923132218 10.546392558879102 -0.09209511546504785 0.6138763336783041 1.6849374897457177
Ni 4.735292726564092 5.672408136882576 11.66907821959827 -0.6037698413719215 -0.46669559009302203 0.23541689031555585
Ni 1.4219685557800814 2.8433173744569413 8.369784714555577 1.3329100153222526 0.9285446507270203 -0.6840918754614411
Ni 3.1702013550635417 0.8788710591527698 12.897754418395907 0.8032221406674103 -0.6859944918007927 -0.307975735519889
Ni 4.786411923798943 5.641521533311723 7.369470701757978 -0.14500944696557608 0.7080108481708839 0.10447317741442654
Ni 8.069314293839517 5.203759293914036 6.431782945997107 -0.0353333851939714 0.5103061276941212 0.5459187346914082
Ni 4.3525868377629 3.26451076012438 6.895177694259657 0.22264750646502945 -0.0852436397608532 1.5073832760749009
Ni 2.8961043936019335 6.981857953304219 12.89568650150295 -0.8668870258162232 -0.14056503804097725 -0.16386771732265973
Ni 5.050848277475039 8.534891792634738 12.799939853189494 0.9956635558627046 -0.43351730356884044 0.08807159612795154
Ni 5.099834849972334 0.6616923937315999 1.7174282197409751 1.4472788545838364 1.1483631723836867 0.5137640043357344
Ni 2.5667596921443065 1.6416653588721357 6.372505092073961 -0.6962429090016784 0.2661012067732901 -1.0030156253524016
Ni 3.023615302589776 4.757630603622858 1.0710724965579237 0.20364885387533957 1.1543674695962376 -0.3494345168853079
Ni 0.22672717370124726 0.9384642498960836 7.515091604831285 -0.9976523041579591 0.23837674427482813 -0.8689068844597294
Ni 7.70629417184654 5.30967965587935 1.8455889413091071 1.0410152445246266 0.2039771837490358 -0.8952023278211486
Ni 5.275466522269147 8.247917058719421 3.731634867543376 1.6881878783622153 -0.45752060846197334 0.7123495847555539
Ni 1.0804751843431253 8.732159580858728 0.7679827752026607 -0.1861069883368343 -0.48908655619371255 -0.6344742124343138
Ni 6.198856578507457 2.054182425094472 4.119784417693896 1.73699615811417 -0.6710743801558507 -0.7178147216351831
Ni 5.20665747624969 1.1126286034632102 6.1812642471788015 0.9339917898845205 -0.8434953863651603 0.4008532376769161
Ni 3.6837082277682085 0.5883118751977916 4.0602131000248125 -1.6356201315678285 0.7994585598599199 0.019543469349566342
Ni 6.890319137646018 6.268303589191995 12.804794764290762 -0.22772852053236264 -0.3758852548776688 1.5832205349201895
Ni 5.367233182450591 4.211778922398582 0.7032594371740022 0.9871416344346227 0.74023448409128 -0.4588568107748936
Ni 0.30905924786423566 5.546091133196528 13.246420335424562 1.2042581837790938 1.158952517863759 -1.0117869437871283
Ni 5.283313487649644 1.2383532113888256 10.45279311735269 -0.7851935653004736 -1.3484873009352194 1.0020509474462873
Ni 3.959573262730184 2.9526736318327633 11.40579384783169 0.025435666464285227 1.4278611121788571 0.8283824419831217
P 4.685276296821737 6.730618354414372 9.680375576349622 0.026637142971554124 -1.3550497846440857 -1.094164060633464
P 2.402957707494282 4.741799966147918 12.116145629325208 0.2519483123116758 1.4162528385159674 -0.5205704857346067
P 0.12211008240888481 1.9058647542440577 0.9537744904799359 0.36374836240481867 1.1421824974942716 0.10451740038880065
P 6.510775730827443 4.2043056220362045 7.680547740720056 -0.4194654534614647 -0.2544823915874391 -0.6872142231405068
P 4.130310834667732 2.356030849487106 0.9046293381944637 -0.45899667878686756 1.0314296577187205 -0.2386829626613373
P 1.7706071314659455 8.810647462225557 11.852008207663609 0.510965615654991 -1.4702606601909904 -0.8290678980859205
P 2.5336857811503184 5.119110496638711 3.140933358985809 0.5161774988732337 -2.2826130452944433 -1.0007278577594894
P 6.912638787142925 0.43817235953952444 11.75938211794049 -0.2627909114531345 -1.4588184797923198 0.504251436859609
Ni 8.072412979355626 3.7759761459007875 13.371887023349863 -0.7155524079635677 -1.4358783260563788 -1.2238602742807374
Ni 1.192629372464374 6.452556898248331 1.9326392198594164 0.715139231685549 0.6906206777188945 -0.3035254130580192
Ni 4.237124347164159 3.471967755427808 2.833631248084825 1.0038386354743292 0.24260338076166604 -0.22957251571963688
Ni 1.006361917822567 4.19973050400948 6.00991240640659 -0.0985087323008755 -1.4054513770250894 -0.12613060778320215
Ni 0.7129200449595152 3.9043072951723055 1.7866045511318993 0.117686590780907 -0.5537472295968915 0.8292337342398234
Ni 7.030689591525709 2.407232070750325 1.8378394933845583 0.8119577207681951 0.2502380144887884 0.3449109179833415
Ni 1.1805171576087636 8.936609028455345 4.950213908448967 0.22012396871222734 0.19489964692779982 0.5120282525915504
Ni 2.1777561807206713 1.4434770787742426 1.9469114007953725 0.7677959386493164 0.5373939850498487 -1.111185792002441
Ni 1.332070220689232 8.762335309517061 9.25408940989865 -0.5540228518557814 -0.41861081877065326 0.3901533347609087
Ni 3.616858644648644 8.25368608204794 10.65763901441975 -0.18346260873545178 0.6334115754977543 0.3991357407651771
Ni 6.584770518195914 7.636008693316468 6.205008380635025 -0.7209846347227326 -1.610916458173561 -1.1731259811506636
Ni 6.188138772134097 1.917740010795495 8.494663563610914 -0.32846768482565364 1.2044361041178548 -0.5000690233471452
Ni 0.8269316216342426 4.065575648723866 10.72988304447162 2.159027829640914 -2.409567434530521 -0.004916720575327016
Ni 3.5077575731388544 4.743823225514318 5.168932802847262 0.00961695426447376 0.23957642100988416 -0.5366391091616951
Ni 5.623084354490881 4.129098701804078 9.858610144479965 -0.4398828407755521 -0.3475900074774013 -0.9481585683032058
Ni 7.8666238059623375 0.1843480923780061 5.206748614058987 0.25104225555763865 0.9775539907461874 -0.5894269423866881
Ni 0.5200605925712349 1.5352893078603354 12.145157528158816 -0.1436732446526558 0.07488235113118717 -0.237260628392514
Ni 6.496512663672416 7.556919302408278 1.7862172154423857 -1.7913130263891797 0.2612960720751629 0.17904776749720774
Ni 7.167186688510264 6.082537392501323 4.0631741674488815 0.19309061874351907 1.0761473123410692 1.11323470411167
Ni 7.802344309064957 0.2285125633853812 0.5843100139915475 -0.7923430318610613 0.629403997000258 -0.18139672734535855
Ni 3.91628280331397 8.249174760487724 6.19185537199724 -0.5926601046120051 -0.6063810537425234 -0.05751480638701708
Ni 2.799735274050976 6.983626026804587 4.002989492323228 1.0872750468231147 1.6226699991650635 0.6088153742156289
Ni 2.2274080592258367 2.7236260895068067 3.7923007503021187 -1.2833941679803123 1.1085792076175296 2.1360956463247724
Ni 2.2107480676862914 2.9225708134218675 13.252689705326121 -1.1646616524333941 0.36516041226099694 -0.21186918490260287
P 6.615329025653296 4.169737050969741 3.1631965030409517 -1.5857196471929593 -1.0544281754964229 -0.1887212860312298
P 4.0065365758610785 2.656329931121686 9.116684580333493 -0.41960532147343865 -0.9182952050848701 0.4621100276048687
P 8.686244352534752 7.111948062295175 5.444568170529808 0.1466158722207475 0.062001381403460974 -0.646363507672732
P 4.7949879916538185 6.583130037628564 0.5603052264007335 0.5137251806779991 -0.7138485378985835 0.13010630460149852
P 8.329184643269818 7.261459638447384 0.9778950230885575 2.68264070174627 -1.0355267106062294 -1.7492649481791938
P 1.893971270130761 8.794434045951569 7.073559905641062 1.4338435550145372 -1.65493014475035 0.8129121142616645
P 1.8774297577433023 8.688294953243942 2.881678189768265 -0.5594440228713526 -0.8239406041616842 0.47175269290095534
P 4.84445759454039 6.62329447018588 5.085016753558686 0.5401517503006439 -1.0212655727015252 0.6796029864521522
Ni 6.741600460434696 6.099188270259939 9.063836498856272 0.8120633931081239 -0.4695145475990559 -1.697153315085619
Ni 6.3931350465864965 7.4874996330665295 10.90202231591616 0.33101539094817184 1.5720894580040343 -0.2835070609545634
Ni 8.66983954686124 7.85612473033129 3.1390395153086113 0.3354891104488093 0.7133764833581714 0.31023316409549795
Ni 0.8161764487590691 5.667741881046553 4.2053008469137305 -2.061016091581115 -0.12594368858337662 0.06263721521524696
Ni 3.7096460482942177 8.119932233123235 1.808360057589256 -1.505634411704594 -1.5197435974124667 -0.4052477672001859
Ni 1.93810931117344 6.451763999307445 6.318442143598808 -0.6824761942348891 0.8931289902318876 -0.4911763488432057
Ni 4.992365145248965 5.885479221238716 2.92382851519017 -0.6103135560277102 -0.4758669721796449 -0.6249156222116012
Ni 7.899779740984693 0.23449758332193443 9.701157731003683 0.19032565440387222 -0.655183162846891 -0.8094434389867736
Ni 6.149195586221364 4.2560354425933475 5.292810958756514 -1.152163005745751 -0.0035648345331228933 0.6566060113363466
Ni 2.5046766164509906 1.388284021463802 10.337958566260008 0.14188144285955567 0.4122733065883997 0.4835995649372123
Ni 5.685112747498619 8.290642463717992 8.181078412136973 -1.0190112294497096 -1.319070024115367 2.1193274257274983
Ni 3.8342132060417575 0.4726698431147357 8.257150230179331 -1.2953325712891113 1.333234488541207 0.7160697139196184
Ni 8.470111037786221 3.51500302897799 4.10460541555543 -0.04459706988408449 1.0621769662039062 -0.0316541365701713
Ni -0.499221932475409 7.469618394882401 7.676973315839415 0.11955449722758121 0.6027403716661426 0.09311790030260739
Ni 7.550020170244473 2.42962463049467 6.5394422173638125 0.3765267451164096 0.6582672010888534 -0.6685228173785905
Ni 7.478777744716779 2.308985512327843 10.877585535109278 0.46392908309147846 1.0117411781508576 0.14143741334360158
Ni -0.07429189662678122 1.3509722023374904 3.162422743040018 0.5786627618916486 -0.36891370865584205 0.0040073213871801945
Ni 2.837466327100055 7.03232095831213 8.370224910174482 0.9275095245942866 0.5595543231969718 0.6965820375086519
Ni 6.008469694885413 1.9406156009291156 13.095370353051415 -0.35842592175064075 0.6265500724912305 -1.4632564609590155
Ni 8.216602107444873 3.655637782504642 8.873809609580952 0.07154634477941871 -0.0180915673943882 0.010122176035666439
Ni 8.816635216296389 8.252802045297756 11.813004870796739 -0.5611633195553045 -1.2182614400367213 0.014885144641948558
Ni 2.8623469490382165 4.817070682846553 9.637130685838056 2.1116933062210084 -0.7905026362182128 -0.06545745827286145
Ni 0.865098313411763 5.413859285687085 8.408867341316535 -1.3219062080125814 0.33256499482347884 0.18586016243335088
Ni 8.230300120182255 5.176755161019249 11.059474729392443 -2.6666795504313234 1.213210250766059 0.2808896779363743
P 7.1256734163753475 0.3680017146491668 7.36256154443515 1.565336455550917 0.6818462739603741 -0.6511210769623753
P 2.5263583012828166 4.528765336915496 7.373085227274708 2.0711840332530524 1.005815813805358 0.2178372295605797
P 7.049974351973016 0.39488645701377517 2.859762280766545 -0.4810444026155264 -0.4312308215275089 0.5772077746126769
P 0.4455399400431176 2.197150306539135 5.398295681993386 0.300607725190592 -1.6943628968246756 0.08068455963526104
P 8.709812590019032 6.896151957441045 9.82538312196636 -0.6930298013810193 0.9299055356302889 -0.21488843134490088
P 0.39260527764706393 1.892932299104772 9.884540673981231 -1.3244433726121383 -0.41735072111130705 0.2640798054678871
P 4.347009203833905 2.5339045118926324 4.785877856236461 -2.5709648359358175 0.6458932529045328 1.3914216384049005
P 6.410405661448333 4.0018338649013385 11.830852387991428 -0.20798296247431922 0.4232287771586388 1.6803210740196288
