# total energy = -340867.110254254 ev
CRYSTAL
PRIMVEC
9.32549152203320 0.00000000000000 0.00000000000000
0.00000000000000 9.32549152203320 0.00000000000000
0.00000000000000 0.00000000000000 13.64879947762317
PRIMCOORD
 96 1
Ni 0.5048671890973 8.9937557921834 5.071757145184621 0.14478627521117646 -0.7533543093026897 -0.2696737546158968
Ni 2.2296131120774767 1.3051025356155175 5.6800841346454725 -0.6756789688073976 -0.3179855543474072 -2.72474560133612
Ni 6.530371259149796 5.5710113209472505 9.229495824395462 -0.09309810280826547 0.12226983927621524 -0.1942411874081945
Ni 3.8355280270524066 2.30875855844953 0.49249132932584333 0.08758257230667496 -0.10498559827447079 -0.055913266227852094
Ni 1.3927528302368126 5.123117289628368 10.460658402994987 -0.05788453102160999 0.01976921220712724 -0.565074995904885
Ni 2.635374572793209 5.872942759286826 12.344438460391927 0.38489722856829195 0.6080877520209851 0.13215727359325627
Ni 5.782485491723621 3.4290951309485753 10.294593780535344 0.4386751936206962 -0.9144699178015089 -0.43044792061489745
Ni 6.702650389145945 1.543126380696264 3.7364819818164476 -0.49525823222206317 1.3994239398840866 -0.017660907614872812
Ni 3.0210209483405053 8.915878612655531 4.284358337718026 -1.2599153681320818 -0.2284000926780905 -2.6738259316681177
Ni 1.8293443658560458 4.63793061779554 7.883069238289962 2.077656528351273 -0.28255780966741656 0.48365921453055416
Ni 3.5482003084039624 2.01953776502631 3.1306523589796593 -1.5283927884470323 -1.6938993269246956 0.29474072488685366
Ni 8.560670641368677 0.8597814074018599 1.6957268585262404 1.2541589252642789 0.298744189619292 0.6900627483328955
Ni 1.2618602315237049 6.779371207727645 6.787971175990201 -1.392824432289698 -0.10900783205998646 0.3275762833596359
Ni 3.446449870632609 7.988094788676594 10.896027366678391 -0.935326449535544 -1.1646215432240783 0.8975615720819444
Ni 4.041024557776405 4.170984607339376 4.352055810723009 1.998064944669875 -0.9128521796924279 -0.7274247339211214
Ni 7.032614254938614 8.375289195813115 1.8722742659825624 -0.712615951043063 0.4170858974856946 -0.7459173934086702
Ni 6.352384928354815 1.5571612454058126 1.2432101810701324 -0.914488172633954 -0.6868295861075784 -0.34090308237552897
Ni 0.41561570758522115 1.0232955079358796 9.55136143336835 0.6595910621065996 0.5688300920719429 0.6272470985582552
Ni 8.593076724335909 2.7012964722163324 0.025970561282141154 -3.133988091517996 0.3517744778723942 0.35128751093364663
Ni 3.6084150070282526 3.1729052284231773 8.884044182317332 -0.49375542242429155 -0.12189677220751266 1.0163627360832688
Ni 2.7289465545178686 5.3089743352504986 5.622473113248362 -1.6808244960186083 0.023715084228752705 1.8895777610000488
Ni 1.3371822263802002 1.9360373141231209 0.7683002008718057 1.415064217524505 0.3392118107160351 1.4017574731132698
Ni 6.97572875678031 6.088100499206234 1.6578103426308555 -0.8481809647662877 -2.1569897161649623 0.8869267180759177
Ni 7.123146126433829 3.9383229198719123 4.145386133168139 0.04084145949639418 0.4699444360476229 0.8341604821174796
P 4.577044483783152 1.015247608770205 12.539247977855366 -1.2128718935900338 -0.4506380224095271 -0.7903375713952582
P 1.5412519569044902 2.9434142080661765 9.880830115562292 0.7518743823230535 -0.6432928391672083 -0.4433425171893784
P 7.146571761085249 2.159802482698286 8.898443673744586 -0.08942116817731051 1.8787238490046807 1.4559252174049249
P 1.429719078548209 1.2391153577518847 3.073600867072631 -0.2630472504383147 0.017414338821705493 0.1516884016476484
P 1.7743892444385234 7.152866467848668 4.822393502438217 0.35457955142135705 0.6389751856284608 -1.5117999170853575
P 5.569192850104485 5.22698461397053 5.598109334151906 0.2337965811033135 0.27198414791662834 0.12715416395171006
P 7.464477766366656 3.299489450062656 2.0348586150138965 -0.033357749524839324 -0.5768673605541227 -0.3081135466493339
P 0.2788890813888619 0.932717008983157 12.817069290467323 -2.3449049613551294 -1.360483296954831 0.3254749207459169
Ni 4.887480770371969 5.0651873364219115 11.89294945209927 0.20467626669858943 0.1539496868779994 -2.9788207301828113
Ni 0.8427493297237737 8.281913049409985 2.744855843019191 0.12374848070427076 0.3832283255063013 0.127831906745025
Ni 3.2286063891608086 2.9086954032066084 11.352744245506713 0.20724274187418504 1.255780777138418 1.045483307598309
Ni 0.10780547940318734 3.3353552903768913 2.9122987731227346 -0.758841814779822 -0.24307312130923298 -1.944323489282361
Ni 8.030218033788243 7.2873587062813 4.931243436889558 0.9789295309374754 -1.366839578190162 0.27985917978933095
Ni 4.108522465263258 6.983366334319925 5.307458942881527 1.5186303097436298 0.7774769133825061 -0.5678492162159123
Ni 2.804473710187394 6.841376400720197 8.48766976134687 -0.18076860684305643 -0.19930934595972127 1.6287660847604724
Ni 5.983496461035465 0.48651089162602035 10.656955336352892 1.0152396782224193 0.7777193684106154 -0.08581442466265866
Ni 7.118324847327625 6.920671054956272 13.192438041830968 0.018865726556251378 -1.0299520447319293 -0.6752863613546692
Ni 3.1747236992659427 3.0664547429351376 6.449371905067273 1.8261525026658678 2.962864978184504 -0.7847032559276162
Ni 6.382468963938206 9.093081602164398 13.046914679501374 -0.5028252459360437 0.5375497939014225 -0.15437751844403735
Ni 8.624093309069437 6.949207058950438 10.085835192884169 0.8644493629090081 -1.2925447241313288 -0.05869417140709891
Ni 2.751663451815185 8.787615802545806 1.1713171694386875 0.32045175649971264 1.649853244448075 0.22499929452665765
Ni 4.540908204215377 7.156382178144681 1.3076110928293838 0.7929539259721827 0.25251652611031994 -0.7032879887739177
Ni 1.977498449338173 6.6487024208105705 0.930510597693935 -0.6248102069819885 -0.6928541950351035 0.5016492233500716
Ni 6.506264863618778 0.3620873863674071 8.057377595236808 0.7399190097333903 0.1927383776104229 0.10964649408524986
Ni 2.067461465851806 1.7156479734714485 7.840020904421378 -1.865264381065665 -0.6452584475340113 2.663268210756929
Ni 3.688185261330897 0.889127796607494 10.322013523196796 -0.8536479014181299 1.278988582713449 -0.15067153034735986
Ni 7.677994219781826 4.8936262692713655 7.064864602197772 0.4246814504447654 0.5775317336109989 -0.6104721930927616
Ni 3.055860984589591 6.237224433804503 3.167367751569669 -0.5603714197816284 1.47365040259883 1.0504023421664812
Ni 8.126886078691355 2.032602778619717 10.94357991294213 -1.5809682485509031 0.025738285306368576 -0.13302450668955798
Ni 0.37007466983832316 3.4216067612729826 6.72165201062912 0.7276633322944888 0.0059420765160478305 -2.609581776977067
Ni 7.51382826739186 0.12045084587903329 5.94689110924517 0.14134202541631785 -0.43321571316802165 -0.5299899792762937
Ni 9.036587774649151 3.563717926262228 8.818161449958515 -0.7966681415989764 -0.620240585333435 0.42304314351039407
P 2.31136037057841 8.846450328427895 9.13501833744602 -0.17337000038614012 1.0539283530418688 -0.31680156134163506
P 4.7074241804636845 7.038051016483907 12.629329428111067 -0.276782083525904 0.8504355651284192 1.304109803261109
P 7.07944687325845 8.235472101733205 9.517785933766847 1.4240489375216185 1.2126317525547696 -0.9954324136885049
P 7.830335448948064 9.163740851270212 3.7271592879625364 1.1812282985428237 -1.5597864722669652 0.11608325084952913
P 4.269060801459193 5.08059304838216 9.545246708590906 0.9920442139425624 0.7968648309908147 -0.14034083784531312
P 1.2911889022954863 7.3948816232919965 11.32204752513168 0.5398501598998252 -0.662555286941246 -1.5264801448053515
P 7.352944888010375 4.559382002879574 12.978820873107585 0.30855911882718473 -0.2308747794708282 -0.905238629011228
P 8.84216060233727 5.077245196933172 5.054737190645485 0.11584439536584566 -0.920818485727356 0.4370965362796666
Ni 0.6619010055870236 5.793303061865201 3.306107751381172 -0.15184960981586104 0.06222866692291864 0.02568352080903319
Ni 4.5139761847594455 8.755274998019086 8.719781244815755 -0.08666288870588301 -2.0567051229105866 0.7907972846404961
Ni 0.694443240730174 2.806711828147721 11.93288586945385 2.5602423073119907 1.7942988484903808 -0.8982040907619498
Ni 2.4192003543001523 4.431492212429904 1.7172780693858865 0.2306114985071125 -1.6971150056485163 1.24497597321343
Ni 1.6944791077633583 3.6505382521399015 4.408071240524236 0.5530262922704668 -0.43435059810341325 0.8257845993489585
Ni 0.058767382343278794 4.71814849569025 0.9333250310290457 -1.3757841889779596 1.4630952527908028 0.2847674157242257
Ni 5.326664792628581 4.340456764393616 0.18193567644580877 0.40627132336869387 -0.3987958409272551 2.626913069166663
Ni 5.864176797275546 7.33523577964929 10.784940246815873 -1.3927053902133304 -1.3492704589581472 1.7944117199191614
Ni 0.43926328893437316 8.68427070572772 7.938073784812442 -0.2400253356218447 -0.34927999358531464 -0.224206109201401
Ni 3.2258926711339124 8.668594554513932 6.631637703912229 -0.5363030659785152 0.13989655121904293 1.1793861031277624
Ni 9.069357551784936 2.1696315507407204 4.816265721972673 -0.3427013119265324 -1.1052198042269934 -0.595455150858639
Ni 2.2859763827117043 0.5643936664487896 12.517573670507902 1.73408129846022 -0.5009377991053438 -0.19614020420312026
Ni 7.5744253111677065 7.336522697476478 7.540716457037735 -0.06320105813851697 -0.01905341708702525 0.07030810149694344
Ni 5.952414597861426 7.510405812010862 3.929039393082307 -0.36354524525507714 0.15821668968446947 -0.9645676057888486
Ni 6.157799222687409 2.361456910923723 12.568142080723183 0.6470811025650469 1.1337832176869829 -0.4183850759130923
Ni 7.5540304612542295 2.393452672264894 6.735655168667564 -0.45472016289870076 0.1146981975765444 0.6508392840558984
Ni 5.066492905232101 0.28822389838172463 4.965787855058051 0.24505081386089408 0.423355018323858 0.8848798628492179
Ni 8.779539926905628 8.86956822185977 11.300059881269771 -0.6742718040472258 1.0258233672755366 0.38260946097537973
Ni 4.308265167730916 1.3803126245739967 7.546229687613341 1.6094380738558218 -0.09533444833795193 -1.025202702972402
Ni 8.407089121832758 4.572139275253436 10.687064550763337 -1.7753860707462779 0.2872400456344344 2.2790512960851137
Ni 4.676006599595599 6.137227188435405 7.428044936169138 1.3988117602213845 -0.5605735084901056 0.43995123211964227
Ni 5.578826082825391 3.7272217687555957 7.669997610819409 0.35675393336485656 -0.14869538045759553 -0.46240030515177777
Ni 5.227413586579592 3.2774533136449393 2.5003367931077465 1.9408607275447411 0.08972610101223902 -0.7937766789837942
Ni 0.2777634945646476 7.4836976043509615 13.065845427249137 -1.0396659295855837 0.540773700155359 2.1559162805951257
P 1.7368821176200482 4.212725507299469 13.436205457127402 0.7073505888790657 -0.9580241482433759 -1.7475970735584678
P 0.2647861405913532 1.1004173226521377 6.669458167245151 -0.8329273810413268 0.6132759810901438 0.6130348116136152
P 0.2688203482148421 5.813268939169615 8.551764796984878 -1.5033523005386367 0.521448774574502 -0.4827066208092977
P 5.482372524226811 8.2299607362559 6.778567350360229 -0.24521047936720994 -0.36117597369195215 -1.262871622546928
P 4.600339561553553 -0.0015004715825690372 2.3708234345876904 0.27755444291555426 0.10848744078014219 0.36770451883908933
P 5.692550451684492 2.572007858041459 5.559729341328904 -1.222214254036882 -0.6303316510208499 -0.23254805340819304
P 8.958104438173695 6.865893117877276 1.5943979329707487 0.43121873734265087 0.5540616755135167 -0.7366575653732991
P 4.428079082540406 5.133123542009328 2.136924254397996 1.2342362181984228 0.36556561811921556 -0.7112411821827235
