# total energy = -340896.1060575424 ev
CRYSTAL
PRIMVEC
9.00248258556197 0.00000000000000 0.00000000000000
0.00000000000000 9.00248258556197 0.00000000000000
0.00000000000000 0.00000000000000 13.17604324886123
PRIMCOORD
 96 1
Ni 6.122570541694573 2.1088225914815397 11.299643624959367 0.8426114410983102 -0.32916162556888473 -0.07635302213944269
Ni 4.549314653976245 0.5261852164459415 6.051111534038606 0.08889332069829851 -1.3287034334400731 -0.12425498802704407
Ni 2.838176739819675 1.7672863993286314 4.754838635366757 -0.2075844414843199 -0.9754806531569264 0.09518558146491349
Ni 3.2273360659408707 4.287801531359084 4.870498033033594 -0.07858551101438724 0.6600816285897728 -0.027887984659519714
Ni 5.036114908456617 4.251710577847011 2.71037839435646 0.6541125554905315 1.4547589650109656 0.3092003519556094
Ni 7.31404013669814 6.161335232595793 2.781357569679629 -0.3322857730201632 -0.12212997126424127 -1.8271079246006017
Ni 5.053723764797255 4.521109875389733 11.273462604504438 0.593937428662532 0.3163346490075455 0.3139959735720399
Ni 5.591514081810024 7.862750465337286 12.327954022342055 -0.5750236224771645 -0.5360881217542315 0.5259489764377007
Ni 1.929349094545476 6.302098053527388 0.5433322454193625 0.13419487284857534 -0.3089833508487969 -0.9295504662837153
Ni 2.792768216618155 1.6949784575454019 0.34884980917291536 -0.4646078543260579 -1.4524668265426792 0.2319703265278521
Ni 0.6718985026647133 0.3003543346221087 4.689486011788423 -0.2531986397790091 -1.0858637682978847 0.43297917167718336
Ni 8.509992968131991 2.10970483479513 1.2224948514487284 0.9201870227909443 1.181114655783095 0.25858458668127077
Ni 6.760252407764455 0.7947400811027986 4.688906251896635 -0.747780671869654 -0.24870229457055232 0.7375885618280007
Ni 0.7607124966465921 7.273979088274911 2.4360655417060078 -0.2692320390927879 0.372118588746385 0.6035201872549606
Ni 7.535285153787862 3.9194469429695915 3.699003146848334 0.6949612140757773 -0.7384671077782121 1.1965122212850878
Ni 7.53330460757368 3.7036394254860787 12.670359854332647 0.5872728721581627 0.10014086858765979 -0.4989112555936182
Ni 7.917710622780839 8.941040846683137 6.716606570693556 -0.07648929060699085 0.6070652242937415 0.8919231428492446
Ni 6.795452115480145 0.6719795250098389 0.45190933192443844 -0.3608252752207528 -0.7475415592756546 -1.2263100213728106
Ni 1.7426556064104395 6.536207618526502 9.020912674507985 1.1113416008540151 0.05655784179038646 0.5597294153222554
Ni 9.02949024011195 4.758271282055246 1.5703606892525068 0.2729416267338912 -0.2228655360131065 -0.481595647133306
Ni 6.248857370297057 2.1089036138266652 6.94038848743399 0.6624437010640462 -0.6067818887253679 0.9000293168961467
Ni 3.584077451529023 4.009930897509338 0.49028871656217055 -0.9364975870255097 1.5662931630372314 0.2844344578648392
Ni 6.24062910102541 5.773418249099857 4.86757312637456 -1.226340874610746 -0.300411807129702 -0.4280688788597596
Ni 5.25964655617544 3.0752751291056457 9.07687120729314 0.1914134881514123 -1.2704805452424377 -0.038372943351243596
P 0.3317117826822862 5.39524195198458 12.389433777823383 -0.29563906833140696 0.4251553047573904 0.32342266620257853
P 4.124010359446226 5.887047586897157 12.696514767587479 -1.0010281626087276 1.2785517522863465 -0.34709995521486026
P 2.392841921078042 8.35183735044676 1.3904415694182521 -0.21969459448429263 0.4677862520540395 0.20722500126237217
P 6.262009997655784 7.8919185095825135 5.765296209125151 -0.18411721160031516 -0.29605455860227076 0.03766049066525127
P 4.6878718666238655 0.9442704200252667 12.506884669565776 -0.23813711746019633 -0.24957569831444115 -0.09446824368291473
P 3.7990207306645294 6.162217475909383 7.853673261938378 0.2974434685299974 0.381908064032981 2.422108761530642
P 4.692130040984356 0.9257883228538312 3.8158220642987475 0.3392663181030544 1.2463432858746017 -0.639443383514131
P 0.2788329992601829 5.53188163579756 3.761655025589147 0.3758713709205978 0.11818692745609324 -0.16797608306407844
Ni 1.3596629810015834 1.0945758727161035 2.5935720803819544 0.5124941364843755 0.16631823574568128 -1.0984133228281212
Ni 2.0993519795846325 6.616122658268749 4.745075442779118 -2.5348832597219118 -1.547611013246696 -0.3344858659952756
Ni 5.9232645751683135 5.397672622338348 8.929733728296716 -0.09386429155032866 1.57933071294748 0.434607965529858
Ni 8.49236610682577 2.272820820498608 10.156292300477634 0.02026414956567478 0.47427931597755085 0.554186116906523
Ni 2.0811489593797408 5.150041328186046 7.029814650245707 0.6997748334143368 -0.027912153029235803 -0.6153331207294886
Ni 0.7252706221438037 -0.13031273890694767 9.02042473994067 -0.006670212931323996 1.1681598953946397 0.0785698272851034
Ni 1.4967527889541505 1.1215563136429383 11.32711560144663 -0.7154963579146517 -0.04767082371340177 0.49870865266450887
Ni 4.126323997523702 6.786269583032573 1.6831212874604051 0.5188113369516548 0.0973584207465162 -0.6736524252956722
Ni 5.479874292709696 7.79331431556462 8.010889920668431 -0.46389668719164623 0.22578913741780468 -0.12417245561556679
Ni 5.101202859040874 2.9862405742953695 4.947433250971777 1.128675207036456 -0.9396739278709623 -0.9144367505707285
Ni 0.6429744257031423 7.430955380714424 6.783132217779653 0.5988124973666461 -0.22541555612846986 -0.005761585074125561
Ni 4.8716485503343785 4.562269226713553 6.845771493044558 0.3192420524623276 0.4071462697744795 -0.08867014894389891
Ni 8.12044653525075 7.286384509561924 9.0811005737087 -0.4608761551977676 -0.9697851454340459 0.12416474230608295
Ni 4.400935732602839 0.23575431860516424 10.395647612199493 0.5041977008035381 -0.2727202547517045 0.06211579549413818
Ni 8.24479783005301 7.346016955574389 4.5902174345405005 -0.07174534816410223 0.2036524534197654 0.8806033469610511
Ni 7.234692253371772 6.331239090324241 6.948913838637765 0.23088172144936364 -0.43551582205610806 0.337212006677187
Ni 2.392148729903078 5.180586752298408 2.7023013667957136 -0.4101009815274292 -0.49399376368734277 -0.36325188238437445
Ni 2.472279829232327 5.354073598177966 11.361596911035543 -0.940655060837309 -0.18768950233260578 0.6532882598170233
Ni 1.0981948707983815 3.289192125202894 3.848366939839155 -1.0413435743983228 0.37729910450605986 -0.11847591945142177
Ni 3.599840798897354 2.532173347245752 2.5757975783579496 -0.3839839727254032 -0.5698392500627477 0.3901481925545861
Ni 1.274382461515461 3.115102112976289 8.211639885434485 -1.195830621837031 0.5518919215557077 -0.07422106339810443
Ni 3.696446441735481 2.56466330764113 7.093639552494283 -1.1266139536320532 0.4020508575294431 0.0693609070923257
Ni 4.040881433347328 6.898953660136742 5.8798356979326964 1.8396487373800898 0.7020510310430232 -0.055100026297937366
Ni 0.7180128205171056 7.3098179722688155 11.253105290167483 0.1791683522354721 -0.9248116660471493 0.5692975186266647
P 0.11440895280706555 5.632079269269589 7.932663746697913 0.3074777128375478 0.36890368135351304 0.8772735112568698
P 8.55198054787265 1.5879569421172353 8.116640285526403 -0.481559651689048 -0.441398248978814 -0.8838267389943553
P 1.8531610826790081 3.2389852786733786 10.31909499977996 -0.16397158989037566 0.4580790520686046 0.9615306187347376
P 4.175414536187042 6.006816617958424 3.7854512883525446 -0.15238002839803436 0.21308146004314912 0.0028400405519563993
P 6.918876154554856 4.000370260784513 10.257207431828165 0.6528455158526499 -0.18691688583263938 0.4935821300712209
P 6.279267757167544 7.588633866811693 10.199404290318983 -0.41601888967376094 -0.46817654551392274 -0.4774137478414745
P 2.3596587695077007 8.459678091808975 5.7913322896071335 0.7627987425450412 0.15851699453370766 -0.5993107771593034
P 6.879652337031258 3.9818341487163273 1.6311814629934802 0.26646527498092826 -0.14404631172135834 -0.7640444420266841
Ni 5.3121310308512655 2.5737378102952 0.6011029779904956 0.31372035131315007 0.8211383588261987 -0.6712710695476891
Ni 1.4886595569243792 1.0780113043793078 6.854006964302439 -0.5465831077482844 0.971908619534952 0.7527848099524649
Ni 6.865140334770979 0.5063131359314619 9.327386896931916 -0.5424181777373175 0.9430086486711501 -1.0601452804858582
Ni 2.7098373451406763 1.5772439875950686 9.361815992120635 0.8894589975794681 -0.762238756276513 -1.4837792635027154
Ni 6.442761847148274 1.9496136833096755 2.524622064680043 -0.6801431752263383 0.15817915157831466 1.3258225123478522
Ni 4.263755899822355 6.775187526715945 10.205688923555895 -0.8107873546091777 -0.018047601530330207 -0.023241229916127714
Ni 8.224956357980021 7.18865355637483 0.33637776951324333 0.017831114644149937 -0.6236544961109906 0.10676454455176451
Ni 7.752443043690136 3.9995600373332567 8.0835030466183 -0.13217707108759816 -1.3301861886331865 0.12085778942003701
Ni 2.9886352347179717 8.195734298838044 12.41789422692118 0.9092539208182083 0.03257639127412454 0.353155674490637
Ni 0.21524216156419207 4.675322405612184 10.112362885198797 -0.286777504175719 0.6715196952233854 0.2974396118752555
Ni 8.549351822897464 2.3237478656514625 5.924779693022163 -0.1538013342255932 0.3276912116709453 -0.3285296484118407
Ni 3.621572792356606 2.7205773071112183 11.472459785870942 -0.05438757361194504 -0.4216601471199383 -0.26340026290235924
Ni 1.2807112069180522 3.3145881291583836 12.616021768450002 -1.0818520760353303 0.7013110675532052 -0.33386083081676693
Ni 2.953264479829238 8.529456335927724 7.8721193491786465 1.1084995034195297 -1.0621031755431773 1.036481361210015
Ni 5.532754876628358 7.853865014821842 3.528399796206969 0.367406013762064 -0.0682645887043534 0.24807494539919858
Ni 3.0677940659057126 8.287712665521218 3.4938653719695876 0.23568942725065217 1.0644729613269344 0.06829055684628238
Ni 3.4625979487373275 4.511531233699325 9.386165007327445 -0.4620604053138559 -0.09272914950462094 -1.1542178313922506
Ni 7.344018404394623 5.966251430498858 11.401994652315182 0.05050469361777108 -0.40548250891881144 -0.3646845010658429
Ni 0.6576034602397145 0.12316656806686704 0.21941661283472041 0.14520125126140798 -0.4173157541083135 0.3545741521047184
Ni 4.468292308850614 0.4167843448159192 1.563706053972855 0.240193999989225 -1.343363606555409 0.33969029301435044
Ni 6.04318664843704 5.613246075269276 0.3819906490741359 0.5903507397525382 0.18102468871792052 0.5581677272620903
Ni 7.812876710671064 8.52952835579006 11.385629939096361 0.054839573547699104 1.250872541203523 0.6203210608623833
Ni -0.02626654404145029 4.790878274726917 5.913197098662316 -0.3730099902124027 -0.10094819498030357 -1.1970706648917189
Ni 7.878450795326074 8.915608832796481 2.5248066155772735 0.7987882732657727 -1.064761953322263 0.06381092380837397
P 8.409534262659001 1.6627405666681925 3.631383698103041 0.1912687350434319 1.5624791886077802 -0.33729582464024493
P 1.7260460256596855 3.219746972947437 1.6670329504632926 0.08417894594176471 -0.26274745980970876 -0.5326204749206053
P 4.6800487090778455 1.0351234763594739 8.291038182664487 0.7622228154369131 -0.13334589458471874 0.20664444616855376
P 8.31969848688026 1.5010289682802254 12.248555725112054 0.3082246183059015 0.38689728971745624 -0.1716620165560979
P 6.402952868243214 7.7340599738294085 1.4086112804368145 -0.8902668381927442 -0.75164349725917 -0.19725452031322158
P 1.706051511379238 3.182710758742232 6.016208008006762 0.15028432221127022 -0.043454471639209034 0.2059533336388001
P 6.840032410264825 3.990566557024312 6.0385809782407875 -0.006109455331847542 0.1998464494101139 -0.6984350315569907
P 2.3694804782334855 8.259129782657455 10.338108243436109 0.6209648650939693 0.5456515970729506 -1.0629030457366533
