# total energy = -381169.10829106695 ev
CRYSTAL
PRIMVEC
9.22302341518258 0.00000000000000 0.00000000000000

0.00000000000000 9.22302341518258 0.00000000000000

0.00000000000000 0.00000000000000 13.49882704561276

PRIMCOORD
 96 1
Ni 3.9882012522670682 5.560625257044298 6.370541351395902 0.8150942095146478 -0.24168318294024185 -0.4192263408674651
Ni 8.837131922982424 7.10180165917159 7.67593208735277 -0.34724882208789876 -0.9854629611806189 1.5137848087258705
Ni 2.4226760688541105 8.546025641270504 1.0402223624304312 -0.05388595138517816 0.3463329951418487 -2.2372035068113925
Ni 7.696492973004336 4.930987908252693 4.464129540774336 1.3970834646763681 -0.6813071136274523 0.2157934596576735
Ni 6.356387699971287 1.911517676272984 10.51426306570659 -1.4833632590112196 0.9457558723989841 1.4439613601748293
Ni 7.230490502080263 9.05201914085164 6.212564798270322 -0.628450117727421 -0.7618212091231203 0.5952353215383491
Ni 7.200303547099966 5.488510438531941 13.006713149781275 -0.4862876532923367 1.7091323418243662 -0.3401644044372916
Ni 3.9867347915759996 1.2755810026260346 6.393543571292285 0.09262501982658886 0.6246968213325758 -1.577436838358877
Ni 2.6446188994822406 1.1047060515353029 8.196379908915306 -1.0111994467147747 -0.5044033890564411 2.016695929507501
Ni 0.930649157435649 7.972196805948431 12.181664841242023 -1.9066241749593742 -0.9378918962698751 1.9449148430094567
Ni 5.635165730662007 4.524916642174929 10.273052417281532 0.02777125657599733 -1.5414694191253322 -0.04610270789533351
Ni 8.906018683369787 6.171705883128797 3.0506671080019685 1.7702654616902607 0.43278248228534494 -1.131467939290245
Ni 0.5733962755333238 1.9323617087372285 12.71989004005006 -0.1469981952608307 0.08518990370478231 -2.902689080025556
Ni 2.3235746844168075 2.1810420836635194 3.6100453105519277 1.7692627314573595 0.28067447660177475 0.6721272469003973
Ni 3.5329436033876163 3.7378607331622087 1.4647710332156583 -1.8253436336113276 -0.8367639811785976 1.6577789270530545
Ni 7.977675281737706 4.301433566670017 8.508242604370936 -1.4256203957737963 1.0940000242517738 1.0611436398433853
Ni 4.385575207453778 2.6058268638430317 9.184561362859233 -1.0225138432863292 0.7736068889041386 0.8592462214415137
Ni 3.539510395916175 1.0135180210158414 1.9359476201629355 1.0309478329862956 0.6050134839710355 1.1235432851265295
Ni 8.459550575613532 0.7208973188921377 11.055201677944263 0.6965951501347745 -1.7888054294759774 0.33196335668373794
Ni 9.190180028601365 4.339257184871727 0.37597192981800226 -1.3126749192223006 -0.5835080057990918 1.707126110027615
Ni 4.7254620589459595 2.3122949270257585 3.858652823594826 -0.741492267757781 0.2028626105286184 -0.2871819387029893
Ni 1.91295646789441 0.31553622560187244 11.075301412435115 0.1176976465245005 0.790247068563981 -0.7463225992668888
Ni 0.5583913390660323 4.930296181511624 6.628747264697887 -3.736836963737545 -1.9086772008336614 -0.730429067965084
Ni 1.1748286970333777 1.3520121960026683 1.1886733771803144 1.6460809218898362 -0.19998503187050717 2.1118372879980405
P 4.9886779184579355 4.749229789769125 3.102003377514902 -0.3497145100195719 -0.19556170599183093 0.8630429694797846
Ni 2.6145795128733718 4.978403470597242 4.164550067635467 0.5234058983008728 -1.8023998803309607 -0.39290364381253623
P 5.992899132073796 1.6904602558734239 6.977759375358265 1.3577903235037 0.21732455159021927 -0.25072086766247786
Ni 2.1830527027242295 6.098613424155728 11.051543826937484 1.643461739099434 0.5293533741335593 -1.5711260656495007
P 5.7177117884297 8.94438645994114 10.427546356841404 1.241374629015417 -0.6708545508355608 -0.00583126196979641
P 7.685277776775787 4.789774199819045 10.957618403128029 0.37267368991890654 0.08656338701354124 -1.1121358146205365
P 8.58533416620971 8.93109608348938 13.391740243791045 0.8234338397285949 0.4973012307940209 -1.1596672845425964
Ni 3.1735408347740455 7.97988880730913 12.053466663168349 1.467072749381312 -1.2509417038785617 0.13262290037576516
Ni 7.037323503880646 6.426122978494363 9.375299939046533 -0.18626562540188565 -0.6046170198635651 -0.15363215563758056
Ni 4.267428280079013 1.0631563319550283 11.21143692428699 -1.3982594872623404 -0.1957008026728565 0.33378858281793483
Ni 1.9638952251068085 6.13687052444851 7.300840033949409 2.4457348855900136 2.9852505449685554 1.7915151150976567
Ni 0.2874880897049639 2.8085765831622713 7.7655918629256275 0.857585031689007 -1.392208395972254 0.14523030472713055
Ni 1.5456311223397832 1.395637095806153 6.195043821070179 -0.6953995871647766 0.6917491348963829 -1.5580892870702006
Ni 3.7695049258103603 7.982766390551981 9.675621865554149 1.918072268895316 0.721741310383099 0.5269187965501376
Ni 3.590882635219644 7.000726547766433 4.323579890012115 2.0527268549891295 -0.8115237185545701 0.5528185471350351
Ni 7.326409943508644 7.87828798358076 11.63538148705168 -0.8044619266117822 -0.28323812356389283 0.9063375185023615
Ni 1.1130805566138577 6.688702449404555 4.822928201367372 0.7596342287741304 -0.9565735318397784 1.87245987037284
Ni 7.095843586175174 2.3790050539345544 3.5477207311815153 1.459482852849196 1.4366476001222355 -0.5906677567723246
Ni 5.4563128644909344 7.467900342638719 7.750445814203157 1.131925595652954 -0.6079684528343013 0.3286636028865436
Ni 5.421726527437431 4.466562574298259 0.7622035506595556 2.68478782999626 0.5053590681014909 -0.3152532430179087
Ni 4.528163146346351 9.093375176944415 -0.08172705330626603 0.8154695905761955 0.43716647028565353 1.4075195724080276
Ni 5.637489932512002 2.0472621319405713 1.1209348831831278 0.10775776170296925 0.6614463701477834 -1.2547680196031874
Ni 5.877694349104382 6.470541058294274 4.636334451812565 -0.8126460050844714 0.21674168250355577 -0.15633232817756304
Ni 7.021506019068179 3.249381754664966 12.581500421324622 0.33872227267412636 -0.46771477538615575 -0.4165451944908762
Ni 1.7115994250805244 7.78589173702023 9.228176117337183 -1.8254984140216368 0.2682622189803509 -0.8807797246379155
Ni 0.49066299039438127 3.333468057309442 2.698064474404277 -1.3437024779520665 1.064857855470179 -1.8904005140116602
Ni 9.114357554756873 7.030516912748518 10.409012691692334 -0.4296099980946343 -0.9747468603146954 -1.1657937091553083
Ni 2.0224337534477637 2.3780089674274136 10.280639276177588 0.08525289573223382 2.057946965737488 -0.43492318277743164
Ni 2.0355857845513086 6.396858325835493 0.28525980729639694 -0.40645412880346127 -1.06641980064066 -0.9822472824567988
Ni 4.981198046631165 0.45558229929659394 8.487251925837585 0.8589682851897787 -0.06159283311113263 -0.14704293245583708
Ni 8.706045094038043 2.817928728701539 10.471862983385959 0.9189282106831786 2.327096729529115 0.07358445825537005
Ni 8.91026127404835 6.645059103554641 0.6818747076725725 -0.2819222329659467 1.4076915792095175 -0.3073602134230771
P 2.7240752444731537 3.17713781382761 5.696221222038136 0.8387704700856652 0.5153431758973964 0.06750842726461923
Ni 2.0002431595942363 7.454314829444103 2.8073646779119166 -0.6562846234411858 -1.3673039194210903 0.3948628244214361
P 1.8522320830516734 5.189011205695037 2.056019392482518 -0.8340699792862023 -0.010633054233813945 -0.045147028850283544
Ni 4.031586353466982 5.615898835167402 12.5842673282889 -1.2191322726774487 -1.248865023855191 1.0785528364587682
P 3.179812490559747 1.9763094143532123 13.571045038099617 0.04887050044845777 -0.449426004379297 -0.5114456406152031
P 5.970459516593483 0.8236768449872904 2.7670434650237827 -1.7709079803702663 -0.3418014258200823 2.297189400446721
P 0.5216090001852126 1.2368074130332545 3.4403518287349435 -1.071880052424283 -0.45350968753036736 -0.12729274641210336
Ni 0.01473839109639926 8.57489370393116 2.1529007952321466 1.2543666703997107 0.47334806241253313 -0.2797241968733634
Ni 2.6480221950483047 3.8461666947673505 7.837270432439949 0.31227513422619124 -0.7555834557435246 -0.6215227944799683
Ni 4.019006149802721 6.212093501784073 1.7249340720437123 -0.31025193314857535 -0.05958351599058771 0.05935571625049777
Ni 5.86279916661334 3.9285098460243297 5.076166594366155 -3.2086842947803063 0.7601008839979039 -0.32755520031371327
Ni 4.614075607587252 3.2524991365113887 12.355867459108461 -0.6135382336125949 -0.7656079298590621 -0.30789860242505035
Ni 4.965841712979409 9.219158767540593 4.6097011276767255 1.7636165889151754 -0.1828874529582721 0.8654050419540579
Ni 7.363919978921069 7.958786530194885 3.545345802703842 -0.7712887822939234 0.2904109871632482 0.5292435880285724
Ni 0.8576295603459729 4.826989098488615 9.151813174332334 0.9567257411469265 0.6840131997047059 0.9417534361078104
Ni 0.16472042769985096 8.69078099061843 4.542099134423109 0.05264385144796095 0.10301484770134516 1.033338444705659
Ni 4.956895380461571 8.195357075640844 2.5577038956179488 -0.20524370916628526 -0.8071919239484356 -0.574116537281863
Ni 0.7391459926238871 3.503476044218032 4.898426947097044 -0.9338609207336109 -0.443601684388036 1.3260978774964258
Ni 6.751695697958001 5.8164073598455746 6.7533955011363895 -0.4478152082487514 -0.7757697008834123 0.8072857692138227
Ni 8.403188680751144 1.5003184092880877 5.219145589443013 0.5448005619265649 0.8607498025702338 0.5125126484271367
Ni 6.538966667520924 0.8781590877186106 12.493096821513547 0.1438125984439975 -0.7260687341138592 1.4322296735601978
Ni 3.895113278965468 5.669309362601225 8.993094167838008 -0.27212427303891845 -0.1588502095034103 0.06821316664112768
Ni 1.2399063488332482 8.518153665116987 6.993552880310377 -0.6862117500179215 0.23139285675782734 -0.7143265059762666
Ni 3.402779076764661 7.996019874910884 7.192701009064446 0.21589347557064756 0.31718979791898927 -0.4484968076968083
Ni 8.224059123883643 1.9913613882388965 0.861802978350429 -1.294066302982178 0.1276925529536833 0.4189427481887753
Ni 0.45233026131124326 5.145948910307624 11.800660829958316 -2.246056586326648 -0.6666932203690196 0.31339664942514417
Ni 7.387779939976379 3.373495978059362 6.486820616569778 2.1457683935278467 -1.3714984171184124 0.10765646023841459
Ni 2.766528820328426 8.907033215923358 4.781797207041025 -2.261788395239608 1.5847143458568966 0.2926753577173927
Ni 7.704332542736463 8.702401999868407 8.975464358963935 -0.5162019243532658 0.6899185094455472 0.34674745697144793
Ni 5.48457220761945 3.988062906918854 7.664174577359221 -0.6951332208772673 0.1050061670997611 0.3079176285884439
Ni 7.392594358094226 1.914238468121193 8.736899795899053 1.0131308594095325 -0.401586773408831 -3.5548825641165034
Ni 6.720946138561633 5.856490618734782 2.270948113956198 -0.2420397949487122 0.2868605508078285 -0.36746669179667035
P 3.19369314049722 4.181322135350613 10.707350745906561 0.8363790870353531 0.21136344891077793 -0.2893514355504823
Ni 1.9549212235193263 3.804506298908505 13.112652483629635 2.261682208679047 -0.21410784442513447 -0.9279427554769633
P 0.6465311604131785 0.8273512974358544 9.353904369794074 -0.49205875144815897 -0.08633790126629645 -1.0465091777596622
Ni 7.190232005749985 -0.08965147485196456 1.4559833366971044 -1.4370659186065766 -1.4066294564935904 -1.5912287499366466
P 8.35653862933338 6.598934764460091 5.737960013594303 0.5798940631955884 0.9516568112644513 -2.1594204370936425
P 5.485263934360519 7.059394198432389 13.090189810591287 0.4469045235090239 0.5900383507184419 1.0583028279604805
P 7.558747121299252 3.8306996848370245 1.832587043605284 -0.2573219179187633 0.5459467597158663 -0.2008592069453444
Ni 5.223754334143183 6.644902312159999 10.996481456045986 0.4622812630754103 1.6758219005976944 -1.1892110596379841
