# total energy = -340864.47282339045 ev
CRYSTAL
PRIMVEC
9.30326611645624 0.00000000000000 0.00000000000000

0.00000000000000 9.30326611645624 0.00000000000000

0.00000000000000 0.00000000000000 13.61627034998372

PRIMCOORD
 96 1
Ni 9.243427451321494 3.179949371493647 9.405765722737824 -1.3695366654063512 0.7652351199006756 0.683141852843346
Ni 5.862415893769158 0.6477064075729435 9.900703198362326 -1.025134825848944 -0.523902121211001 -0.7579175031933398
Ni 8.680058871876279 5.963616821954723 12.529623842510896 0.8026112465562887 0.04313205530278378 1.6581838758009573
Ni 5.82443996171791 9.216494496081818 5.112242383500073 -0.6578792216218154 -0.26678152066976635 1.389951481617277
Ni 3.172553274977052 7.662262958532175 4.857386852437285 2.052493913042717 1.6161257702886425 -3.1757464064017045
Ni 4.748489332241432 1.9813165725022732 8.090829073441338 0.7145147107276727 4.226927792826056 0.4192728778346844
Ni 9.237240779392518 1.8701518463679367 7.199997622978909 0.36320354564494217 -0.34556140708314675 0.7152755001530972
Ni 7.929815587111754 0.33209775816761233 8.740379388347097 0.42141717787119676 -0.1558996115155186 -0.2603596763038226
Ni 7.661974557284358 4.60328395559864 3.459485537083322 2.141314214411235 -0.6384249695519456 -0.9161285364508546
Ni 3.7753211861804834 6.585549461238892 11.511998178935666 -0.43895235854148273 0.07862639155465168 -0.1768006233342439
Ni 6.5626634267347095 4.883423903155519 5.562300903657836 -0.5392685763647422 -2.391939437036113 1.6665898404764652
Ni 7.608797088493341 0.40822731465182777 3.907475010869651 3.482608597142441 0.4915635569792953 1.8651219419505298
Ni 3.355715977138975 8.846010531829773 11.16312198043135 0.6396557566352532 1.8505299030689677 0.8469609763162574
Ni 1.2093036451606 8.243549628406274 1.6628871728279715 -0.44927482351341336 0.397178102818174 0.04127880414412891
Ni 3.6164865247618265 8.345234326426887 1.9755848302835635 0.6781235736931482 0.09206889021280273 -0.2292999787845406
Ni 4.256048853227063 3.216427477709459 6.067369636020165 0.8013516631175748 -1.0184170475091363 -1.2049590665008605
Ni 6.54773168471064 6.910745126317621 8.485768533181652 1.2255284060117797 0.2079873333496934 1.5065432966721088
Ni 5.504909985668874 4.362338667946687 2.923317846940271 -1.0511294501404929 -1.5506708831189422 0.14805517577043534
Ni 6.6265675612913055 2.190974976399119 12.404953565039275 -1.182884346089008 0.998879491696841 0.30386145624119926
Ni 0.45443756749155184 1.3817396815569452 11.415022794193924 -0.5365061831282567 -0.43987589879701666 -0.5453510351133962
Ni 2.523362066141154 4.431992220927504 10.249103069644441 1.4232346691504392 -1.748633485242782 0.9937473126765981
Ni 0.9659488115994673 5.789394558475124 10.777890478823196 -0.487432051309425 1.3082585353221596 0.25271013017836474
Ni 7.094140410131009 2.472249922415148 2.327592508143208 1.1073342794668348 0.6008308133482555 -0.6412526688087279
Ni 1.7769424237267184 0.11463298372098658 13.13829839733494 1.5910559718042083 0.39842843028550734 0.14919288891930435
P 7.450371770781263 6.80624153868125 6.601644111520288 2.569076617774169 -0.5067086401508498 0.8327808281611334
P 6.563314655358813 5.322370602332878 1.382296947193856 1.1211979248228046 0.57027608048985 -0.9929356154085803
P 2.6746331722541608 7.141531247433571 13.195432545180685 -0.37002673921436274 0.558495028694522 1.2748683898974884
P 0.8089561968604154 0.25711250340860603 9.2265076013407 -0.38561148102649717 -0.8466375315385677 0.5491351847461768
P 4.71308110162236 3.8656838094077672 11.66627051867918 0.6285251939397305 0.21611844709726005 0.19006314477110492
P 2.855070017460911 1.0769553822108076 1.587942852439623 -0.7907499763423285 -0.8921224033442442 -0.185296576620397
P 3.3781740614044606 4.978363733283639 8.48560479569902 1.4960598806422813 -0.1366721307444743 0.34764554330568515
P 4.817854483974432 5.468645854572411 4.541775412052137 -0.8543531550152706 1.0144917443128012 -0.083779653620817
Ni 1.57038200742739 6.333468164114782 5.4478288664396635 -2.425195370875765 -1.4212235522576815 -0.14816136233099644
Ni 2.3794963598108017 6.396972258230857 2.679423423947739 0.20892012957660794 0.3232601724827852 0.6362372178720075
Ni 2.043043742801154 2.783583721066548 2.9612388897217734 0.1451894241868661 -1.1381129554105882 -2.2947445384506544
Ni 5.950257331894559 3.0992621449673186 9.878263720628956 0.38793241585018995 0.562186104392864 0.4449337729358983
Ni 0.0945295560949352 3.6935919938555903 1.6899559557521047 -0.9291167211804062 0.12247655597038261 0.3866070121705471
Ni 1.7463067685957139 3.698048258297665 7.621149034839358 0.18378296818934797 -0.07737606408731836 -0.6543832926534149
Ni 0.46582569547389696 8.055763203013223 11.406022814608821 -0.36220647183899557 0.5165035147540846 0.009146185275642312
Ni 1.9403077757159184 2.705957269073502 0.39057157632579675 0.14698148309028236 -0.4541542630929017 1.0362633316619378
Ni 8.59621783815608 4.726059157774123 6.995045741381114 0.2356027810741168 0.13281984687791965 0.3588157009898917
Ni 1.173718652486415 5.402090289189111 0.35996290066636244 -1.6881850501487374 2.5992055759490653 -1.5874158039484598
Ni 7.36851233273155 0.05689505390803823 11.745503644720547 0.7402756217418606 -1.492203740120985 0.5919851900321675
Ni 7.410237481004417 6.545191893076639 10.914680120989368 -1.3733182439359704 2.9610464369185263 -2.881820978327295
Ni 8.621708787156674 6.562914614918292 1.190484068250637 -1.5963411314625473 0.48542916194678337 0.053587703418468996
Ni 4.430699066945357 5.972622383499457 1.571780288315999 -1.5037189398494362 -0.7224943864990396 -1.2467901436040334
Ni 8.11530410578833 8.953119033962555 6.2074396097986035 0.13148261612373485 -0.15415228980710874 0.4129932154735597
Ni 3.714989505790394 5.227030731764239 6.384518906284802 -1.872714666696123 2.2312056373567444 0.045041613620670815
Ni 3.474109341000852 0.3530505739848149 8.859316993273403 -0.8203222906828065 -1.8987725401254396 -1.1225025025668411
Ni 8.97403277606231 7.354306245460051 8.613462372122322 0.02198061803614924 -0.13522228567182518 0.0427517891452296
Ni 8.473954315613822 1.6296252056886213 0.20912718740489905 0.7532000431130125 -0.3582508296253572 0.3023105668143116
Ni 4.206332199409848 1.5793503559078903 13.23756052487389 0.08732674754212703 -0.6357957594592147 0.020290117707603767
Ni 1.9379447461370312 2.1202422445555036 9.41035409355793 -0.8835130644086784 -0.8316675404922967 -0.8610143690855301
Ni 6.214256112839748 2.499852712811045 4.621348107304644 -1.666635606112736 -0.45734654477795433 -0.09263864667334368
Ni 1.4148407021934812 2.5931644713789086 5.137214210254595 0.12022709781457358 0.569278235352955 0.5071796662499976
Ni 3.8849415701490906 2.0870481912583814 10.400597454142854 0.9516758374278449 0.5429660798209874 2.1941236449027826
P 2.1941659966572225 1.6367608107555758 6.905096183166832 -0.9725601370760217 1.64400527030773 2.062089527150952
P 6.3760957291953355 0.3899594214191402 0.3428876861423888 -0.29140780385887877 0.8374733485407964 0.26137371939063375
P 5.526837783769019 8.14403259137732 11.02694542349844 -0.0525921722744191 -1.4950085565596318 0.37344527797760846
P 0.05418222152534742 8.149242420370141 4.611476411689853 -0.03148032999646836 1.4807975551665722 0.7621459394523906
P 8.627607057837833 5.281008281436296 9.564885064097874 -0.24817033332648222 0.40350250237430507 -1.3809688185026927
P 6.771745028135921 3.067826408955274 6.953774592491905 0.24516445662062294 -0.024687989664983288 -0.6017600100307443
P 0.23112941163351283 4.590277989648702 4.631683105569154 0.5343184314483185 -0.2888045619080768 0.6502754411326285
P 4.169472659285633 1.9640218008993164 3.8542352101960407 0.5743564212068109 0.8416151386233118 1.5701655015084441
Ni 0.596784980801139 3.7360800099452645 12.258455964740943 1.3095014065903252 -0.20578724037458107 -1.5085870665750147
Ni 0.1102520757339869 1.3690593299190594 2.6592846439106648 0.531908279344929 0.1190374483818466 0.1624482112673138
Ni 7.605950289079406 4.303114076217573 11.315787646126543 -0.46371876685288527 -1.9444222196437548 -0.47225200113487703
Ni 1.4517374553819304 9.03911842540835 6.490426356769416 -0.3819515156764067 -1.6380657648948433 -0.5538207631473042
Ni 4.325181423308597 7.166166295956772 8.771301584072706 -1.2884314732939035 0.6405744117947807 -0.5440775677176114
Ni 5.166531592585094 5.480340060008084 10.163143682242698 0.8957481730222895 -1.1675993949054795 0.22999520507935226
Ni 3.077204101142353 4.70739680606055 13.019768275462 1.3239319801933584 -0.2385631492540214 -0.9523666928472824
Ni 0.22115258911225896 6.646597493115493 3.2649365675922657 -0.7419167568897095 -1.4094021341427212 0.539725975617135
Ni 5.550914636328704 4.674165539699193 7.970201995398788 0.12863717625513973 -0.4438747355437646 -0.5940140475367384
Ni 5.403560205226372 6.948674542038575 6.372523275028828 -1.8454406614715186 0.9527942673030043 -0.894013192609054
Ni 2.9052053182507627 4.469400653749177 4.0664445696461575 0.6729695402960345 1.146434073681774 0.9822079445784311
Ni 2.0959700234085887 7.7738742414373245 9.631019191528718 -1.1586162175702626 -0.25276103802095823 -0.6695574292906921
Ni 5.99958324853731 5.885357747869691 12.610504576971245 -0.5941636857407252 -0.04124615113398058 0.9096616977795883
Ni 4.54872030016489 2.4916100190831165 1.818602449137176 -0.786254145354504 -1.2419721533900998 0.8927075864237529
Ni 2.5814888724753526 0.5602510549889756 3.8331977346577046 -0.7532355243366382 -0.70743132151833 0.019692336222604793
Ni 7.951110763119914 9.04736111913628 1.7961769263028955 0.9050015732997575 -0.9155392396062877 -1.8253066097258048
Ni 6.104719458265667 7.46465228418123 1.5427094425360532 0.5550736617177989 1.1547425935474693 0.26572299749826495
Ni 1.6911011878039195 6.151263698356895 7.894278041094467 -0.37086697572747096 0.06658668678129823 0.12980882796573773
Ni 7.270269843152623 6.643490202251918 4.489270569397157 0.3227222977014442 3.4761481862290777 -1.3481018925713426
Ni 4.746758924754531 8.37796321642108 13.181897223392014 0.257623251209266 -0.7356584346848234 -0.06688184942421385
Ni 8.33691720657049 2.6191950098109005 5.2168287702043665 0.5964972189699083 0.742883748788669 -0.37658176672406113
Ni 3.942547393584007 0.9915700063248805 6.081353375232862 -0.5631482111958171 -1.748583605841453 -1.98999348051565
Ni 5.285706430795894 3.8029797961727323 0.23329986360498667 1.0451961153751934 1.370300025934937 -1.1526450875884922
Ni 5.887795203577047 0.5726867307295203 2.6342849073579666 -3.1763729842421102 -0.683843506896061 -1.161416406023219
P 5.436903110780432 0.25890338212488856 7.419560283921751 2.171737821008415 -3.002990128340164 0.24102909429601072
P 7.658457922714203 1.8559457590964386 10.480171079721966 0.8384614234856786 0.5233341645226729 -0.4401075551918485
P 2.3393527667678975 4.560340079472094 1.659809652415783 2.3452217212646 -1.793967947513523 2.2413370693637913
P 2.4571786314001995 2.112687992515912 12.039669196187388 -1.0907966868231278 -0.25901293246794105 -1.3348607112907205
P 9.174276274707843 8.546063930834112 13.472223316956464 -1.1469349245775926 -0.41861853208013716 0.2627716281794249
P 5.074661840256316 7.8411368550410785 3.704007000208205 0.28279872203362905 -0.31587056488693344 -1.529031964692928
P 3.1284744003913554 7.388095707784924 6.804921405227533 -0.6041871314149982 0.518755544013055 3.352322829540285
P 8.20642959683242 3.847337768740187 13.460282574970238 -1.088499406148519 -0.1877848902598895 0.670067279047575
