# total energy = -340867.1219351487 ev
CRYSTAL
PRIMVEC
9.31284941609078 0.00000000000000 0.00000000000000

0.00000000000000 9.31284941609078 0.00000000000000

0.00000000000000 0.00000000000000 13.63029647769051

PRIMCOORD
 96 1
Ni 8.87910349435422 6.233406779023088 9.756170893165864 -1.000545052324722 -0.18901979110825512 -0.07446557530874272
Ni 0.6239273874181537 8.40800369167923 10.068563909234948 0.5940032489034608 0.8070397146412875 -0.07135814002801259
Ni 0.9137404686917253 3.7223831797019793 1.2784102339075256 -0.3918985995867896 -1.2205150119575883 -0.8312777612530459
Ni 2.0577765290568246 4.717153820241545 3.9397283229192617 0.3589434848170076 -0.4531787865535098 0.7182597795924017
Ni 4.411561978131531 4.693750629553958 11.025205881524167 -0.3068069120227684 0.2869623664930155 -0.0744699461841169
Ni 4.863998830492982 2.352276767462534 10.082494069454006 0.9132381022769369 -0.02147282516179528 -1.1875298152808194
Ni 1.258165961756043 0.5179816181307719 5.128657905380892 0.8459304781692142 1.8444674989249716 0.11183990219214288
Ni 6.403645667112655 7.516726747164795 4.526867161124056 -0.7020872835975973 0.6232886281311395 1.137518002139067
Ni 7.535873965650142 0.034965093289511945 12.78307792563489 -0.46129138835831524 1.4418859657030394 -0.9744846077922443
Ni 6.328258150751329 3.601334762448796 6.313417193855294 -1.733929603373704 -0.2622990594183805 0.33718038210830314
Ni 7.041473413631602 3.110659350213397 9.095196990604368 0.05773617836920379 0.8856671346372037 -0.870460087879462
Ni 0.6191405827968168 3.663702915268043 9.355944668719978 -2.4227191414211307 3.161702269603813 -1.8174696301798892
Ni 7.092349510219856 5.311537124039603 11.051975667290769 -0.5227700644890867 2.3795518620050373 -0.976173565458893
Ni 1.7102675515370116 1.882052372636582 13.363333636805386 -0.4579610384335016 1.2528358355774811 1.6260474002777285
Ni 3.320263652961312 2.402147076309341 11.710782469783421 0.6622400696936723 -0.2636054369346299 0.6049440641856808
Ni 5.649146542585718 0.49914079239258796 5.8352796708450025 -0.26289786934464404 0.3494270606861401 -0.3666614222865556
Ni 3.1210897416061933 8.421032368070769 7.476217714593022 0.12803450967413432 -0.18587250372852504 0.6538150788547707
Ni 4.5853770004129135 3.6226053106105343 -0.056579285596244734 0.41110499731191136 -0.23305198962780507 0.033127121571271984
Ni 0.18434319859348625 5.741418255014132 5.656832437243284 0.34682253318375755 0.7542030304562302 -1.7186788478622208
Ni 0.7451927940637048 6.464952155093706 3.0090924827410985 -0.1438884459872554 0.7598304039453366 0.04646291944822966
Ni 4.601711738361989 2.046228595729086 7.593656471396342 0.8621225145480443 -0.5619166527815612 -0.12470081731521103
Ni 1.239065307517985 6.023131951114208 11.304395795421165 1.2317723300389625 0.28115373023103835 0.12407681057796695
Ni 6.481715284117843 3.2394001811187674 11.611131255444604 -1.8674109950950226 -1.2017030214574078 1.0077978772323934
Ni 1.192761820013536 1.9779467835041022 10.580545258460024 0.5443071672299142 -1.649553968040101 0.4091550726743921
P 4.137997025307077 0.992228232637571 13.235195347259939 -0.9415721733349397 0.5544524831940322 -1.0759519085008116
P 1.1462813883693879 2.77093591484035 4.635159768474817 -0.6662633319204525 0.019423655942250418 0.3279830318797513
P 0.9831575172656214 6.38518759948719 13.759238699102827 1.6806712582701957 0.2645382331615444 -0.736745497101415
P 4.284972415450925 4.348355668861077 4.02880200284385 0.4467163187576178 -0.4353337879522889 0.3979082961159792
P 4.9759485938258425 4.021809915470894 8.72760112808891 0.42148659765655155 -0.08743679075743006 -0.6053294725495574
P 0.20843367757106235 7.867364842102447 4.837923783295938 -1.4745245776736668 0.34726064916244065 -0.9092084122922535
P 0.4320268114896191 1.5002907348107828 1.438037130039868 -0.3635287901948449 -0.43629383787271314 0.9676806974965335
P 6.982038808391579 5.588966909389066 5.80585199784313 -0.09379847130939975 0.6321375938813372 -0.6785935713510313
Ni 3.199755380976684 0.4923656944119994 10.073606817216374 -0.17655174054823145 -0.9393710519185628 -1.8999665604335405
Ni 0.6019080861600041 8.642463989630157 7.058571805236221 0.7761455961655924 0.7310903556981667 1.3208787951893315
Ni 2.086702239472918 0.21042197093031415 12.035415363894963 -1.3258186556931102 -1.0772652279955963 -1.1800360780069354
Ni 6.301548898506205 5.5034935770648845 -0.2652364715542956 3.6544932712323064 -2.5512035941484905 1.2102401123941413
Ni 3.7602864769954443 6.517607005928412 3.573645798440705 0.273393112449013 -1.275569529729571 -1.0557507509625883
Ni 7.487810349598159 5.852259789261509 3.459014865748929 0.4317879795825596 -0.43418707594235545 0.11752718238490727
Ni 8.502286979590542 3.697247799015232 5.498175008739504 -0.2170147336592843 -1.88194621259672 -0.8987219109386329
Ni 9.134713273423934 1.6167106658834127 8.518662694077232 -0.3328575863632332 -0.8165332559540196 -0.5705625013820174
Ni 8.353104444125183 2.6461530449545676 12.76916173469002 1.3766596496043775 -1.633142102340981 0.5456040316644668
Ni 4.4477423982752935 6.592165678687989 5.899778603620206 0.5736701937730636 0.2807973753328841 0.49210708818759125
Ni 8.893985427787872 4.901129161281445 12.945237916819769 -0.22777531460989806 -0.5702745378279533 -0.09813257990837938
Ni 2.2057763326410367 4.289647465878768 12.761392024387332 0.004137676317457389 0.5337746431297065 1.1836636474571938
Ni 8.415528474041176 6.638124590762497 1.059146643701925 -1.9109361720711668 -1.1557862043206353 1.6100772501017173
Ni 5.407291842165256 7.320281500700827 1.9262604690130138 1.1110883471926285 0.44554595259860047 0.05651644702948976
Ni 2.2660211557838927 7.482138824278326 5.144046457825049 0.37884562305757336 0.580625284934658 0.6277443499096479
Ni 0.8666714649618409 6.257471182022183 7.873432163524238 0.9627218108293613 0.5295742318951138 0.646143678352442
Ni 4.069147129265164 2.2506735798773496 5.152878764250877 -0.19347011357012486 0.7239213487535532 -0.42544866762809314
Ni 6.72281564373222 5.954710446147357 8.530507707302677 -1.519556678212641 0.17074721805131238 0.708464904989167
Ni 1.0799087102832643 3.7661349464549763 7.079848872392579 0.6064311902541685 -0.26898135653456257 -1.601992930431686
Ni 5.856320191625133 7.932377844167724 7.60655011147074 -0.02265887505009646 1.341282555656664 -0.9946294581712354
Ni 2.8753422701123488 1.2566107158965814 3.0704557791038427 0.6682253407428298 1.3499494873030427 0.09001689277978045
Ni 8.053687021205727 7.399682855178489 6.569270969580801 -1.5110344996742429 -1.5663445851004574 0.23527625097263352
Ni 9.057044108945433 4.178256473513379 3.1688534839056337 0.5662867568247989 -0.7909962880251797 0.767327226543014
Ni 2.5464310529598695 5.395008193730346 1.2787007948106106 0.2673890723467782 1.3736483735818796 1.451720435294958
P 5.207773355380196 0.30109187325197834 9.12744645699197 0.077583295002118 -0.25844934665498714 -0.8632591992556486
P 1.8893443337620817 0.9463997004554727 8.220677587404394 0.2386276839433697 -0.39035773746223096 0.2369011881705662
P 5.7319284614165795 6.767712890968532 11.898008926569059 0.579259514935383 1.1981633837352657 -2.4663322501253915
P 7.227907346928376 8.544418310537873 0.9625183802971259 -0.977978736988432 -0.9409944464545986 1.4114880701374724
P 2.2108052713482778 5.63512139130219 6.32978732063231 1.6694962154899828 -0.4715575461710137 0.20446080825367366
P 8.270946486207997 8.210422277581406 8.560467144008593 -0.16637711400807476 -0.5992475280215357 -0.27392481658276696
P 2.1382116098243076 3.9926234452699796 10.696279763812557 1.685502361110252 1.2648457155541637 0.1587514791420169
P -0.10917174033958228 0.72763155384103 11.626520739173708 0.38138098788491737 -1.309436614790661 1.007107793143904
Ni 1.265104034602144 9.167159240935096 2.954094518982797 -1.9143847927414 -1.8084957088160531 -1.1490488855968015
Ni 4.735705016361589 2.594038339388418 2.6069580554412983 0.25654621609500333 0.3211809213562533 0.29361869546726854
Ni 3.8632214020531017 5.78807563079798 8.518021970034532 -1.0310797305784694 1.3268612380250115 0.24695574419309083
Ni 8.521052371248118 1.5133194112023203 3.6897351233575812 1.2765437207173822 0.49097014636967057 -0.9881996433854917
Ni 5.329380543600851 0.6579062499500788 1.3274954695450352 0.696156262825143 -0.631867370939086 1.2487454675581913
Ni 4.380438435243383 6.182577246682123 0.12779185154561506 -2.3361688670337117 -0.9277393812169056 1.9395813466116854
Ni 7.553922267899463 8.246416440736011 10.574260947645866 -1.1559556400189641 -0.7922962377835259 0.08888303628565337
Ni 3.9413096447572054 4.345748071012879 6.617467759380032 -0.1932816517084026 -1.1499634269912713 -0.47868207303093685
Ni 8.227297160799036 4.736971563887858 7.640271939357628 1.4156013209748974 -0.6828109518664887 -0.6324440693781624
Ni 5.391366869592326 0.3351936653967472 11.296435171704593 -0.042234740299495005 -0.1483228276095252 0.30180817325659637
Ni 2.685918912139603 2.9377569871788842 8.659190798541408 0.8920462986906702 0.02617922949852911 0.6102857881135684
Ni 5.123864581764934 8.3394890582178 13.211887147636823 3.189060864122424 0.891613839138942 1.1989812516508707
Ni 2.956503753137544 8.292189095821362 13.608133991509368 -1.8629776419140174 0.005669539580951526 3.132876346511056
Ni 5.717400416262327 4.826495985726205 2.2192576135162256 -1.4693744009312952 1.014053628334118 -1.0693225761097518
Ni 4.506459914107062 8.793248335202268 3.6823742471460936 0.23330884283361755 0.9963734374455355 0.5122923048862145
Ni 6.859137134096282 2.517598471038354 1.0649951131614572 0.18731155016789675 0.8002026371147961 0.10131200607762551
Ni 5.238440568644909 7.370328753687334 9.711749532536848 -0.96871762340148 0.34078995383643246 2.0813943981271508
Ni 7.494618042551849 1.2872686163118359 10.491634553400948 -0.04141738660452222 0.0968817382204138 -0.057021411690366314
Ni 3.6900210278359373 7.121377661979987 11.947595193507404 -2.4427179531405607 -0.6978989565478626 -5.141026443331075
Ni 0.37140016151899113 8.533457086725978 0.8471470760734504 0.4780992039442734 1.4981787267574973 -0.698945652644822
Ni 7.88891477574792 0.12868495380862327 5.5358492099363055 0.8955764233311158 0.7660432176242677 -0.15016630857616717
Ni 6.839347328998344 3.297149160606919 3.522409294578431 0.07987774746324953 -0.9385087039182677 1.0240205097388428
Ni 8.136850766864361 8.248428016218908 2.9275696611569377 -0.03208376790842216 0.8105816663562749 0.7558248823303693
Ni 8.72203297539806 7.2429289731038935 12.467468251363064 -0.1257930219381253 0.7272774097099798 -1.3321481974555638
P 7.7292366589435595 4.569116765259501 1.3503566523941748 0.21022547865159277 -0.988080344198808 0.3513520456229949
P 7.593166615514859 2.047262322018908 7.056172815215877 0.038243359751914785 -0.44378114738869373 -0.8348433671171169
P 3.050433152769457 3.2853963445911076 1.4331571969239525 -0.3696451875052279 -0.6702415998419102 -0.17749533540842335
P 6.499335195292103 0.754408789887197 3.49700290997246 -0.6230592857291527 0.16354658653781512 0.38437195219244125
P 8.44523646381173 3.748524348130175 10.84498641267062 0.3919052844550089 -0.6019325310528666 0.3294583308736971
P 3.503987547065851 0.1577857457945247 5.612860887243081 -0.23601132936644514 -0.18121443613122337 -0.43283621834141583
P 3.0763135614128325 8.074389485550535 2.0925916854700652 0.054247962710287215 -0.1559985989872281 1.2529091120175777
P 2.4958250290058923 7.303201734795124 9.844018070816853 1.1578202040315286 -0.49414828698733604 0.12401176166798641
