# total energy = -381171.8492605658 ev
CRYSTAL
PRIMVEC
9.19857124972054 0.00000000000000 0.00000000000000
0.00000000000000 9.19857124972054 0.00000000000000
0.00000000000000 0.00000000000000 13.46303882979670
PRIMCOORD
 96 1
Ni 0.28761907812068294 8.968192783283456 3.0469953665627454 1.7240712225223855 2.5792093353327967 -1.2186393922014302
Ni 7.965548544956665 7.301365726347618 9.461123046129186 -0.5544139166466129 -0.29215059556217426 -0.6615762108574283
Ni 4.129762837674139 7.6751312615396605 0.45853128675722676 -0.5149490257827711 0.5632600541833331 -0.06010519282201262
Ni 6.793448231781651 9.164628266856562 2.5605215806975803 1.4276865342742058 0.6549342800608785 -0.5577211266429749
Ni 5.21467909496969 7.726551273395135 11.867452660685695 0.22537776091199896 -0.6499473683692484 -0.7588387294560286
Ni 2.092619709668945 1.8383436116866747 13.075437519164714 1.0061667693868734 0.12612058048087313 0.4550639193913647
Ni 2.3168624733563807 2.6432093750752608 8.581973302822876 0.709070914004282 2.0606589653520127 -0.009713884853654238
Ni 2.916609302153691 2.3380927752101264 4.241665293528204 0.9850528702263939 0.9451637473409399 0.30712315771160653
Ni 8.874900876264094 5.573018626605089 0.27476315529971485 -0.05666479968189596 -3.476185467224916 0.9988681788429314
Ni 3.1978004188638898 3.356494165649338 11.232374120701108 -1.1849188600205334 -1.376132573456314 0.386126987210335
Ni 6.793291856074756 5.795863207501463 12.923883703184673 -0.7836385621085279 1.7244643441957461 -0.2852204441012443
Ni 1.1666363620046813 3.644519820607947 1.966653558622423 0.5495632734225309 0.8889946563485398 0.7413305453689363
Ni 0.7716727199573732 4.0448876231141275 9.641002941627608 0.7908173392451542 1.1637157435803571 -0.6072907100409864
Ni 3.251915612020555 0.2465253820628746 10.546823021673411 -0.07888890118741897 0.9903439434220039 0.49117609173288956
Ni 4.7350196104967495 8.175137985050938 2.6741901621824593 0.6940960378620046 1.7126128441737989 -0.5727024305431556
Ni 7.035517826055118 3.2233816447977137 3.7859947623500565 -0.2246977041258388 -0.08212052075083921 0.24616692974320833
Ni 4.772080653030866 4.255010580326044 4.0213963125101 0.04109291338556794 -0.09954257288202856 -1.22962005958265
Ni 8.202264570911725 1.5798269724762515 12.576268785470972 0.6072027783128704 -0.7059855902107389 0.14573655493958773
Ni 4.609854654983789 2.3049963167743486 9.175316086494286 -0.6369715249348707 -0.2568766028512286 0.41643669393746985
Ni 3.058156912606651 4.034070103625391 0.37752407130011767 0.6145926430190383 -1.4799876576707673 0.39834178410897203
Ni 2.902471098536184 5.390804133788434 2.3092883700000666 0.4548122083918748 -1.1839505825699932 0.6532319526577911
Ni 6.304240630617122 1.5721277685544208 11.323141939839763 -0.21922253994388052 -1.0454997626585414 -1.1683709829641813
Ni 0.4119074098179316 5.799045913065327 6.0376743219300035 -3.5283672914347948 -2.177856275201327 0.27779766927461186
Ni 3.9919314499026837 4.698795637923071 9.462187320793172 -1.5823934110332036 0.48379805410126353 0.6153385200461273
P 6.470835949886264 1.3761982063859743 9.03775145728165 1.1352482322682835 -2.504966674668138 1.7695486381288945
Ni 5.156470537720773 5.716810688380542 1.0062197228720904 -1.1356814631509602 -1.2672445548036433 0.24638650195318212
P 7.579254556071035 6.077302685628496 5.108388687278956 -0.6787298398185795 0.6371617865688058 0.016057824793811057
Ni 2.339260993726342 8.945867851481445 4.254454986638017 1.8124045569521559 -1.6846428413234342 -1.2437161326644
P 4.911466599300278 3.1896136906793866 1.934557904710773 -0.20042443340077096 0.8261072727956998 0.260308511350913
P 5.300474166629084 4.065740783557126 8.005136434942784 0.7464578392931724 -0.11860524594043444 -2.1713799234483635
P 3.0287582797103902 7.549258016060175 7.751936569766791 -0.3737828638226853 -1.643907054166969 1.762980240882757
Ni 0.8796069122847024 7.921744949884076 7.658583952178871 -1.226664576498752 -1.276072951728551 0.523528025701034
Ni 4.078867144365312 5.424084563644088 12.257315695116928 0.8984735423732526 0.8787902050117123 -1.0511777868799252
Ni 7.821710490326242 8.258219478267156 11.78901736567846 -1.30083293228205 -0.41209127248458055 -0.03627877982637623
Ni 7.656890495258908 0.8845649420503735 5.0001592208227255 -0.2195380143017703 1.0149823107959746 0.04401471501805323
Ni 9.237113006287892 8.274666523204113 5.355462304173064 0.38374923100677777 0.12993686890316977 1.1984755156590456
Ni 1.0155130391471505 3.791963715067949 12.314654987406929 -0.2103674035460958 0.9616013240716729 -1.5037094267677393
Ni 5.198314837171678 5.663918905166056 6.4745098591411985 -0.2489702035199583 -0.6691398821372991 -0.894499388216853
Ni 0.3923080146013913 7.295073903787844 12.770620792713979 0.3248704543926985 0.6416529895709401 -1.3225536117885934
Ni 5.592032072849323 8.532668042438882 9.645042034150997 0.802196013395741 1.7333667888916988 -0.3089098172983841
Ni 1.4087703462751047 0.7271304796339803 8.578486124559118 -1.9603162651661916 -1.681918757524052 -0.016883663129216082
Ni 5.738077784518263 0.4238655521099025 6.964645596119004 2.0438953727404288 2.7513200093905392 1.050255789286288
Ni 0.8624377795247304 0.1891042224910291 12.094951718504944 0.18668111567274945 0.8844342906713673 -1.5682271468351507
Ni 6.258330562786948 0.10840423930511377 -0.1500756056213342 -0.0005700135708570828 -0.6930999924973225 0.6573050942859002
Ni 2.285872487678189 5.3357138921064236 7.94816048620704 -0.7984522300825926 0.2547256179464968 -0.016993192123886863
Ni 8.71414664957603 9.177441876250958 0.7424654173377839 -0.5664477078826954 -0.03776102079885755 0.02653995527205752
Ni 5.264452562617271 3.148109738355254 13.227502775692011 0.20731498987301716 0.4859271846291244 0.13006079607554374
Ni 8.63558165471778 5.054228421124422 3.372006635773322 -0.003155000689213921 -0.17115576634364071 0.11254644134086424
Ni 7.258923519782115 2.55222630937535 7.606038035233752 1.1082974147110525 0.49734416821681443 -0.9991651412580599
Ni 2.8782144668254706 4.737659600371977 5.410256351869073 -0.03976776681624118 -0.3311873977496619 -0.34218143486732033
Ni 8.615878315649011 1.9830463319905163 2.499884600706294 1.3976403656211025 -0.16085592707952942 0.3916306906373836
Ni 6.275228337702602 8.154156044614027 4.653902932044814 -0.6942873279372043 -0.45087559234162994 1.0805590682555195
Ni 7.573523846341883 4.779181949838098 6.895418070676586 -1.4500006243903738 0.9881572201833303 -0.08573420624402654
Ni 7.066406627452378 4.236677828335353 1.6668583320772155 0.01685923764918387 0.5325541404590441 -0.9222025105590762
Ni 8.578817273114895 0.4287821883061013 10.143981723426991 -0.2674014136419524 0.18374825829667063 -0.7457456437174962
Ni 8.055786526406076 0.17969224465014863 7.686223818301112 0.6143730708090646 0.8991751964259675 0.5803442633591296
P 4.300111173908761 1.476968551623314 12.120841096567062 -0.7786205400686461 -0.3024797454023242 0.5636295217076099
Ni 7.617686185683231 3.7631077978603233 12.239746424518724 -0.07582311777790168 0.06743926458958063 1.026431690283497
P 4.595468089949449 0.5527154551629884 5.135381893860333 -1.025302204664744 0.3547764979235115 -0.1543291817046052
Ni 2.185700049555448 6.1161574495064075 0.08283037222808491 -0.31814264875056175 -0.5413637683308742 1.3528327223881087
P 9.048201953787734 5.7551227365698185 8.25009622022251 0.6406605437506837 -0.189415483884777 0.6714662162776307
P 9.174682304952812 2.9919547971641016 0.40905125352434935 -1.9946348359424033 -0.7374247825566267 0.9064763580730711
P 2.8451364055316803 7.421223106397143 2.6594485323077577 -1.3086179755441076 1.2268643512143838 -1.0659243490614803
Ni 1.861661989156018 5.662796679504809 11.075947821665638 0.84010770083985 -0.6196263487882038 0.009822128296744375
Ni 3.7212267041254443 7.0258869222245846 10.002095605561458 -1.8644575688936535 0.52854707618218 -0.06288069868462073
Ni 5.465956458807974 3.709921660374034 10.969185527282923 0.7481941052579888 0.7681445802379868 0.3304299507583471
Ni 6.950697802921069 4.512754539572986 9.323773663477807 1.4443678515846288 0.27777838600090227 -0.9644058834000037
Ni 8.248137844457924 2.769055024841764 10.214542121806414 -0.7101754599223704 -0.9502689297779892 0.16053042541931062
Ni 1.0224027688215245 7.616324797176145 10.216171188729422 -0.20487681274516975 0.7456356005021932 -0.5298951055696423
Ni 0.476078480785045 7.14921216353878 1.701983995274231 0.8324162457328633 -1.0939835691915416 0.011451950590683503
Ni 8.633511976244172 5.567720249712646 11.055510436631561 -0.3490678775745085 0.45355493894600596 0.16385897557191134
Ni 2.5069417443727553 0.7974425165965705 6.255937094614355 -0.488387473244159 0.6844695705158341 0.4448137024182662
Ni 0.8601758509173492 1.3848724588331502 4.486261735253674 -1.4784951322856408 2.1792780952495177 0.4735473229075329
Ni 2.1235085110662055 6.861131317154206 5.970898215657439 4.816895181097246 3.273484321974827 0.5795978721114083
Ni 6.745505279761842 1.9605466273396233 1.3218962822381346 -1.0034791952523816 -0.22665019986651933 -0.6639621945911017
Ni 0.3408291318915559 3.542875611126195 7.088383853270821 1.2745778552402631 -0.6749402908691602 0.33265652609602064
Ni 4.291933644295252 6.704304880280506 4.318767715598435 -1.362456104410486 -1.1401184158763913 0.8440170631965852
Ni 1.957133957500915 8.773974155319861 0.6554046223096395 0.4557228931316022 -0.4367052143785189 0.808578262773001
Ni 2.019242708851213 1.3887082629375749 2.2126500228531527 0.00512935080676536 -0.06584775173274465 -0.16405206541932393
Ni 5.469543901495565 6.4399379499180105 8.762512735861556 1.1346234542000913 -0.5433910831735479 -0.877095848028425
Ni 5.2350815254339915 1.5349655417393728 3.387959717447911 -0.14926102315307843 0.3536526687317135 -0.25929189716094053
Ni 6.139926556954449 6.183095450628463 2.963389554799881 1.432589370892462 -0.31218643116712685 0.9199080580979448
Ni 8.16905772962402 7.475080739565981 3.482672803685817 -1.7299189395524144 -2.937112551810748 0.40654437452442244
Ni 1.4182724701117244 6.542437626502188 3.961486019627326 -1.126719625971982 -0.5867601941878023 -1.6724586405524162
Ni 3.753780446872586 3.00279991236582 6.745291872914786 -0.27513400639951974 -0.2808369703215679 0.3417564315147598
Ni 2.5624827160334633 7.720250252264366 12.013190220226344 1.6791332243591144 0.5534998894727758 -0.11964885671360037
Ni 4.578055195058141 7.970497376151341 6.385303957357293 -1.4641990273779426 -2.2089473401791766 -0.5362616712176184
Ni 6.99464857512956 7.449959442181847 7.1605052491478975 0.09659994531393686 -0.972482489760551 -1.2100336528102902
P 1.190727419437506 1.8270017736512898 10.448516053748218 -0.11222813876949704 0.3940614115660633 0.7963195000103059
Ni 4.221628966189457 1.0093499965812887 0.8936319734789856 -0.277016053913581 0.3303515321119278 0.08598360325067128
P 6.23618040383382 5.829437991628921 10.817444060454607 -0.42282974194800726 1.4361197526432234 0.8080025927751889
Ni 5.844413265206865 3.293575940051583 5.850847665617046 0.48282026356902646 -0.48175994062531224 -0.22008694482670482
P 0.23362070681563923 1.4048517550317356 6.515424183064626 -0.28168234904099876 -0.22284059631244202 0.6069834632132127
P 7.3397881573888215 7.480894236434077 1.3034669452520087 -0.07176591698939254 -0.879839472211833 -0.6181844741353547
P 1.2382472371915996 4.106370871636845 4.182360266616824 0.6246227735615307 -0.23318568699219194 -0.1703247858019131
Ni 3.618874204677167 0.2687141750141763 8.143347723696284 1.5972831836608428 0.7460089246812119 1.0190739643668447
