# total energy = -340889.45273881056 ev
CRYSTAL
PRIMVEC
9.05239953968856 0.00000000000000 0.00000000000000

0.00000000000000 9.05239953968856 0.00000000000000

0.00000000000000 0.00000000000000 13.24910175690141

PRIMCOORD
 96 1
Ni 6.155360121077536 1.7948283109051346 11.192430253435958 1.0984973979014951 0.2593240359504566 1.91127735746067
Ni 4.794359006140636 0.4058896804812718 5.971741248633258 -0.7744648660290597 -0.3014973268843969 0.5667958352507335
Ni 2.9220421550992843 1.8175317289730824 4.714388298048187 0.37379032002185303 -0.33854872321073953 0.2704808238982245
Ni 3.6866892925719643 4.452377455992736 5.10428238852704 -1.0522118845713944 0.3954878595999447 0.23032867715937108
Ni 4.96657185515365 4.483273295652189 3.1168642772249404 1.5902033939959257 0.70386031633762 -1.2607311791651576
Ni 7.540440618813776 5.950223694906179 2.528365972089015 -1.1002264647774598 -0.23816822780844787 0.8484699567616161
Ni 5.1673269199434735 4.770433514133624 11.404309812031086 -0.09965184476638322 -0.8281541280223995 0.19669941914069997
Ni 5.415317405578015 7.829981618376499 12.515591433019656 0.11095827091813795 -0.28555494462252756 0.044010858363311305
Ni 1.564363270796728 6.515247317532613 0.2848971185942795 1.2854299674634184 -0.24617669993522118 0.015024241322974124
Ni 2.488115382736016 1.5018836091121288 0.28031388870281143 1.4335571341223698 -0.41318424843844326 0.9928667098438578
Ni 0.5355336206168836 9.088880718804475 4.515704422275087 0.31861110374654805 0.562917840352566 1.2027101225656835
Ni 8.392823612711716 2.3436662431386304 1.2934738352639887 0.6576264821810609 -0.30179248952731247 -0.7626467903482091
Ni 6.86697830199438 0.804647880598138 4.811093271946222 0.45491402407706166 -0.2747048892819011 -0.5063525423630117
Ni 0.7200622592157998 7.1913076730224645 2.5022389365117776 1.274545716450747 -0.14432424797309337 0.273866966761638
Ni 7.650481587726844 3.572610953460211 3.6256833615338806 -0.14237612310778705 1.7130782138459917 0.722015389980092
Ni 7.233917317697836 3.706803724369006 12.334688280439964 1.9915729091876284 0.09912399728737122 0.7543722090442428
Ni 8.033687765419174 8.955185829870855 6.930816728851228 0.3597176439788708 0.6648541102777518 0.6345873409734103
Ni 6.6524545374911 0.6786936985185451 0.1599884886625527 0.7320203237116037 -0.035757617215583584 0.8566229248860537
Ni 2.1256663572086785 6.546758720361373 9.090500193083725 -1.9289284948835297 -0.47257596013319897 -0.2050357069205372
Ni 0.21669271943513044 4.514096716115252 1.6833118008656414 -0.057735149927939274 1.3813637399482663 -0.62844420419015
Ni 6.505805664803399 2.101985279989479 7.18192757661018 -0.5230580280431507 -0.078121169783459 -0.565009175663956
Ni 3.5113533657146756 4.34621091408648 0.5053529205217727 0.019719589916114423 0.17971548298819373 -1.24338008948122
Ni 5.981961407723654 5.5725394809385085 4.850243994754064 1.9141068564896648 1.2574895322994084 0.9637055148988692
Ni 5.435314156180924 2.969648724325495 9.425053344162023 -0.41048587567067374 0.27414156057926337 -1.5989513153918848
P -0.030150827176600364 5.402291002627546 12.565700085481108 0.8808902820738507 -1.0292727592767177 -0.8517797378611395
P 3.92202452363753 6.159361281678029 12.622923018747821 -0.7913073915076952 0.4904824080999746 0.29854852866871806
P 2.2871430603570246 8.496681792733073 1.1776954555170036 0.38036771612905457 -0.5601395062764805 0.991285224289351
P 6.547636803117588 7.88673111114682 5.903773117102327 -0.981424015224555 -0.4163521046434636 -0.6683119869193651
P 4.645121147182028 1.0940549046475416 12.672725700104527 -0.616405527858061 -0.650792489978363 0.2237453675148985
P 3.9864142416268895 5.985998777922339 8.096499650167209 -0.5240910972933555 0.3737404406205241 1.3589709740753628
P 4.799817603068456 0.9701003976282399 3.7994052455516503 0.3508509376168603 0.6036952793802441 -0.9775035971242262
P 0.36735180512287174 5.37569505275369 3.8108130794628257 -0.06411020021634765 0.5451510032874481 -0.4172321932555717
Ni 1.488938677757597 0.9152066467653868 2.593988626896897 -0.786550079328368 0.6032679620348385 -2.013822207504132
Ni 1.963565038491477 6.748726806690712 4.829417139112545 -0.14245197065104498 -1.1031289831362359 -0.48269376529349134
Ni 5.979580626642366 5.717368821316936 9.176964187372402 -0.40291654796384807 -0.854653974085141 0.0005512445177796959
Ni 8.552661831541762 2.4463204540200207 10.362096189118601 -0.024895220579782933 -1.5567785386785769 -0.14025624855130683
Ni 2.168782936258772 5.184680369878184 6.93606349962961 1.5457382217040152 0.3923986791516597 1.170849783521977
Ni 0.4902471813949847 9.099290978285392 9.204614741793673 0.49149953651057937 0.7291190909044089 -0.1387043306831547
Ni 1.3787709752508488 1.0806211437173843 11.465733058688361 -0.4316074881406373 0.6332048588035869 -1.1429962516448187
Ni 3.746806277974373 6.770561194401991 1.5542390671415478 0.018491631046284283 1.0608201950656957 0.4356675171426239
Ni 5.407016355191928 8.082878504566395 8.035778869714907 0.447980530182022 -0.5375032569342033 0.10575924321570172
Ni 5.389717219654508 2.84012699158379 4.970241697930662 -0.9118155108977973 -0.7029727715263442 -0.6669187061162642
Ni 0.8946839517487024 7.6337708581600845 6.923133052114356 -1.1454750522026143 -1.2838088869202278 0.684619208719821
Ni 5.237772693230862 4.59980483504162 7.141769321732577 0.2761318515364148 -1.5039341411840357 -0.6953018852446478
Ni 8.00780695510966 7.371513790836913 9.35067249279085 1.0526641416174645 -0.7641033202890776 -0.8966917678824815
Ni 4.541498329548935 0.17457552529520465 10.638406201501054 0.5228862783519769 -0.43549062524512744 -2.2065238183393485
Ni 8.281967927839272 7.2777399839127215 4.5002827544040525 -0.9650782268766799 -1.040442145629976 0.9609372081251129
Ni 7.104395584956129 6.206433759330871 7.156635172271327 1.1753867521603822 0.2662927539588059 -0.7987741321983857
Ni 2.7336888776910744 4.922595298146437 2.6561405917178367 -1.2263617005463523 1.2167879408149884 1.784455380037398
Ni 2.300223777704786 5.164692671674824 11.523101735587808 -0.6536700686364743 0.027127195234095215 0.3005799572764501
Ni 1.2130849063123923 3.0741858343129995 3.4568099427143544 -1.4052395181245991 0.8721827269975237 2.732298988203346
Ni 4.002826242008544 2.7086137309413876 2.1938390729694075 -0.8879425609349416 -1.9254932439497354 0.7823440116668204
Ni 1.4162660141812475 3.3541946571510226 8.54875753161644 -1.3802545660444876 0.27533866621115805 -0.47523885167734276
Ni 3.4148185769281545 3.0037129038269654 7.281812658469648 0.8032663636417844 -0.7073660154980335 -0.322332004241561
Ni 4.038655639421996 6.910094881044475 6.234497103171559 0.41455104687898287 0.7168217615942944 -0.8079912799212794
Ni 0.7433223998559879 7.366127613105482 11.260636463075015 0.1129249077262055 -0.5255869651125916 -0.5400540483805151
P 0.23250183000684654 5.8358828362075155 8.22180930139894 -0.3427203380899259 -0.4218606931665186 -0.24170632286869345
P 8.52275270343311 1.7749130318981627 8.057057440093901 0.5861837528590421 -0.4746906924833567 0.4400574186802034
P 1.8169071134042272 3.1736173909550804 10.663049548792273 0.3418736738189144 -0.28269510657622926 -0.35608544654292223
P 4.2016169360963165 6.527087856142213 4.128102399361945 -1.1975738297803826 -0.98784046027386 -2.416662907924722
P 7.100358214757444 4.137788466878972 10.220330180747426 -1.0598876559490973 -0.49137663777946994 -0.06700526237595557
P 6.129651306359446 7.524888596389241 10.189539348922738 -1.294502619188648 2.578843724463262 1.3191769820068764
P 2.3281956923100324 8.70754838781871 5.809625446076779 1.0185088358919943 0.5123966916745627 -1.3383741237606177
P 6.79457721040449 4.06112369510168 1.6414444529532575 0.13775225118253048 -0.37403148949838166 0.02071254995700304
Ni 5.479227346391298 2.9244591457787665 0.3373485320589139 -0.6341818780048755 0.02708940001762431 -0.4442614294592219
Ni 1.4838240720126248 1.2789139558299827 6.916852497307522 -0.8983568142897302 0.9447906802722376 0.5349216122499562
Ni 6.700341731103318 0.7427158890862302 9.194200861352936 0.6259481772411736 -0.7116157919133228 -0.047007736208106145
Ni 2.824113296782275 1.59519574365934 9.416096900048617 0.00835942770828883 -0.5576601914980525 -0.1616146596224249
Ni 6.407741020493161 1.8745890033280563 2.391608656388095 -0.8265528449735507 -0.6284979402462209 1.1906210526116334
Ni 3.924124680332811 6.59583177831446 10.455277063872357 1.4574339407399672 1.8418480590242536 0.48225127843943394
Ni 8.18004696132132 6.944475894530147 0.4449842784119122 0.22355202055716986 -0.08672870894681192 -0.6959914551125045
Ni 7.982215821585701 3.92939317687011 8.082376096391446 -0.40424195164349086 0.4995596878108945 0.19085864408920677
Ni 3.0107918802739895 8.54274040163647 12.21449232971325 -0.29122654108600815 -1.358701779574376 1.6845389687557182
Ni 9.160485199234088 4.702549569918496 10.355537725645622 0.6882668327747372 1.9050545164794093 0.032067312848189936
Ni 8.667609201010183 2.37267013129242 5.5301090737742005 0.5909608625327112 0.3044001023534887 1.0868436157126509
Ni 3.863247293368318 2.8593995502228093 11.551428504255359 -0.9043562264062748 -0.8244784789430253 0.3546147755346667
Ni 1.2063499210482165 3.333844862965717 12.81323251969849 -1.8736369214000763 0.8869488295631046 -0.5644281063495054
Ni 2.9749443780614397 8.501198940107837 7.812704208597997 0.8705001970887783 0.7690015289216433 1.4032682533308412
Ni 5.996943128976625 7.873958175383713 3.4902377385275565 -0.8084054846405626 -0.16705279991886068 0.666930018970174
Ni 2.947578974225951 8.644462215364353 3.6758970218300955 1.9080030575847722 -1.3450772468124061 -0.30694678003474235
Ni 3.5517270677015365 4.360848644156604 9.555569935614121 -0.5944642477002794 -0.1358465495193854 -0.8533391119284595
Ni 7.0994710796016784 6.08359269745605 11.524134614376305 1.3502089116120166 0.24180479611977065 -0.019563009733592113
Ni 0.4374572081872317 -0.27249080501289097 0.0067014913858459944 0.9001344750154433 -0.13021017716921446 0.9316397447125762
Ni 4.7897603871699355 0.14029137248470278 1.6901617516040848 -1.0054692290992167 -0.23321628311981124 -0.44234775737627685
Ni 5.706198160273935 5.637599076494467 0.5278001556824945 1.2087522149947054 -0.2846794839961097 0.07037777839261428
Ni 7.773413173597151 8.729491404324573 11.423481889035115 -0.2904703796462739 -0.08096352432826057 -0.6994992111554469
Ni 0.13228452508394525 5.020623732858482 6.12160191268081 -2.1796938426306975 -0.4687619857037475 -1.9494314999328877
Ni 8.039780030315399 8.703619646414607 2.168917817012047 0.37599658364455246 1.5518571901175597 0.9923692013821491
P 8.491458558193518 1.6014147421492444 3.427197733310897 0.01912283687237997 -1.2881095711781105 -0.378779031485696
P 1.955463140895459 3.253993646547309 1.592157758370822 0.8296929332644292 -1.5376832126100228 -1.8298985999718616
P 4.551799960235269 1.2000494509623745 8.169661143319184 1.117468025466727 -0.22384846875166609 -0.3136812705450985
P 8.517203582509802 1.4202490699826418 12.553988090945099 -0.5630525661582174 1.844683214480204 -1.3223898325172192
P 6.446747810148179 7.594555863315447 1.3334691469497173 -2.559600559962934 0.6986898278802741 0.21467194445872062
P 1.7790771356905297 3.365736466575518 5.723916421910455 -0.0915901508041713 -0.02451084065717069 0.7716500222880839
P 6.959231305794403 3.8473150701627405 5.8887352709721545 1.572516004018492 1.1803759778448577 0.8121801211916463
P 2.437874565241155 8.441235845497754 10.127878024157333 -0.6694157615065053 0.5913861229955879 -0.05150639540940807
