# total energy = -340860.5643841613 ev
CRYSTAL
PRIMVEC
9.34661566543920 0.00000000000000 0.00000000000000
0.00000000000000 9.34661566543920 0.00000000000000
0.00000000000000 0.00000000000000 13.67971679675892
PRIMCOORD
 96 1
Ni 7.958699370674223 9.053346964696171 8.94352516457323 0.26784878559201614 0.4669619563805313 -1.8183232364294362
Ni 5.590594077169686 7.514024780877795 5.5059763610143975 -0.9026628978642519 0.8107174206031909 0.6840003441888993
Ni 7.144665220604228 3.504709845522033 5.818681410062744 -1.9460217029203903 -0.9612858497137833 1.068375124594818
Ni 5.039040936542542 3.921438054296699 4.160056219128627 1.5782575344879595 0.7205269783600237 2.320403119559023
Ni 4.2963121178488075 6.62564764932048 10.016931639695494 -0.3151069472480315 0.5508791640204771 1.6472512880488532
Ni 6.711571087692739 7.1832854367854715 9.6659923896954 -1.3288445870036276 1.3701218484858597 0.9301983842803594
Ni 9.128961085922276 3.4058974240631494 0.5897069606836426 -0.5016777625951618 -0.379392753810295 -0.9735297000781428
Ni 6.135894331875908 5.698818540664996 11.586460216218262 0.9051648383504991 2.1252149948565267 0.7026773517731124
Ni 5.775077578376216 6.350072031245024 3.5453040669446794 2.5126241912133955 -0.6217495657787937 -1.268179665023403
Ni 1.705420891891192 5.31808414905247 4.774139153626569 -1.059597121291872 -1.3763549738797651 -0.6563167622307019
Ni 0.2802246247377378 0.91110155837277 0.6411077392090856 1.1644299960385625 -0.7159141621783606 -2.821269699106799
Ni 5.943017569747123 8.843767800264414 3.489983317783609 3.490994764323607 -0.446448924028844 0.15984702619904084
Ni 4.0967057923970565 8.34320979504019 2.2278649325002173 -1.2353533625220015 -4.3285455030695585 0.04192826480266973
Ni 7.603724252003496 7.057218283868576 2.3925962306922703 1.1500678137796194 0.1253407648920551 -0.23243106821435455
Ni 5.740448367110121 1.3021985428410896 10.917631349426419 -1.1548451805636046 0.41504932667164 -1.0742786345634467
Ni 1.0113879411316973 0.71683215050076 10.10833967217597 0.2558211650035207 -0.5078921189359898 -0.5039961263156932
Ni 4.934368187023243 4.827368130188084 8.52086278947391 -1.9731455557203759 1.3328375102131045 1.206442593024922
Ni 6.062775757048737 3.7368143538542733 10.595310502118812 1.09467571016256 -2.2181274640165474 -0.4976889531507428
Ni 6.918103255397709 1.4107034048081892 13.112104562582708 1.0491152479239416 -0.2759061086788539 -0.10130969208478036
Ni 7.626361755292695 8.65533068060564 6.348578442051955 0.34127177856885743 -0.15628759098255665 0.2136260196927095
Ni 3.1360419348122153 2.9606900771703204 3.5436758864851505 -1.5928081786086246 -0.3521187485856903 -0.9969395943616508
Ni 4.478515044818111 0.8431152102409338 13.140270589074039 -0.23870995924453084 0.2589995627315023 0.9569512268941713
Ni 8.745675068216459 1.102031420445758 4.382420619212447 -1.194636858639246 -3.269105733291157 1.0923398629405316
Ni 5.980011474791981 2.989066402515493 8.13320722891603 0.9292493901035287 -1.226530364913733 -1.2516567276677155
P 0.09063693668305232 0.47114327087185426 7.657248581621964 5.386984856607903 -1.9476342988231492 0.41174134534432966
P 5.01359944853544 8.655424146762904 9.576950920316834 0.17447248942169952 0.65445734042446 -0.5357441081512515
P 0.7113765309012943 1.7737539994664755 2.4881354673237883 0.798139326827864 0.9441967554419803 1.1022275543678888
P 0.935558847743888 5.183745241217762 12.85689522017495 -1.5446922969380044 -1.141629453204279 2.705977833810314
P 3.6768745072012448 2.419950970938554 5.568738885616781 -0.14097872853962817 0.26110401066901484 1.1115958829566661
P 4.142420089914593 9.299415316923566 4.264378470558189 -1.174914440509654 0.47582300631558705 0.3755769796086306
P 7.793619443715578 7.385630320645041 12.174742752665209 0.4854474167792284 0.05357716189550773 -0.588654840107354
P 0.010997228063613517 1.2914966678344284 11.972981097626963 -0.6094267825473827 1.0046205079456763 0.5915717566438329
Ni 7.7705893825658725 0.13120872622795587 11.063566603392797 1.26282302869718 -0.021359439512382568 1.2861501334588947
Ni 0.435575659386834 8.54061966579625 2.4783131088569763 -4.164873189587156 2.8848075717594446 -1.8511801350584574
Ni 7.627445962716951 8.566014420724722 0.4560410091812315 -0.0562703924569547 -0.462680555396358 -0.26441713420264784
Ni 2.9311641180908077 7.364385463099066 12.824146547992996 0.9149373443562309 1.0871668033800244 0.28806845507300066
Ni 0.41807131745454146 5.040059717656714 2.0546113900888865 0.09234348403042805 -0.7138660214000803 1.9533105232723198
Ni 0.4409574407220615 4.416743261482719 9.32658499417847 0.5527995209716414 0.8507685229878058 -1.2753124194134424
Ni 7.262684937380744 5.132619253194674 9.035726724728871 1.346606538972739 -0.9563380187902046 -0.6959032662740724
Ni 3.146762503050329 8.694427574188927 6.043302083182904 0.4005796723005553 0.17517774301884026 -0.40578564198152695
Ni 2.6362036189989193 6.1626723859318755 8.40926419770139 -0.26637040127427675 0.22070786624015537 0.27764494574683146
Ni 3.3197963999920903 4.548997874010452 6.505799734507892 0.3647904305160879 0.1848371204854752 -0.25115589831736745
Ni 1.0013777156887853 7.584769315310474 7.679451467279888 -0.9825594143805788 3.039024653366218 0.18310419695476854
Ni 0.6806130798996136 5.438935890394067 6.98825614905491 -0.6461961288569322 -0.9881862736490531 0.20221212142881304
Ni 4.58318779433741 4.843864906945077 2.0862665082308602 0.10105720975434208 -0.2702995611253538 -1.1793452225874979
Ni 1.9720237588693597 1.425265432109829 12.755022716727263 1.445014226919376 -0.13463376015820686 -1.8120991098965953
Ni 2.72991278827122 5.3993716660244635 0.40305784861331895 -1.3289679999553692 -0.40498885711184446 1.1551182317193331
Ni 8.702587169718024 5.219972723773062 11.305068199176302 -0.9265618159690366 -1.200256004598236 2.2501317848372864
Ni 1.7765486375686514 7.22984092971838 3.096923544012758 3.659565800659207 -3.5199281595285057 0.682300073668341
Ni 3.8844534958675654 4.388385629368998 10.898917555419139 -0.01615706937583669 0.8614023485525681 0.2945715462988411
Ni 3.8426460837236394 6.034343352009206 4.217210774295206 -2.0341442068909354 0.7681836610060383 1.1911694689159358
Ni 8.107273174260149 0.8950122940614456 2.158167219028888 -3.9245208096431963 0.32850805114528586 0.833245683612694
Ni 1.5571555266242354 3.6488440066379466 11.326422412126277 -0.4980445367179487 -1.5896845453779782 0.63832572496992
Ni 4.537249178042441 7.467254315783182 7.71101031527988 0.6464085019780546 -0.5172154532194447 0.0929842029382205
Ni 6.4268357862054675 3.155585708295995 0.7755933889106968 0.11681472969891495 1.5243602702488714 1.1927890067972298
Ni 3.617336565024449 9.30487374050775 11.111610077549338 -1.060379250873535 -1.0678681030514126 -0.7594249409768018
P 7.383424519333625 3.9989869249781553 12.627555440774563 -1.0238557020262045 -1.0710238750715748 -0.20608137457623216
P 2.0638449117649396 8.425366547274733 0.9100818425970261 -0.48129714205628077 0.05935185959575585 -0.24095581785591408
P 6.700570120982834 1.3080027912071477 5.513910703104489 -0.8843386456337672 0.32853530483879545 -1.118843822768331
P 5.70871660671919 0.3357341755364805 1.488380324125096 2.6848726764005826 0.5416833564538219 -1.8783579810248294
P 7.43683108159394 4.802076188032604 2.3146762993664782 -0.5470417925522579 -0.20634157021615432 -0.16704560083000908
P 8.024817330322364 8.066979913863891 4.242818632062237 -0.7246715966560165 1.9988681572974607 0.37915029878218576
P 3.771200553111484 2.8239677823253957 13.039615949655493 -0.5380323899647961 -0.344028258268072 -0.8395433436959477
P 2.5093793902081902 6.731124207792245 6.178088693910903 -0.35942505243911643 -1.0303397670886514 0.11798355319603553
Ni 7.212241252305678 5.77266615151882 5.456182265732312 -2.4233027818387427 0.20506887415131778 1.8453529868537188
Ni 1.7057947565202458 1.230958637774914 5.887531385487695 0.04429187993883985 -0.22913131441716023 0.26043475251613213
Ni 0.8699895344388837 8.355519287951783 4.965901799160774 -1.3755247646689859 -0.9079763396573652 2.1768463458795737
Ni 4.627023422093952 4.687000655209887 13.111940062145925 1.4875639273561283 0.7018810811240622 0.7552396992508607
Ni 9.09159331624836 6.918009789240445 10.092306487559004 1.278515242621456 2.4969430330327125 -1.2789852402793394
Ni 0.7583357976335798 8.66552783836308 12.47160622271898 -0.18817055573408237 -1.5210723435262192 -0.39596557056731163
Ni 2.296183085490339 2.5738803853356735 0.9559260580731588 -0.6380866123759205 1.878296788769591 1.498038087414575
Ni 2.0528719849022146 0.3403803782140449 3.6798850521266995 1.703741766936414 1.8845368561420317 -0.9050496529288736
Ni 5.5728355072896365 1.901139025200785 3.1567175834604555 -0.9528150932386107 -1.213936330298806 -0.057565714229610536
Ni 9.694870628305079 6.726095728531472 0.7420782942391813 0.2008314390312025 1.6536677330981586 -1.7152960474329166
Ni 1.900372602711225 5.908135999856415 11.29270169190878 1.1673008898284543 1.8756634649118018 -2.955010772247408
Ni 3.3359566985829354 2.226719037412168 10.493108997797558 0.04104483375645189 -0.8029138653983721 -0.31848871923607086
Ni 3.79374459024342 1.020379385460438 1.8287868728631749 -2.361723832684681 3.247120487269317 -0.23568891303001993
Ni 2.840305666615041 9.24805566350732 8.327144831929754 0.2033824875878304 0.3314023419739454 1.387018367130882
Ni 7.222485143141749 5.859430785306449 0.3823672453799166 -0.6070012038250255 -0.19805696160985892 -1.2166339317356274
Ni 0.8526309997119221 2.642830369548896 7.484419375564609 0.5893415817617333 1.0179388223211372 0.8867194871611181
Ni 5.93241850751345 8.720850456847295 12.229352224369505 -0.2670954523657593 -2.3769828157262807 -0.25722704421211184
Ni 8.945496365829916 6.267803119621766 4.380874688971311 3.2088606724571704 -0.13317028823880292 -2.6977798713805536
Ni 8.556901470391537 2.9344447802107534 10.62235493472298 -0.5205581444394325 -0.9974581858692821 0.39320034911734864
Ni 8.08401879433301 1.7033552898156705 7.087434023188694 -2.9696282650502663 1.9872434285743388 0.10670360940684204
Ni 3.649675855437591 2.5589351467892536 7.875030336015159 -0.9648370574001511 -0.47560446254687766 0.12321137725387812
Ni 7.420567970230106 2.9798786792564997 3.55275892764801 1.4968939465078026 1.0774472620994153 -0.47740989118673266
Ni 0.5489164603307427 2.8607654084400025 4.489710421135122 2.4528671257594206 1.4770308890352886 -0.8425101396337554
Ni 5.179202785974761 0.3923185871437525 7.029992526919315 0.33350987523525144 0.8832690667186723 -0.05791229893575188
P 5.118917114539858 6.928403225928137 13.260365254541801 -0.3671792424632386 -0.6900069553942955 0.000601895250057028
P 2.5987984628621 4.221613964963885 9.169801123338523 0.09142251487805546 -2.3108982653923813 -0.12158721138689382
P 1.9841837059293301 7.830248830747111 10.126902985670057 0.07554980951185698 0.7395217742949716 -0.12826410918643716
P 5.383445032826777 5.4740417790622065 6.626865513349623 0.30951685475476376 0.32023886915795813 -1.5705023160225728
P 7.173050892565128 1.8277961315961826 9.300551865395889 0.4460876840346833 -0.35717970804836546 0.9078351860938108
P 8.197972733268568 7.039113889206653 8.00872152338003 -0.2878249716036269 -1.3190466270765993 -0.5402574226405729
P 8.951992263759724 4.377291196501831 5.453501656341998 0.7322177844343906 0.7497974451893668 0.9909687214901967
P 2.54456005180214 5.2281323193021585 2.623468855071779 0.26476011936436333 -0.993483260381934 0.3647420937766557
