# total energy = -340890.35756956995 ev
CRYSTAL
PRIMVEC
9.03480881690103 0.00000000000000 0.00000000000000

0.00000000000000 9.03480881690103 0.00000000000000

0.00000000000000 0.00000000000000 13.22335595600493

PRIMCOORD
 96 1
Ni 6.555368035208431 2.15671724003908 11.45954528516579 -0.9271719387492097 -1.581941925318082 1.0526541143151356
Ni 4.328043765648819 0.1569852210028111 6.070273800159476 1.9822380049399475 -0.18047858640646336 0.30267797745605934
Ni 2.780173245041496 1.3560705679916623 4.768197055561366 -1.798374047001019 1.0613231028440433 -0.040762526629342696
Ni 3.6614375145824147 4.213997376187823 4.809176237109194 -1.077888463401892 1.0768803338523518 -0.6125401313653838
Ni 4.958863139692723 4.659892286991003 2.47252987952637 -0.5078584374845769 0.45948210306371834 1.6355239723095962
Ni 7.337710184951486 6.084726783540665 2.7868219607195717 -1.131108499068297 -0.373550436096905 -1.306381630014421
Ni 5.143218409989137 4.259568950967294 11.67708269715383 -0.2957257145079423 0.1517357099458161 -0.6459233348115199
Ni 5.587188906552027 7.922569487444405 12.506054397768084 0.5796973738037501 -0.5354394324266392 0.760896897536638
Ni 1.689509215654462 6.93187561565746 0.1976707712698441 1.9352246123048866 -2.378340615305756 -0.2310737828555117
Ni 3.0045436828038645 1.8142799229709758 0.4531869048564138 -0.22260688303508117 -1.3442760910673492 -0.1949091600094966
Ni 0.5998426291412691 9.086307049110655 4.405810881016444 -0.08398945563877794 -0.8857170140385326 0.8916747742838643
Ni 8.611880212622786 2.4459485690270277 1.3771460661058716 -0.737485203480917 -0.5239615136940265 -0.49594960186213294
Ni 6.832863147773197 0.8208394693575125 5.149069352064313 -0.46689536480865396 -1.192495901036843 -0.8122210017319108
Ni 0.5475220523078199 7.514665946971851 2.2133645867301595 -0.06432617288189567 0.4598767673989757 1.5198623823785178
Ni 7.733498047037983 3.7780317200798526 3.8458542215775795 -1.5222041431378173 0.8982871373940594 -1.0090651739805911
Ni 7.6730642120459365 3.9325450174387973 12.653230527030594 0.45340735762454815 0.06453186113479853 0.1167260266398506
Ni 7.884785917712497 8.531624007474878 7.126198990326235 -0.9716738778163265 2.0232247317649543 0.0560518486882454
Ni 6.8725711317453975 0.6452100172454792 0.6401676905435714 0.5605665665115701 0.6415344617152048 -1.311704070668599
Ni 1.9014387219197386 6.475048586400046 9.144082843400854 0.7312770177876761 -1.186982941638414 -0.7456983354193286
Ni -0.035722729881156025 4.786524164887329 1.38954995488754 0.5978560469906478 0.9246306603845946 0.26692627377774675
Ni 6.502487300239311 2.2013491947200055 7.204930119775733 -2.002150941813791 -1.264188541586139 -0.6264392579449791
Ni 3.444864116676249 4.394621270515973 0.5166998026329258 1.0257068963023304 0.44804120821662835 -0.49697007270684723
Ni 5.856426204019956 5.538455148748603 4.773869108425472 0.4415658849049299 0.08187678017114931 -1.0730313924199069
Ni 5.184308719683235 2.946350480354504 9.513238800059625 0.733624177863614 -1.1932641466614353 -0.7343893381644127
P 0.06433687232446751 5.751541110519782 12.623834873639936 -0.7128427223418884 -1.418043611867803 -1.269019130205563
P 3.9313975967415344 6.115833629687716 12.621587013250338 0.16089937872295515 1.7523890956304724 -1.298095735856545
P 2.411101312103075 8.608564437851955 1.1819065618410147 0.5640599243768092 1.921219813385362 0.9866384695459588
P 6.123757156864875 7.591778038713085 5.984600323751107 1.3365473549645241 0.9484444749747407 -0.24537811529332582
P 4.872074767898195 1.1343021551175743 12.700265740809725 0.6555798840646774 -0.1791300427983689 -0.16628429718395232
P 3.8730417677366566 6.201311954229463 7.992288395275639 0.7456289156339739 0.3737818353814208 1.8640539056973315
P 4.674122110598788 1.0342777886656462 3.8912767220144926 0.9552681827647936 -0.09403938367561224 0.39143400124554517
P 0.23787747667896436 5.789451167572649 3.655596510796743 0.4622133859519523 -1.0185792841186136 -0.6780477261498903
Ni 1.4078400214980795 1.3870599616263937 2.3865112734279585 0.7551898198495317 -1.725113804854287 -0.13707270861700263
Ni 1.888898407527608 6.677084977204672 4.767627862617054 -0.2055249878521299 -0.313324401426312 0.3320821416497894
Ni 5.912893758019103 5.481156392354588 9.212407680258956 -0.44055518425222834 0.669733292746924 -0.5412740368305451
Ni 8.636409718080015 2.2723266513947724 10.394668406598653 1.1788222602044924 0.9455671534269456 -1.2589368062688961
Ni 2.4105863280106026 4.955402807983656 6.955339917176049 -1.4069130491722803 0.5836530160173884 -1.1195107669283686
Ni 0.6775934818533418 0.14224944811119383 9.09116325875458 -1.0560752241815425 -0.7901236556122392 0.6256136767198902
Ni 1.531264542327254 0.8982903664227417 11.365937439809894 -0.4677317446670202 0.2213742961795607 0.15352056976038075
Ni 4.075032984498083 6.947587147882183 1.490510327514558 0.20459656250058958 0.7708079860027629 0.18590309985614434
Ni 5.831210053106098 8.029993362172382 8.149514845669135 -1.8218307353620622 -1.0534197888365664 -0.08070692823276422
Ni 5.589158494835516 2.991126991973667 4.9239806470150755 -0.967371908006863 -1.2310657908902412 -0.6699513222950011
Ni 0.618097459998113 7.34804600603549 6.801525914005831 1.4914529779978893 -1.3595615564715102 0.42262302525383993
Ni 5.013433383877499 4.577015987337536 6.987049385059379 0.5068014569749724 -0.5848143833153412 0.10897106528478008
Ni 8.434138422250752 6.9793716046772225 9.272468377654176 -1.0617244520475198 1.0945875213241278 0.02238171012930984
Ni 4.873619720175612 0.2954011998081108 10.60903189031151 -0.10253610829271373 1.313315638130093 -1.3851532888976854
Ni 7.915495232279392 6.928153274497837 4.914156196100088 0.7554515581513507 1.5640624739345 0.5639763635240674
Ni 7.420441927666715 6.033255478719363 7.131474415091051 -0.9876789949953313 0.12967950147672505 -0.14466466203164763
Ni 2.095108879923851 5.7744443504218355 2.371912829627667 0.8482583549714423 -1.4238435063790318 0.7179990697318474
Ni 2.8212274155010353 4.853444992482797 11.292163709861088 -0.914957913181521 0.42276417881739453 -0.3156309380723016
Ni 0.9114314955894232 3.440220225035359 3.4246640915192423 1.8928302064990756 0.8626866145816304 0.8659017790848184
Ni 3.595998395603884 2.600019160762619 2.7436744250981757 0.21214866381623462 0.690479781265656 0.05326425864077923
Ni 0.963968907830229 3.1549371074230312 7.847532691247747 0.22512219325776714 1.9486277730846697 0.9009078628463582
Ni 3.642997470148454 2.467885084404616 6.772116708402211 0.45090490291766855 0.38969413573630307 0.9881178823049629
Ni 4.208133785380551 6.664698254559419 5.878125103930317 -1.6104981396892202 1.0401690944742472 1.1686615176214068
Ni 0.934334735491477 7.2641578078143585 11.259501973147117 -0.7328765010643119 -0.5524495938313906 -0.2234139523174088
P 0.2727057605047739 5.363866506591882 8.028534240577043 0.8022664616223603 0.4940474997434136 -0.6725607348933901
P 8.479520266048787 1.6135535794191302 7.874865697825927 -0.6745944774939672 -0.7862801134964329 0.6717102139676366
P 1.5864852927340993 3.4131338687330484 10.217277166801848 2.017723599441067 -1.9943772114056426 -0.2579073581085881
P 3.8278586897286995 6.4234688638750645 3.79593600036147 0.1929738906599967 -1.7218793570773894 -1.8950907203984784
P 6.946186752543004 4.036589873735465 10.450536952784978 0.5012291050935174 -0.3584120377935698 -0.5348946156667628
P 6.398198504109367 7.759563469963989 10.26109960262864 0.840613693941991 -0.3492026033801599 0.06439944932199232
P 2.274567283937458 8.498285563593782 5.944903181549275 -0.6530625169594624 -0.3881489027363702 -1.6813518292769882
P 6.8672315598392375 3.9679253280725026 1.6848535787623404 1.7964148663921191 0.8025919632825791 0.9621600247886204
Ni 5.40234575658906 3.0190806899054046 0.6633193876832215 -1.104145083105576 -2.0285996229236223 -1.39428404755436
Ni 1.4269847810059502 1.0926155480532445 7.107593608894164 0.1848214367561914 -0.5781547119069784 -2.2337818827243527
Ni 6.940576136377649 0.7706357481883834 9.32913018003908 0.2960535301610062 0.2717239522767062 -0.312770585805371
Ni 2.6723970127765653 1.7337888127984327 9.19615586647757 0.6487674891285343 -0.3109900968661805 -0.17432722209308688
Ni 6.32596520903366 1.9712055142367642 2.783145697084011 0.7330456796523246 0.3070251986811615 -0.06429994762965055
Ni 4.342282624065244 6.9141493211060485 10.38944538372395 -0.8078115598103056 -0.6085963162262874 -0.42170334165304796
Ni 7.945698597562456 7.188084719066707 0.448807733108672 -0.468295073369658 -0.19972843577501087 -0.41898877093536224
Ni 7.58227342002395 3.891418568510139 8.21270881470066 0.853962090224439 0.3034035427681743 1.2032618813040954
Ni 3.2999457860928394 8.397520342833387 12.069697534446005 -1.0470915326256935 -0.25252269675790706 2.087083220981812
Ni 0.14483159642046678 4.893460159948752 10.206672108420376 -1.0921547435129189 0.2354767970192138 1.0320312958584612
Ni 8.485040534127744 2.4549201340064126 5.708588726765007 1.0500084491621722 -1.1557748914667256 0.5931846096569074
Ni 3.574116089078135 2.3839336425230053 11.371345676261715 -0.03498217250213976 0.389424169904368 -0.03377683934012893
Ni 1.1640537799686448 3.1135757534697364 12.485386369523532 -0.2994949517423874 0.4987585320658378 0.16889216712044464
Ni 2.9367735831962487 8.44282087335366 7.985399353687743 1.3519945427575297 -0.3960727855691372 1.0258336516881816
Ni 5.57039319729052 7.997901721883587 3.815242482943994 -0.9452948736021655 -0.4301216476237302 0.18218451335397656
Ni 2.8953760900083947 8.489630216916794 3.3449138356551673 0.40601832681762334 -0.48588476142696324 -0.4954592924892757
Ni 3.448794258434589 4.274810673142744 8.932085576070778 -0.8246193753962636 -0.28301803713328677 0.97679140154855
Ni 7.05101763719134 6.023750860030227 11.408700996064095 0.7896623997051045 0.33908325555797086 0.43774933937231714
Ni 0.43230926905141737 8.870772654198074 0.27217903116106984 0.06888319612495879 2.2108232170456503 -0.30310503769114894
Ni 4.7788445775434445 0.4204068121492613 1.7281203738577824 -1.1721340495510395 -0.7507603233232684 -0.3442468020367813
Ni 5.758552122024316 5.452208865472466 0.3639238989754271 1.4663636391294295 1.7158465206197484 0.4977282910291105
Ni 8.06718063453406 8.647847785818081 11.437250991366064 -0.5984975372293886 0.4048312484880577 -0.1514253777942489
Ni 0.0742679339814054 4.697079559352681 5.682552215226648 1.3225014183944193 1.5446205631598044 0.3604154413768438
Ni 7.605501913037038 8.721662172405766 2.8050045131072965 1.2701640424432834 0.9029801719943545 0.8864361515927444
P 8.477604886617137 1.6563785723720827 3.572223296668084 -0.3618840555025703 -0.2642245585758675 -0.0562271979238451
P 1.9276396669753424 3.4900471946842058 1.40808938221654 -2.641841665452037 -0.9391738483060922 1.5082782770853445
P 4.797429178915643 0.9699589859584584 8.229145842059165 -0.33546622763067385 1.3845521649785768 0.23589845793766467
P 8.556514905277703 1.5471387011074942 12.457194152643702 -0.47294979853284996 0.1940540110980529 0.5152935536063835
P 6.266615551078396 7.674247771977758 1.601916745890986 -1.9688649260671514 -0.40582960784558497 -0.6359199437419049
P 1.87487638451854 3.2235384094255144 5.593691258330137 -0.6395876224014792 -0.22736085278029877 0.540515561397966
P 6.959187842175767 4.150076105060789 5.968877046275153 0.6919190848153439 -0.15063064980709542 1.0819520919483043
P 2.4057256009623558 8.290349442747326 10.135926846327653 0.7130232137838107 1.516185704857879 -0.03452348769816635
