# total energy = -340864.8869998369 ev
CRYSTAL
PRIMVEC
9.31208286099331 0.00000000000000 0.00000000000000
0.00000000000000 9.31208286099331 0.00000000000000
0.00000000000000 0.00000000000000 13.62917454682117
PRIMCOORD
 96 1
Ni 2.6155125986017884 1.6897146506310288 8.396893056697241 0.08653587620971548 -2.206414289344677 -1.017000626777584
Ni 5.402293021855588 0.26812465902404653 7.739067980802844 -0.15193959842650606 -0.0875270364783912 0.4649184435879412
Ni 1.904097418091804 5.945215378352225 2.8874766293148313 -1.279680466574151 1.152458425498983 0.20250085631382542
Ni 5.116998744786011 7.411225866759719 6.195468288296664 -0.3856207369978778 -0.2572856653641891 -0.216892092038491
Ni 7.128948704478488 8.950233771296352 9.757943336384496 -0.22217416637303672 0.00043065977951538736 -0.09410211859274761
Ni 8.852978379785608 6.3612699204154675 4.798464057381627 0.1423763802181032 0.2948181150920084 -0.6829053113525078
Ni 2.3861560021914463 8.18857990472734 3.6635632928296955 1.6413850590760635 -0.507210776598249 0.39089329825072683
Ni 1.6268674046231764 3.1331154022912915 2.498895524782625 2.167687562198441 0.21532063378631303 -0.9200857213263895
Ni 6.992871240274496 5.910229883723169 3.3665423100410963 1.2454462279816294 0.6129533076434025 1.5062828439218703
Ni 3.2904337270885438 1.774091431795223 10.705756910227498 0.13471629256968412 -1.2534225613188865 0.40318548535451854
Ni 7.172017086873853 5.385028420566721 8.217751866139224 -0.1016562767909217 -0.7962770768081447 -0.24445791747190157
Ni 5.601962698681838 3.6379140922956865 13.07066460215954 1.4153542379610977 0.28586707654630766 1.087449624727766
Ni 0.6843393689093871 2.5385854835816573 9.122101294072959 -2.2026741055759547 0.13081181530895536 0.09452943593815333
Ni 2.4017164923498577 8.548920256115673 9.141564478082591 1.617799815556956 0.9285001706423299 -1.577251204710632
Ni 9.249552044882126 4.741563507373272 2.733099060227948 -1.405798990172495 -0.9288886643300002 -0.2560458794198171
Ni 7.776082578247889 1.7141774918315957 10.729839818454717 0.5444359794982946 0.3554614398056781 0.13711358915726707
Ni 0.14412310363958045 8.803000432041625 3.9404804203202723 1.2427797368930598 -0.4488487917195883 0.0629989694300399
Ni 3.3569778699203874 3.4423510439313505 12.501033330119899 -2.2140118991862776 -0.1431471969458567 -0.08455124167951891
Ni 5.690138809579504 5.76037984923534 11.64810522274556 1.8554126850825656 -1.3911151629080751 0.6603122565433402
Ni 0.6775601727182897 1.236486274508911 12.612437500054757 0.3920652070716409 2.544785092216656 1.545229657498713
Ni 1.533392718680545 8.647712141268629 1.4481815749082154 0.20672852124192784 -0.20211776194279382 0.13252417001437175
Ni 3.8710048338607397 6.659889787800237 1.4236079199237552 -0.35329554250261086 0.6309808545690746 1.9069316788974642
Ni 2.8140462013410694 3.228918108903943 4.5825913566920375 -0.6137835168541816 -0.1964271393159198 0.13087352178482622
Ni 8.101577116247364 1.3041199310143234 4.265495386061724 -1.1965608151348361 0.3606627815009595 0.08512999700112436
P 7.703271403772352 3.835907594239523 0.802196812141537 0.12151264939521653 0.41455464642340867 -1.1218155038021456
P 7.031330141743222 6.796209366153911 10.151812772670718 0.2641739078435902 -1.0491705266419091 -1.1813067171892428
P 8.995900224759458 3.972106115518356 7.412989575219326 0.1266923938239431 0.9389254797407119 0.8849778218796629
P 1.3195686761805743 7.603157202878824 5.419218663334899 1.3068400577080783 -4.242480138738358 -0.9610701341585512
P 5.451898486292367 1.903138273575756 3.861554001148728 0.585721725620959 -0.2921727070493613 -1.5364593675052507
P 4.117486350319747 6.731006163227999 3.516463116357294 0.7961246103906805 1.0493492183116184 0.6127887570410802
P 7.819486195619736 8.87211470969317 2.6952649995070557 -0.6505603193628989 -0.48613055888918205 0.33743389288000597
P 5.3400696853872995 6.807030006228163 -0.07923371789998696 0.5842376848762647 -0.4717966587650133 -0.3299887494558704
Ni 2.095842512557308 7.266497477745933 11.095660330500275 1.6582571522410539 4.15748255355004 0.6142933666110646
Ni -0.05852830206083163 4.982783697118035 9.516475445240442 0.4636236360359177 -0.3878156877666676 -0.24702902063318746
Ni 0.9731964488123611 3.7678548940135066 0.06711404229186434 -0.48798098183435956 0.0038890506417610447 -0.0002092877973286718
Ni 2.1487910146762363 3.7800909706551304 7.426741658921266 0.5836494164729626 0.7691311125209722 -0.2307742493372219
Ni 6.957746064405239 7.511321443487887 12.246944773319537 0.9082342213044422 2.1342763337278465 0.08992407595565803
Ni 5.041598811325413 4.932787125208692 6.731231515628856 1.2859956101589014 0.7898004679448656 -0.09949115081880285
Ni 1.3587911684290663 5.487098158823065 11.862219802225152 -0.38675587904358555 -3.6351583183491205 1.8946495190960018
Ni 0.5081128602302347 2.395486709036885 6.227510233590547 0.3912913050200938 -1.0372660618948395 -0.6167451705856669
Ni 3.812059350495841 5.822808051522588 10.621774030160669 -1.9541052512594734 -1.6547272847109247 -1.7571898594532256
Ni 7.876178154976056 3.5372132301933137 5.381493553981363 0.12984508052031185 2.0882664426566357 0.09824802244032112
Ni 4.589525133455624 7.917710043729207 10.791716745447307 0.5294302501180818 1.9064208006993164 0.9743365122501543
Ni 5.880691957461958 0.256142802239589 12.332290011082458 0.25382084674404026 0.306896129302465 -1.4455788411735944
Ni 4.625302155112488 2.722573613174655 8.34566170262452 1.2233141719692802 0.8157356997533888 -0.35104968389122765
Ni 3.821930158136724 8.52272536753661 0.14583466443617893 0.2289672780354702 1.0017825242762488 -1.5169207832516907
Ni 0.23005593381961614 6.557996979114814 7.177940502666652 0.01108068329419382 -1.4110005889780926 -0.8163710193445424
Ni 2.671785514237505 1.440327764375837 0.1493257642329405 -0.4519423430432475 -0.10899394810291552 1.6188333990277926
Ni 8.294616590205399 9.108520552692331 0.6725344416958511 0.3937461943184896 -0.9329661768334835 -1.2832370735771577
Ni 7.063885182792778 3.360032233039453 2.8324422206755653 1.4782045976284153 -1.1050827644284968 0.32689468391157894
Ni 7.361592466074899 1.9012944812051003 8.196517524003841 0.722907048556426 -0.1354274597040958 0.038043842146599
Ni 5.492238428462469 4.141995751933715 4.299964060102036 0.10236538704280435 -0.13125070261858685 0.3998728760415178
Ni 4.665968020176392 7.256282123045886 8.490961853514863 0.24479087533128813 -0.47834088764143423 0.6042676069439463
Ni 6.692277211361551 3.6625166147364543 9.72361154995958 -0.7819802005694985 0.09386969086696736 0.6824242579510312
Ni 2.40902647725372 1.0050437715782308 5.093671977672414 -0.9219788245840443 -0.9373074845213147 0.021190775145002214
Ni 2.6875043098014784 6.545081120437544 7.148488247566098 0.21022804975475404 0.6042645216201529 -0.6456384565812494
P 7.081438458644727 -0.11940790499838316 6.126763742283042 -0.16843811030216152 1.1242508527165154 1.3202023379475976
P 4.559782341375453 4.973480926520637 8.72475658853053 0.2657358530140714 -0.37789277222600076 0.7891980584741763
P 6.863070119796877 6.127005856432723 5.642055870660917 -0.28169109079174715 -1.1332646261793515 0.6186495866972312
P 9.155099590258086 0.41732191651600187 8.43273805655767 -0.2645767997089637 0.45700741627098074 1.301327098309649
P 1.493006216097043 6.144093528150669 0.6195095804989461 0.18345232432280661 -0.5049368929624078 -0.06844970813196599
P 0.9208569569007099 3.4887159035954625 11.200755564419376 -1.1488452542264278 -0.8259208678165066 0.7401077287054285
P 3.757136686848736 3.205405100136744 1.0268051775933071 0.11234358130143879 0.8660480748546956 0.05235845899705822
P 2.5547140107835533 0.030073371015314664 12.124868025425043 0.034304429708824795 -0.29649653123569586 -1.2090244948194855
Ni 4.263807105471826 0.13039150651953615 2.458293913089213 -0.48261457531612373 0.5119027827572796 0.506140940572838
Ni 9.133393125530823 6.857054514385546 1.932303716529763 0.38380579527632613 2.274460848500954 1.2958807304830973
Ni 0.8026167870704086 0.4638404255443358 10.53407097306315 0.11891892052611135 -0.9768680204227563 -1.5877474762562653
Ni 5.002776738632164 1.5253936396583572 0.3035860010780548 -0.28107196915050947 0.14206681939748436 0.42962053961759566
Ni 4.697405611304338 0.29364721523360665 5.304624173873848 0.376309486899281 -0.09079490859638556 -1.0648023196418954
Ni 6.156180611469411 8.261800810840802 1.3149778194192954 -0.676377794646635 -1.6257177848524518 -0.36227871983782767
Ni 2.5890104112942844 3.863676224791518 9.841572357309479 0.48966094063994386 0.7606762968853996 -0.4433111497308107
Ni 7.559045867223291 1.8754534517678816 13.10056663085354 -0.20419804151059026 0.893987481577441 1.2381345248115645
Ni 3.6858899422634526 4.714884390494846 2.7534478233004562 1.4152843039551108 -2.776872661048663 -0.8693920516262639
Ni 3.512694516496666 5.415981783395303 5.041731042899469 -0.426420287512743 1.0060081323218224 0.5545023625953611
Ni 0.3440516563643375 1.5449862616172432 1.4290461762089213 -0.5514707748578889 0.02094729167562844 0.3575653735225584
Ni 6.736220929528843 7.997030363998119 4.471677933514423 0.051567073444014414 0.5018194303793487 -1.3793066003089212
Ni 3.4123940739495366 5.736615414235779 13.040366809951635 0.0847096216342541 0.26968712435233555 -0.49625324914548086
Ni 5.988972854865915 5.079135816608811 1.749031686094863 -1.707182674297163 -0.14568898953110396 -3.1517397590744625
Ni 7.796299109746339 4.108528126781511 11.884776460101104 0.9208886768436592 0.05547386469758833 0.40606769199832
Ni 0.8922940056961041 7.937861390648899 12.97644588081077 -0.6323149999994658 -0.016026200224927237 0.3625736253704272
Ni 7.357923505498947 7.540291332705612 7.662839271983718 -0.44939000893503894 1.717541391823668 -0.5366313958522113
Ni 8.989316582304642 6.746818079618773 11.229390218660619 -1.7706840372849184 0.5103125554520245 0.49152370488029534
Ni 1.2575688296966092 4.866811019420333 5.488291036614383 -1.1847550807491596 -0.13086015204838755 -0.37825221244794854
Ni 6.5289339690702874 1.1004926190490392 1.9254751663004612 0.5283542434450835 1.5475133113265673 1.1386492875300325
Ni 7.940878505437245 6.218888176237063 0.25326536869144467 -0.8676449870281703 -1.865154337850362 -1.0651414481488688
Ni 0.18822233358762988 7.556773719049351 9.182329051222904 -0.9233049995946356 1.3444527258545298 -0.12981397017206028
Ni 0.410839775762399 8.951099794985598 6.466034575399427 -2.0822480043766975 2.9375943765431733 1.5718418607696025
Ni 6.280766965646187 1.95204533181153 5.931266809705734 0.19771500488940785 0.002102905275615733 0.6067363801994131
P 4.446854714714137 3.1008210995567778 5.87963969211911 -1.1597369614382673 -0.8424414911793491 1.495495009277747
P 0.1631029905581172 2.98180337082269 3.960870156556573 -0.4149359410222273 -0.1904902050061945 1.2922025103005617
P 8.501875614415914 9.256191559833022 12.111592720356322 -2.3333272838198593 -1.2238361059110212 -1.2417775208807904
P 4.851418146750163 3.749854638192914 11.047508482169855 0.5480594351834949 -0.2888205027476768 -1.1298702557858218
P 2.1291145839732297 0.9121650589271243 2.762183488062638 0.5905039775009507 0.6518384147443742 0.3647379800115977
P 3.200004092182298 9.008778835106007 6.798968536252018 0.29505568502411117 -0.06881377633960406 1.5267351982389512
P 5.027723808132095 0.6389234104703745 10.000024893777166 0.5846297781083608 -0.3511466144804081 -0.3085570619446557
P 2.0256573453975535 6.372621349202484 9.276997546165122 -0.7053489850680046 -1.5355746509074522 -1.8127871371025557
