# total energy = -340874.15640904056 ev
CRYSTAL
PRIMVEC
9.17032387314434 0.00000000000000 0.00000000000000
0.00000000000000 9.17032387314434 0.00000000000000
0.00000000000000 0.00000000000000 13.42169593888893
PRIMCOORD
 96 1
Ni 5.785245648101787 6.476568866778098 12.882519819193499 0.40089951753381925 -1.077141043712906 0.08263756959657381
Ni 6.6815164388289405 4.05217361807035 12.200898803355336 -0.13938850123437285 0.40393213371255593 0.5088876500800398
Ni 9.257808934995195 4.598174711627429 12.961600108583646 -0.9626585616915937 -0.16761278618738876 0.13286098452850023
Ni 1.3715870265560168 7.213129293961581 9.579990846652068 0.453820791012883 0.5300557995172226 0.2309665678536861
Ni 3.007682879826182 7.597842728239488 3.602463678068484 0.3190214518110893 -0.02757868094921702 -1.7627375287443316
Ni 3.3113765011787146 0.3652329149120472 11.951711754053266 1.7491142815339424 0.43657897321329975 2.262965703377161
Ni 5.688773839162914 6.977534498956963 10.515228178305366 0.7550499518375576 -0.6727926483985381 -1.1714663340600535
Ni 6.018969697001506 8.89717677165583 12.159895533459103 0.24565707998632533 -0.2905295150189835 0.12248761171397614
Ni 5.532915011717566 4.43849185905589 1.2456784774371268 2.891956266989084 0.5720411428100729 -0.49457894676685143
Ni 4.486700252553196 1.2928781352896344 7.753486053069813 1.2726878373064017 2.566192868468471 1.5731317832256198
Ni 4.971902097701081 1.9626327518153528 3.0729645826278973 -0.33407011861409563 -0.9080493589871459 1.44559041113782
Ni 2.8445061337940243 1.3771075616302755 6.288950456072482 0.012729788861842593 0.4713071207231044 -0.09097462870735945
Ni 7.209956361842489 6.60425645876145 8.263671529042133 0.668453654703552 -0.8346659609989884 0.7024855474772805
Ni 6.0377230096707075 0.07153127863744181 1.4625089553836912 0.5938939770191062 -0.3807716364356927 -1.1432857578607794
Ni 6.956011748426589 3.7284061573863356 4.270743706487989 0.7273278033319409 -1.575149327876281 0.3813910151872464
Ni 1.2177089891040886 2.72423733396196 10.366890850640594 0.2524221666243008 1.637571084646612 -2.1992956760220252
Ni 5.540407166461201 8.251714343521659 3.494177740664217 -0.1836143038219676 -0.260140618314481 0.3366103685374461
Ni 0.0059001864896645086 2.0882203395927164 8.079136181279983 0.701188683042728 -1.005941283639629 0.29100645465540204
Ni 5.054104882428082 2.1216736817038386 0.7035454265616462 -1.7111665986455755 -0.025733143100046 -1.6779091221440265
Ni 3.493948482563127 2.1782637513770116 10.202086372090694 0.5707046833868364 -0.04251910430913322 0.8477233084035787
Ni 0.8132362576093958 7.266885733505276 2.1763544899111302 -0.727755634897979 -0.44816256428584106 0.44722102630817817
Ni 8.132435938686305 7.375178090136374 5.203390421598966 -0.2628713869820828 1.6433810064601697 -1.1600933163364213
Ni 5.18304880880541 8.967302239617386 5.721951154520324 1.1565189687216018 0.6125442451304418 2.192706195729966
Ni 4.482940419695312 9.120923507996093 9.8790800483023 1.1187386646490345 0.1143241020665773 0.6873936861411646
P 0.6606209737782741 8.868712085824438 3.8002730698837737 1.2760788652658217 -0.7148468972561108 2.274904878016908
P 4.519795952026617 8.054763294036853 0.15936922748924706 -0.013016466864325971 0.9513955871832647 0.4301787261139107
P 2.602822243624444 1.7265794406085546 0.39924014459540413 0.9909962322940222 -0.012756014114087708 0.05253560800487081
P 4.751163227647126 6.276710824571464 2.8787123595091275 -0.6078208715128436 -0.5125944095076655 -0.5286661182585476
P 3.800072239787218 6.992041951593969 9.450229844402454 -1.0707575087840655 0.1809125886200884 -0.1938066709739372
P 6.253454882796845 7.097812469113071 6.4189801488165745 -0.19654772405418408 -0.44453473772526664 -0.2379861937046288
P 2.831025757449904 5.013948033441074 5.317420649984156 0.08545087067565282 -1.14323125047376 0.6356232384370923
P 7.228205306689291 5.12753166704534 10.300265695366488 -0.38869500504782734 0.45181018834075737 -0.6768912439479439
Ni 0.2334443540163888 2.4452485655829372 0.5490786543061179 0.9782366186355089 -0.4111854728408596 0.39666259663433623
Ni 4.594066406455889 4.2978007475786875 3.990363799951549 -0.18307925725410404 0.7788442260436781 0.896614634787643
Ni 2.463029823903515 5.327600626704977 3.046214747392661 0.9697704901460267 -0.6122735079675584 -1.3834044245273787
Ni 4.888461319228192 5.573943041488717 8.141090890518674 -0.39896141997084195 0.7730173349492557 0.4180562318187639
Ni 2.40831050033524 7.645849374607834 0.4318085504363172 -0.5604089578877832 1.7424767216127668 0.007860890805315494
Ni 3.0891978902499115 3.767343353275542 8.229419451706812 0.909259577245163 0.5562967354916225 -0.13375007200167288
Ni 3.1362691635658084 5.03990922080856 10.39464758745582 -0.42612538198014355 0.11958740734804567 -0.15779631431759922
Ni 2.4242210125509187 8.257106494059308 5.6612041769581785 -1.5536443639249693 1.0617522199616616 0.23441081764854466
Ni 8.713577713978532 4.323312589068035 1.9298121620632402 0.3503788830764482 0.18728069692996133 1.278302869500334
Ni 1.7148505961567657 0.5034847201936482 10.478049850567727 -1.2651557905954145 -1.5149903989981972 -1.8037615365651771
Ni 0.9624897006461265 1.509545381468222 4.960900459945951 -1.1547515924085339 -0.28120823761805763 0.23550559337462018
Ni 3.7599153908002108 8.387352606450829 7.745097040634711 -0.4666863341216414 -1.704755295802593 -0.4422405423744513
Ni 6.787011846626735 6.675986733430638 1.9799958433595415 0.07592287658055956 0.3968736842038778 0.16129121484473513
Ni 5.6245173785892755 1.9102885421743754 11.431593900109302 -1.7256372814579246 -1.0687661893856495 0.708936959529579
Ni 1.2368841366792962 6.311503033992954 4.732557557195027 0.08733806039603667 4.640102271072486 1.7590040298438285
Ni 7.156768482389499 1.8542945435640372 13.343609214301091 1.2644618498521836 -0.8736834799127663 -0.15250267001882767
Ni 0.5502762986262145 4.418592255881237 4.3340271956806 -1.5004022167713773 -5.122978841800745 -1.1019884417738892
Ni 4.190507956268344 6.799034141447919 5.662399070181062 0.6698302233361044 -1.9320528994451243 0.1570344964509102
Ni 2.868899195750051 2.5920379425491475 4.269012349308554 0.533599551004423 0.7203940523265852 -0.444701345210118
Ni 7.257623706221222 2.8126575983905355 10.20675681812611 2.3868064866849217 -0.6627478625680264 -0.6518134750437097
Ni 0.4679038629044062 5.289387886415217 10.550889734446192 -0.6562177747589925 -1.8018244674434647 0.02782807795586175
Ni 8.50621834670422 0.37461690750588256 11.443271390746448 -1.4174769407310555 0.3307947902969335 -0.6010686403906744
Ni 3.6210308331595997 0.18681325625458586 1.9874311420941078 -0.010414510465104644 0.21170591985186119 -0.8841275580642258
Ni 8.12474203681371 7.37676455619592 13.221981372445763 -0.0925669128951438 -1.3460295834233464 -0.7336941118696009
P 0.7630553274103078 4.940521248823816 8.486377433603444 0.7377675106080261 -0.3172977842517632 -0.8516540109165526
P 0.4206977858250684 7.26590450883261 6.922950896184535 -0.0327864504024016 0.9127933014300343 0.3012052495652748
P 2.221180867901149 1.8806317142173115 8.563901519003391 -0.8196676878179431 -1.5055667916914524 -1.5466805310126266
P 1.6650282256277835 5.46451356467621 1.005777298261626 -0.7899804451661555 0.013025979946022727 0.197365334859473
P 4.35117203351255 4.1710668692958714 12.34722232786013 1.567957438113532 0.599030269804407 0.27413359015946337
P 8.271485562159702 -0.025702584229455525 0.7474786149898165 0.08692514122833415 2.7572564294796322 0.7643352337942256
P 8.487896039265069 6.035237851854887 3.4972241223115077 -0.3854975811564522 -0.37823447183613573 -0.2704515133221858
P 6.6589849526537686 2.6943329072557187 2.10740740858918 1.6646820819307913 0.20110140486313752 -0.133302442941293
Ni 1.047938780084569 0.47546479507837014 12.872534253342401 0.7096355282585004 -0.19009965443599516 1.472861073928315
Ni 6.894167083076423 1.7616467597513539 7.318716404999812 -0.724152748038069 1.574374140273153 -0.19580621790246924
Ni 1.4719837341855584 9.15722882088478 7.581500293761355 -1.0310861583363726 -0.13414087968218832 1.3982556306075984
Ni 7.975531694299984 8.747517083263968 2.893623306404052 -0.38866338047894355 -0.20731653253491394 -0.2528294293650485
Ni 8.509519663359923 2.2093970015050983 3.305683564012436 0.9113537407700305 -0.24036754945261185 -1.2467325508932205
Ni 6.354750282182661 5.891685599276073 4.30793487267929 0.42249189899261436 1.943776872750272 0.462484637335468
Ni 1.2470356853955826 0.6376795741183522 1.977055837471157 -0.7290962080862734 0.09078950927974686 -0.612916540868196
Ni 8.055102596026465 7.087816815905527 10.703091436662946 0.47065508896140235 0.5465676811293168 0.3162418321834231
Ni 2.406925781404653 6.283304287558826 7.488836920397797 -0.17938098246691042 -0.7365588350119057 -0.3762395528932939
Ni 3.8085456192035227 5.802641752812532 0.7991451376839707 -0.6189606901797469 0.09395068061654788 -0.09212853980614456
Ni 7.774729108716857 4.002782252771418 8.177584195050256 0.6317326451334345 1.0441098242895501 0.27359031606148365
Ni 1.7735956919801894 5.961774385941454 12.350470456636382 0.7084011416307672 0.44947228423620017 -0.5619356789449549
Ni 6.285789445374647 4.702056142393546 6.406149031414742 -0.8029426617537785 0.3379882227215792 -0.9235965626931254
Ni 6.239451797982239 8.842411596467338 7.901272244259565 0.24589259303589908 -1.118037524816952 1.0692197319833006
Ni 5.137664875113539 3.7945333640648724 10.135031128618941 0.5901774473994674 1.706597234107338 -0.4645824004047612
Ni 8.523641962387096 5.410124372773506 6.252886322706142 0.7947794092166957 -0.637591932127689 0.9727696819836668
Ni 1.2437435390639233 3.6861676448414262 6.669455628646773 0.1761385642702128 0.22095340659205814 -0.6517479119130969
Ni 3.6907252958911045 3.5214502843699402 1.9700231159621056 -3.5151770179967654 -0.7591729728669957 -0.3308912066654817
Ni 3.6738518996508454 7.048421103814139 11.711423587203125 0.22202761349284345 0.7679548328246839 -0.21271482073234982
Ni 4.984401249372534 2.3966183371796252 5.587586649600812 0.2633830365111786 0.28474504712672255 0.3547021930421504
Ni 8.42875661950777 0.2827495182693111 6.345523102129973 0.38414929465867387 -0.09835575166277899 0.37537154846604387
Ni 8.514086484733644 8.656373232594438 8.973504129768086 0.2892416494454954 0.6531795021533009 -0.7096542973115778
Ni 6.796136319050135 1.1609263426259995 4.4281532357291145 -0.0592173909004206 -0.4149017453501822 0.9136978155221749
Ni 2.3366994398786183 3.629476701603773 12.265068145850561 -0.4935589901427693 -1.3283571058442478 0.7187300343606009
P 8.390956543799971 2.5964672090622156 5.883615714117688 -0.048726775781741886 0.3977519730437731 -0.6465542835272994
P 0.7089861798167254 7.740523800034157 11.939417100607988 0.4507372669915528 0.07900202972651556 -1.9176169265254526
P 3.8828069033087496 0.3646946168906867 4.271535105452953 -1.3503240970336423 1.2075306838827786 -0.7544853375833394
P 9.021700601844135 2.798223508345879 11.765110332284088 -2.475141877997221 -0.55781111525362 2.2275652123906795
P 7.499179211854191 5.35205788092931 0.49640247893476125 -0.8920830654658766 -0.31097287047499994 -1.3567413134138957
P 1.3975298732754151 2.814445811579041 2.6749303356442296 -0.22165840307888274 0.6620518649422663 0.18218425624366044
P 5.62080339735161 3.4934899663609458 8.00180008752293 -1.2788739115124557 -1.5749207568052426 0.10915695604334104
P 6.820566062302336 0.5283839840368827 10.033522977715315 -0.9495762745863389 -0.2482248407135015 -0.36688613670285203
