# total energy = -340877.66196237056 ev
CRYSTAL
PRIMVEC
9.19590779876191 0.00000000000000 0.00000000000000
0.00000000000000 9.19590779876191 0.00000000000000
0.00000000000000 0.00000000000000 13.45914060009218
PRIMCOORD
 96 1
Ni 5.634764821710452 7.916361467495058 3.348607005733958 -0.30740237951492216 1.6684243225820428 -0.3998487076718017
Ni 8.904167474898593 6.153892200082273 5.632138470487059 -0.3202879772283387 0.8192015468148021 -0.39228297950940183
Ni 2.8735923963348857 5.956290536607929 0.3414891108038643 0.8878980808502515 0.6571680544874037 0.17414107422420977
Ni 8.444813496218842 2.2078454664722345 5.23249627891816 1.4922034830106687 1.2960547941671163 -1.824295394852471
Ni 6.81051678956115 8.208791330603963 11.055256718977057 0.4083773139681031 1.4048142576617226 -0.4112628630460143
Ni 5.485055445250924 6.354418162187707 1.4175574397834763 -0.3575108661355391 -0.23318902942630165 -0.8773719845079472
Ni 5.538290554607448 0.721589998627278 12.433365554145295 3.101414014236717 -0.9857655800227023 -0.1952925114908443
Ni 3.559469168032298 4.137459551239342 5.255229482207201 -0.4435314932717329 -0.12980137176657 -1.0252770078537632
Ni 3.473533411090388 9.038961089158036 7.371248293300183 0.8097558280208699 -0.5544149450878774 -0.23362997361846213
Ni 3.5591932908029498 7.675033263169052 10.04473130214595 0.3561538378870125 0.9842314027663629 -0.44704027775593974
Ni 6.239147459858458 7.518491327329338 5.783796459776548 0.9528649726399396 -0.8049481222195816 -1.4293245840982611
Ni 1.6570473821712601 1.2191106723965621 5.632475040706863 0.8704881129039203 -0.22036770929191726 -1.0389100252561656
Ni 0.1302637101535499 1.6117483411123148 7.359188780014615 -0.5422088899399888 0.05396642691412641 1.0352336048458428
Ni 4.86017512896236 5.839336983179657 3.731654262366809 -0.756998076702864 -1.1462947198904323 1.119079078707589
Ni 7.92449064985318 6.864671489682167 2.136988239295724 -0.5202146450570847 0.8967223640101007 -1.1636046719237896
Ni 4.543100233365032 2.6706295187035445 12.208234101954313 -0.9995914301622011 0.7923564015975 -0.03842719362794672
Ni 1.2111838000066288 1.6016696263334669 1.2280444966736157 -0.9357817919054077 0.5529334754463445 -0.8747106356257001
Ni 1.1767911054145754 6.931948750012505 1.6610190946831074 -0.36276054457025264 -0.7615018781104884 -0.057199074918811176
Ni 1.767370686187535 7.62987216072478 6.0335039751486175 0.10432019677633002 0.6721956382444875 -0.9899587921684434
Ni 6.865885349491298 0.6012872956347208 4.679447036425706 0.075711789011018 -0.7561622110651299 0.6328441330300585
Ni 5.75780606599967 7.291196078069501 7.957878231739642 -0.529762693756836 0.4080566974038908 1.8728437360748198
Ni 8.41228757087871 3.189628154368337 1.5261859380207894 1.854527197153819 0.07784169086982723 -0.2908298198682217
Ni 6.8532317805718685 2.143566072034145 6.8116304139769515 -1.6049031620999457 -0.45324075013969684 1.1343969400115816
Ni 5.3709802109155165 1.1273539059154094 2.8951549605807276 -1.763495747066595 1.3460195561210175 -0.06127067388502351
P 2.7669566512842296 6.965596576085319 7.958281932085255 -0.2972159259002236 1.4412017951518212 0.34251130740291336
P 2.3073911667286464 1.885602470778453 7.750391887137758 -0.5110093244087328 -0.5747649694991392 -0.021637118653801447
P 7.0796810063283715 6.527347205450694 4.02048760599578 0.6866218409721465 -1.695809399463215 0.5170408753147934
P 5.120474490759866 3.930625196489484 6.781629684876118 -0.030463715806495924 0.7732389640417587 0.5078337548942287
P 0.44108171018926545 4.95019386889862 0.8316438625495562 1.8657582899829481 0.028388064224389824 0.6631754370237483
P 3.34974729828193 7.515888885465822 4.195012139235162 -0.4241430614427921 -0.7736472552237709 1.4265184821080337
P 2.295215785006754 7.320190774873979 12.117923851745706 0.39319752090387117 0.397799795562573 -0.2635720125935332
P 9.052148020720873 9.007676611349972 5.4229564005154485 0.11285677349243144 0.7435463220733324 0.09408694908409602
Ni 6.87751817266214 0.4639059529639919 8.991149726130494 -0.9261843780249597 -0.6184187016333478 -1.3932723184603941
Ni 3.396370550041746 0.498724418080006 11.905026635085544 -1.2960216269363358 -0.8654832034901611 -0.048193528986091194
Ni 7.952289878663816 1.2197819736546425 11.124087168108625 -0.5512807703342699 -0.31903610709910857 -2.3193728785222962
Ni 9.146718734941375 0.8703071366519173 3.260126741146695 -0.7890782450668604 -0.13023228865640152 0.44935889858678746
Ni 4.121044856093135 2.0209202517736586 6.462486629649443 -0.17197157737671673 -0.3863157061823734 0.49000058336754965
Ni 5.675796961622148 4.578513673705673 12.723127684446407 -0.4320409761336302 1.2564276666937975 -0.2276534443200531
Ni 7.2298225904472115 0.13870279459930593 2.0860723378472525 -0.33442493085035313 -0.2727948167433818 -0.5406384601290753
Ni 0.06614708328077568 3.2481417147130527 11.920854631324005 0.981581880958658 -2.0581202580905584 1.425945126103067
Ni 2.2842174794634125 0.5102809152173947 3.0172563831086334 0.694470647592604 0.37647737993571295 1.0015961192970557
Ni 4.003006185562761 2.866060947973685 8.875939716791702 0.4811644731331584 2.8569231866443507 -1.80523837822102
Ni 4.976218287533785 7.327924533203369 12.585817150264543 -0.9552738391917482 -0.364728724040217 -0.5282938225207935
Ni 6.413474281083474 4.524561283552845 8.660579836064226 -0.12065981447661801 -0.6178489451728069 -0.8418843331242984
Ni 8.218235527755311 8.293218958692105 7.485825624193002 0.020892012957660792 0.3188399319279025 -1.3402155478447306
Ni 7.612298781215311 5.122322868196497 0.31664084875648785 0.2287183952494577 0.9222241078256311 -0.3767951682864478
Ni 7.057307363028247 4.534998638729845 5.679837643441332 0.27279455963306565 0.7717027299028903 0.2852453838019088
Ni 4.075920537279443 0.2675089533911338 4.775531397044564 0.16434208585591698 -0.17117196429355683 0.6495115663834105
Ni 5.633652116885415 6.287830594930739 10.218259918587385 -0.8408281239456422 -0.653185929911204 1.0864872608144964
Ni 3.460263716358748 1.291022670179947 1.0036505562757556 2.270650473615928 0.5680343356435249 -0.46012436463340756
Ni 1.148375750791729 5.258909684446705 12.076052125466028 -0.33467741318079136 1.2347779496345057 0.2784113915992108
Ni 0.5450763905642965 7.751570802497839 3.7373474487897873 0.04328092217582224 0.14108491510018928 0.6544606828585696
Ni 1.9967350146674818 5.686510194028496 4.314623309972821 0.6076483504907212 0.9057258530602919 0.9593575223428186
Ni 6.70163724304513 4.624198942885706 2.6424330266826477 -0.24176160158666105 -0.1733129218959596 0.29083393363327975
Ni 1.4530361710683966 9.05106290361877 8.624469345924098 -1.194728647022104 -0.6864812016292242 0.29717555958059144
Ni 0.668827558923704 0.1951316426809152 11.420995438240613 1.7652618378280822 -1.0623659422862606 0.10724379818102821
P 3.4978198031806595 2.3247162567317026 3.7149112733176772 -0.3309881372546622 -0.042555871084339614 0.3925622013127175
P 5.153073983361158 0.14479232464178132 10.24558187979125 -1.8127200313100458 0.20343031010663026 0.44475842370029856
P 4.979685144715924 8.833588883723722 0.6985183859369029 0.05815809639797081 -0.4753614932981362 2.3398283181631703
P 7.3274095623752515 6.404223197992669 11.963318574056018 -0.2534246397468861 -1.0554656156220015 0.7423080787908571
P 0.37171054168817586 4.116777954945886 5.267652233844743 0.8228388864570731 -0.13547939598795378 -0.012351579586817438
P 5.605319525431373 0.10725738840745369 6.705599759649331 -0.03863828119748829 1.2398296531258002 0.19131912866539308
P 4.686096597243757 3.884424956481335 1.1237196832141314 -0.21659512962336247 0.5525418964348806 -0.004384759331256965
P 7.002720455247918 2.5549082168996935 12.285759281764165 -0.9172325681483106 2.142388935532652 1.3840860239754356
Ni 9.278946690967883 7.457504067828135 12.858243155473422 0.143337715690108 -0.6457243314268363 -0.21825657648618538
Ni 7.603764978920813 4.40648582939189 11.030518807821421 -1.3115348920805865 0.5121889465391308 -0.5917303937088841
Ni 0.959344673242463 2.934598047651379 3.3187552503369733 1.3713230678828123 1.1183357727836611 0.9511186793727943
Ni 0.6891762633604143 6.610726500067311 7.95630389235083 -0.5796302680112404 -0.7297058166458142 0.570461971248411
Ni 8.893739315629237 4.391395344946553 7.604064765510037 -0.42320100924449694 -1.2902381874853392 0.41555429133251665
Ni 5.489487872735782 3.022584491998108 4.805330735767973 1.4925510961580748 -1.27887493995372 -2.3995604439164806
Ni 3.4721172413130685 5.617329380815657 11.4126510716436 0.04385016441573093 1.3998913664388084 1.144393131992345
Ni 0.7919055868435023 2.1097343278084324 9.876330323807329 -0.17184019400517503 0.6235606508456035 -0.9830412391130038
Ni 6.331189299476603 2.2581102976594445 0.9577510224475959 -1.1795339415595363 0.4723077940734769 -0.6674077299375409
Ni 7.1001419008383495 7.987179152268697 13.526301936518012 -0.7680083117704387 0.3398774693244921 0.38130976832734975
Ni 3.6284200835540137 5.346188043904775 8.953571569130236 0.021478481588750105 -0.31879442340194775 -0.8742334388789654
Ni 2.5820821239904737 3.5708996812349505 11.11578326350525 -0.8732466494856638 -1.9610917098796354 -1.2483726575998049
Ni 4.019503643877773 6.415938784332315 6.3239521201600395 0.0008402365131082303 -0.6496118394067005 -0.7022600617300356
Ni 2.722705943696807 3.63870110830105 0.12700008253036277 -0.9260522233224696 -0.6624017920825173 0.16596342350942386
Ni 1.1492585579256427 7.276169964977679 10.305273435905281 -0.37811671531134877 -1.3608825892757788 -0.06705488466696839
Ni 3.03908195031312 4.592417886064814 2.49539230262168 0.27375486666380594 -0.8948035497208331 -0.2435937696993934
Ni 7.86386203075013 6.50057791829629 9.714686498406206 1.3213282240219244 -1.1284142400655859 -0.8314114586174326
Ni 3.379201790468654 7.772960483679955 2.1462613925648752 1.1631380167000163 -0.19141400237204453 -1.1961913476105592
Ni 0.08997827794262246 5.30827331668471 3.161188890385614 -0.47971025718513516 -1.4249850761826428 -0.05089498707765428
Ni 1.9930750434247981 4.736287861169808 6.8292617277045835 -0.4117894249734456 0.4102907289407321 0.06023014843565111
Ni 8.33900538285623 1.0447470675409662 13.431145442980526 -0.1523610022346408 0.13153095286316702 -0.21756006463979305
Ni 3.173149087868615 1.0856688565609232 9.666300391150857 -0.3804913861911124 -2.0100984787956415 0.9135486915388202
Ni 2.120548715198875 8.659114927976388 0.29191949023461145 -0.5134367029033029 0.5200410955936979 -0.07508418272934811
Ni 5.908407445500757 2.417447789423218 10.157088740933284 1.1127533935998772 -0.2608877808931507 0.3506120821331768
P 0.8105631638643093 4.476926481952086 10.005430751643795 -0.6251423935104266 0.05455469531742862 -0.20706225043226276
P 8.603268180848703 8.45013792674526 9.610633883813012 1.5086626570079567 1.4852543053863452 0.679644638323365
P 1.7343573777422212 1.764970554292207 12.402301778120709 0.19187140162443728 1.1438339170547656 1.0452933030746903
P 0.022023279218852745 8.82057667440614 1.365927935901758 0.5822947022172811 -0.8552671821891076 0.36019072696054744
P 4.7317910623314345 4.275701630865637 10.484818015128033 1.3548991179988343 -1.5088624317235884 -0.00464084120612104
P 7.591727535813594 6.147648178791363 7.431047441533659 -0.8852727274122624 -0.26266981249423793 -0.11517410877169841
P 7.267516615883796 2.5718562746893068 3.1492231753580255 -1.0047421211252052 -1.7247973020551326 1.8427278905260458
P 7.818029627047778 2.36616221248742 8.781847189768737 0.5638868891340547 1.62155516883433 0.7564509459501424
