# total energy = -340863.1040933671 ev
CRYSTAL
PRIMVEC
9.33267367175776 0.00000000000000 0.00000000000000

0.00000000000000 9.33267367175776 0.00000000000000

0.00000000000000 0.00000000000000 13.65931127973307

PRIMCOORD
 96 1
Ni 7.1320010864252925 8.277484098458515 1.6672149245313135 -0.1945229803146714 -1.6423487085409132 -1.3836599921816106
Ni 6.941913192690678 4.89837500830864 11.267811742909949 -0.4761564783956058 -0.9297484412271343 1.0944196282876957
Ni 4.9473528788074255 4.478040726792868 3.9030659120090383 2.242284263768409 -0.3773551545549759 0.27278273255852376
Ni 4.928258228837815 3.466248262567398 7.935322156666814 0.4984805958141028 1.3245662713432478 -1.4602099608232078
Ni 4.362334240808886 0.17311922678703515 4.880785718573683 0.4834540404982835 -0.3877007594553581 -0.13024128751746603
Ni 7.4666520925886735 3.795980949799214 0.30895442296381 -1.0526075773479162 0.14028324513450033 0.34970294005534613
Ni 1.0605463505603887 8.302383671341664 12.85291967257194 -1.8508430634340123 0.01582693972992758 2.0583843103852226
Ni 8.1583151906081 2.562882799000252 11.020892533930985 0.43879423569706366 -0.5067919438932756 0.07373486779030526
Ni 9.071937262345628 7.794247597590266 7.143669728095382 -0.493096448684054 -0.8983529576349882 -0.11467505764809284
Ni 4.975901527026896 4.939121460785334 9.921522261633754 0.23579998468658744 0.5589578272635535 0.6982645674173975
Ni 7.456638133929147 2.153113103880177 8.564674726833308 -0.9671055417193538 0.4075648453691368 -0.11597269341359381
Ni 0.11641670243690794 4.687699236845307 3.952717601534121 -0.4529921244640005 -0.6427796469762155 0.08677010370770863
Ni 1.8616070472815596 6.027889815992889 11.809580905400585 1.7107187124748795 0.7792005809418322 -1.7011971461376894
Ni 3.3432156278902863 7.621051842880575 7.739475070118786 0.7185418296091947 2.0362314284372673 0.02867937021256351
Ni 8.022720777407482 8.908895456397882 11.973943284647795 -0.9858900214157086 0.5506865883936968 0.36883786111258415
Ni 2.1191235070134518 1.4631765504572216 5.939464601167835 2.151037869456902 0.4488235949086077 2.4447372975634347
Ni 9.1502757236579 8.886357049908828 10.023885824322745 0.49828056398815473 -0.29808804409253176 -0.6214927125729812
Ni 8.90211060276743 4.74766166404704 10.199926177913538 1.287278590636383 -0.015282380080367228 -1.4840335456053668
Ni 1.413106757159588 3.6946561136701535 11.301713612645827 -1.390943156106585 -0.5972983747149648 0.5262343688886034
Ni 7.454015652677212 9.198777627808468 3.7870850454243197 -0.7840229420311401 0.6883817610860467 0.7253076875781186
Ni 4.861538946026114 8.804117531075882 11.713473967022264 0.3454282239393922 -0.02706831697170177 0.8533064589183109
Ni 0.2551282285846671 2.985568914236621 0.2525972075329769 0.2063533972906962 0.3214349463485884 -1.525494898073947
Ni 8.896874972937052 6.340329059239521 2.1715712655174673 0.6320738305229372 0.36006551423659283 -0.7832976338293414
Ni 1.5067508030027297 8.88737431131972 8.085178761501625 -0.1336924792908601 1.5700482592042895 0.20082449705266703
P 8.989641747471717 4.6533083350183215 12.500031689133085 -1.521873499271276 -1.4270411873807232 -1.8918727276818126
P 6.906197051227483 8.162990860028811 7.892977950487873 0.45199890731279574 -0.1358429499749596 1.8283117151007158
P 0.23309471973166002 2.712382895707575 5.888283286457014 1.6106310657226586 -0.35688737361892725 -0.5428295542431232
P 3.6635876436071855 1.7761010927255634 8.045853675198133 0.1716635592179947 -2.0761588607598243 0.41405379552759014
P 6.90962214239994 4.25764964222183 8.145593823367838 0.631523357336106 1.257038560804919 0.5894937910688816
P 3.646107546152112 4.8457667278205205 5.853069242827819 0.3433572003429764 -0.35226118770082554 -0.40794151198226514
P 6.2177257275431534 1.7848364751163528 5.111546336664384 0.0005355607884958518 -1.1397972850915465 1.5788853978799453
P 4.775137054814651 2.1697532607207517 1.2167715717878012 -0.5606015335145635 0.8801680591958454 -3.262926601063639
Ni 0.5220669554765394 0.2610171455596544 5.225369489137189 -2.681382660969453 -1.730642447982 -0.15717462157320028
Ni 6.312601686287561 5.960414586628139 13.33977911729073 1.7980732279311484 1.5325528333619929 -0.5452862433137319
Ni 7.687556474201906 6.438704770544341 9.11392962673383 -0.47610994142838653 0.7973700527620075 0.34015283447306577
Ni 4.746289761043358 1.9495768276400858 12.700468584505675 1.7345206999904839 -1.644883302037309 -0.6737061613517429
Ni 5.995626763722634 5.159727196846745 6.149927587675495 -1.5303784514184933 0.4924279618621197 0.48015660069393434
Ni 1.2794908707397892 6.799515260512618 9.42238381839834 0.37121818841930265 -0.6165281694788544 -0.2886896335967673
Ni 7.195957897882642 6.56935286679291 3.6871666431908707 -0.09442916291486317 0.3409940994274385 2.1216293343877974
Ni 4.203856112199918 6.9671767398401085 5.509674454867503 -1.4775908753038165 -0.39133269978099056 -0.2535868763563633
Ni 5.207790465343075 2.180607159994777 9.807972556494336 0.7288663514636544 -0.3549143090529565 1.1620085310812633
Ni 4.314280304986051 6.249186169892887 12.125261386151832 0.12885186336910714 0.41457212992490533 -1.5078049369933515
Ni 1.2830372866676736 2.144135071978533 3.952894922330515 -0.6642321604230367 2.0933924510292914 -0.6387417294614162
Ni 1.4680295406743267 2.1761181440439548 8.790312640442917 2.244536550137696 0.2385119843011118 1.0431091509391777
Ni 8.971209717320212 6.859711004551713 11.409923162011731 1.0724138134405659 -0.9558801053171797 0.0810609691380733
Ni 3.8710063120209615 6.222905361332564 3.0294026151052744 -1.9179298297801808 1.116570196242806 -0.9150684706174562
Ni 7.563217265235573 3.372688210785706 6.026747496757172 -0.5209882899983156 -0.8028845548223333 2.192697711089533
Ni 7.853715393096793 0.35746939285727103 6.556168598947323 -0.29972352281342574 1.9483400666409219 -0.24565090933873823
Ni 2.66184646873522 2.7766103546962637 13.358205547838137 0.07761697645353084 0.8514339244859466 0.43020495136615583
Ni 8.63344159820969 0.8977126632315683 -0.028985417339010326 0.5838985563692911 0.029675158466929544 1.30008114171769
Ni 5.846341318505683 6.074674508220483 1.8941090159932723 -0.3865936424341084 -0.6661337483211237 -0.3173540914109954
Ni 3.101126077444692 0.27027422439878257 13.246062276594332 0.34916377972242446 -0.2317427838980783 1.121266830387527
Ni 4.653280336997838 0.018613084017297374 1.88576373935455 -0.587913076845323 -1.5051975812774914 0.037138556723510234
Ni 1.790706726744351 7.018011812364286 4.040902033383019 -0.48309819982076146 0.38066313588228634 -0.2903415673778935
Ni 2.389901695780934 8.628504613931135 11.220823598400177 0.8810257792104503 -0.9471828346534977 -2.5193008319026227
Ni 3.176683402055622 5.484298915636139 7.915967125106709 0.07744394121077629 -1.5736084657517222 2.1244655182850125
P 7.95598282924879 5.371896196069187 5.44084505457871 0.8601201394060348 1.6652860340633773 -0.7339630492602716
P 7.1735874795164865 4.358181201103863 2.643144724319726 -0.12480546121387537 0.38384101938963566 -0.4800252173223926
P 5.07378260663651 7.712232062921187 3.604309301372595 2.3010979914725076 2.229589956130192 0.28292522030916434
P 3.670764469524405 6.99111504735333 9.988015693746892 -0.2939200287577712 0.8589598005493466 -0.3865972419785342
P 8.353153415151379 7.054707884544397 -0.06824890799743982 -0.8389478762037939 1.4531458548875749 0.6349946037141581
P 8.931947159929132 1.6177536215455168 2.1613127908123864 0.3446175551126388 1.2586565560243164 -0.5460010099925694
P 2.4044793317792386 8.642344968723378 5.830968538725652 1.0334490021415943 -1.340356701408285 0.3772402262436664
P 1.6861994489536893 5.557196428301157 2.3891774803177657 -0.8353686434929677 0.0647131239076692 -2.0391532300697524
Ni 1.5918927832924428 3.119940747209469 1.9057879236042057 0.035336984738397206 0.7303383080234905 1.118179449711455
Ni 5.728861624557759 2.2921886042942194 3.1191586691706354 2.352016118478614 1.0968778600202014 1.939094122562622
Ni 6.671200332637658 1.1976619895405998 1.3986999090862315 1.9779118667607674 0.5069896617263784 -1.4840476866727539
Ni 5.155462165059789 4.030343046591417 13.318757270244518 -1.4909757812511548 0.572421408967627 0.33935013606611236
Ni 5.377141158573059 6.487486654899742 8.2562205351688 0.751759454011744 0.6564782275092308 -0.5180754872268948
Ni 4.095783753134382 9.335939930156153 9.618189841182991 -1.167670871573363 -0.01342295827412527 -1.8926944522521598
Ni 6.776892859962112 7.23180469677476 11.247514111326906 -2.547286518482271 -0.13825798717435545 -0.6867941048839526
Ni 3.129488072194274 6.350539004042431 0.5809729240387022 0.029093832042162798 1.4227569581830724 0.323935601283255
Ni 1.7727786609615452 6.3642393687322585 6.257070412460985 -0.45246659097783365 0.012388089251707698 0.2746331555037012
Ni 2.8797550621567383 1.6636890404851168 11.281934877709075 -0.7112540376985299 -1.3586968944783697 -0.5211932069202702
Ni 3.2275278072532934 3.375301359364147 9.856217812123809 -0.019857401045559348 0.632233496029253 -2.6171924994447893
Ni 6.426376308858194 0.226328531448196 9.851122172395849 1.5936070203608361 -1.3060018780774993 -0.015160766900838406
Ni 0.8075478380671511 5.839015169812552 0.016718551297927455 0.4136645305089715 0.2377180276449067 3.0360650565172618
Ni 8.248076844277557 2.2159499945181955 4.151242232107702 -0.9816037353355287 -0.2795462765346024 -1.126009487278835
Ni 6.251463342225529 7.8290491370510065 5.97409068636688 0.40159731493179224 -0.1587666486506685 -1.4198883783860257
Ni 8.834066080319518 5.351252322299501 7.383212391944346 0.8334086915531196 -0.8013457495803038 0.19371745369424057
Ni 3.5842879169249877 2.1211113664677663 2.8233390508828906 -3.0587915515804998 0.01679830250426139 1.9118185746761205
Ni 2.2636119580542653 0.2035493419829837 3.543129893547188 0.8767837161046449 -1.8235443756190592 -0.8891226972859719
Ni 4.109120143557928 2.5721501437802234 5.286344511413069 0.7063951669443318 0.807486572370719 0.03289623650738851
Ni 3.54679856749785 4.332087046013429 1.6816255056740677 1.2247593890562392 -0.8331112149173587 -1.1474969677286497
Ni 5.56116281453629 0.5107921526279147 7.367559631959482 -1.0421786687051084 0.9030138534457672 0.016692115943700285
Ni 2.657702761703692 4.445488361644285 3.8427329776695767 -1.311550061589238 -1.9219402364911542 2.3088010165437205
Ni 0.21143078474903243 8.934252330282257 2.1199391826768657 -0.36813363595670795 -0.868958306522955 -0.11854071125108619
Ni 2.5813428271722403 3.4041579858089346 7.130802771148606 -1.2188121703338688 0.5437479522923345 -0.6249829851144268
P 5.021155660801402 7.734583815940353 13.674609310785206 -0.050304918902139166 0.4219758785881442 0.8675395717985576
P 3.4422352936662217 4.323930289379294 11.668043445718713 0.9455262728866812 -0.2156566769694931 1.9844319272674729
P 0.7281305196989233 1.672293765446984 12.062154781249827 0.8027575423261659 -0.5367100716089467 0.17675048682259883
P 9.24149327439249 1.04850720175257 8.513903116488894 -2.8365327959134565 -2.3685076883757334 -0.9547279939906074
P 2.0660859235445885 8.579853387004654 1.1641679576364288 1.2804415131098914 -0.21487660427035896 0.25035988477863336
P 1.3792664830687735 4.345152788905636 8.998904425914942 -0.03861205594524318 1.3178963155222398 -0.37311771943486066
P 6.907783605721537 1.5187712864635594 12.415138891225673 -1.2039558220473265 -0.4951810991272246 -0.03180737431858393
P 9.156743266389542 7.9743401980123405 4.04525945863757 -0.8924635887337469 -1.4624792164733587 -0.31098469754954183
