# total energy = -340877.4513878929 ev
CRYSTAL
PRIMVEC
9.20931844276153 0.00000000000000 0.00000000000000

0.00000000000000 9.20931844276153 0.00000000000000

0.00000000000000 0.00000000000000 13.47876843315593

PRIMCOORD
 96 1
Ni 7.335968206105322 1.315744555261139 10.93911225981118 -0.28742465084141466 -1.4645805790870778 -0.9038692594675273
Ni 8.734366395648218 2.3566738346892 6.829044948435625 0.41962177653367083 -0.6671837868521929 0.34205519370210125
Ni 4.017813883402958 8.858517219464634 2.1819702983755302 2.4299920209334602 0.6386406851071775 1.0364739050108474
Ni 3.565774480760063 4.300760987544759 3.0056167570217656 0.05420399684622924 -1.230435356395094 0.6448974646501667
Ni 2.319081396233699 5.90943554829159 1.920522348465569 -0.605204516935919 0.5355867566377809 0.9316703408401954
Ni 0.9213462776287746 8.327636840433316 5.219841772802134 1.6651384527419195 -1.3873371839228816 -0.3372852831172836
Ni 0.6197926662220312 0.4915298816583373 2.957646337455165 0.14119238721233102 -0.5158268004020341 -0.9093577933859243
Ni 3.6248706781066957 6.546655928999949 8.546429068530882 -0.13794534102994307 1.1644047992275817 0.32830364844396365
Ni 8.445221420100108 3.9202043157425313 10.001745451575548 -1.024660714426003 -0.29304379680040504 0.39942087610576377
Ni 6.853096004846793 6.442461698552732 7.837149453638565 0.4070948477112537 0.05514399216199535 -0.11649205625217356
Ni 1.967939287985335 5.6531954680402725 10.536825279880683 -1.6707833097325224 -1.1480687810717196 -0.2072648533613721
Ni 4.466390582258672 1.5026476759016107 6.154634576493838 -0.4492982205521811 0.3925604015405046 1.0366579959971953
Ni 1.762562274267515 2.1130781488522397 1.5548700378579476 -1.3038457509664447 -1.1876946229934577 1.35520225106155
Ni 2.508664428581802 8.442320484746485 12.092194462805825 -0.18445325478349525 -0.366238218706208 -0.08112833204089899
Ni 3.6904318170985415 0.7337681139361747 13.47707060987341 1.4346215708311423 0.7752444245075616 0.8363914283305274
Ni 1.957569595260961 0.7588248279365981 10.229091294772937 0.07178751425594734 1.2707299422490825 -0.7940613001037485
Ni 0.1318848095623585 8.468309181787502 7.574340366442048 -0.32159306919300745 0.531154174787724 0.5042609499413058
Ni 3.419926502362273 8.27460958403283 5.685560697268106 -0.9663743199802841 -0.18177956460607403 -0.6889119225579039
Ni 3.8454522768049255 6.437939923128515 11.454190369086058 1.711476930797143 0.26213270904384534 0.6964547679021683
Ni 7.5890494900826955 7.329641404238853 5.343603963374353 -0.3602588611943215 0.43894850188674084 0.37606780320212
Ni 1.4778653995949584 3.1431864789453643 9.622102344176746 0.33495406388094573 -0.5677561422814738 -0.5979601766686798
Ni 4.714719857847258 5.689323624841089 1.340541566477524 0.33401921077150215 0.1865240212695949 -0.40606974888084907
Ni 6.014237593765281 1.2153906106630008 1.356489343467576 -0.25679561310164806 0.24599595138298277 -0.1999955733934685
Ni 6.891287049010185 2.405787130691942 5.303140980316552 -0.36943744236979603 -0.24282449563353667 1.4240494517422508
P 6.226853131889281 0.2784262496494428 5.5076541599512945 0.30316777260828437 -0.31940917416781117 0.09267875588265974
P 5.756035928655801 5.021123096419768 9.300714623337957 0.9010495306305449 0.15792718346850865 -0.3700773899466401
P 0.24249056760700952 0.5781960160466736 0.5068827366679323 0.5195908954301568 0.8604320142194988 0.6375770197293534
P 0.08826947675362366 2.231767846748983 11.12156083305309 0.03260853006364062 -0.43151981352283747 -0.025572449152465634
P 7.689210038990592 8.473807144981508 9.024507819466999 -1.4755612464682974 -1.0542872790431843 0.6488873025358503
P 0.9207080718509779 1.17484198094238 8.338316887193933 0.33490135626613937 1.0481197167798917 -0.47168250178465215
P 8.883492891461529 4.27070177169009 7.892277355607815 0.5378297870356866 0.783948894260095 -0.15204347099422202
P 7.386453690576919 1.6213281644797706 3.0989172845172415 0.6310572163329647 0.696759957847413 -0.42647685178229133
Ni 5.827076612204488 3.66924117503923 2.3059479870025887 0.28783551312658817 -0.42514887699948717 -0.35746252939610695
Ni 8.427023806580246 2.9289685193879356 1.2781696145109451 -0.246046345004944 -0.3800699823829777 0.2770728752934454
Ni 2.839122407292915 3.263506226231285 7.46651029701829 0.6676270450371985 -1.837903472554209 -0.5776993695371148
Ni 1.5723622175743563 7.7933213855705645 9.870192177482174 -0.036243041492434354 -0.40366293921156937 -1.4751557834997626
Ni 5.501564037572406 7.125608951034139 9.63068819189161 1.8005078055145702 0.9333281881585924 1.713990698357932
Ni 3.27060661085872 3.3086226779690366 0.3172048483384252 -1.185637997574745 1.1087897809664387 0.7227898062522713
Ni 1.838640455081062 5.2428190226665325 8.123883429581666 -1.9083391007679522 -0.8938064759148865 1.0867636544043349
Ni 4.8495811191756175 4.391168868073338 7.271984623386731 1.3494964589260243 0.4496674309661417 -0.0030704113952076152
Ni 0.18299652769759464 6.208784448829581 6.721417484020692 -0.875552414800705 -0.18912906299260976 -0.5926372217938698
Ni 6.09967244225908 7.140417535315484 13.132323452449029 -0.010611714077575272 -1.642823334184487 1.295566284566472
Ni 3.7703318651240028 4.254760441223046 9.525715774024132 -0.9298543706773793 -0.1976846658721047 0.6104727073133938
Ni 7.419791423847109 -0.06870796315163176 13.158216372576781 -1.3438086645126275 2.0009216973923802 0.761011054516999
Ni 1.6698981106861195 6.238134547153364 13.222806849389988 0.4299897500315562 -0.8599643305544609 -1.402335971324559
Ni 6.419880449387398 6.015987364296037 3.181959552043197 0.9820955873702828 0.031691160455693805 -0.3649632086485263
Ni 5.283505792165897 4.359838766254225 4.756010758645661 -0.07098918672436808 -0.15220390783148627 0.2784461014918882
Ni 2.852558803105403 0.08087163113595966 7.892816100744917 0.4937058001332788 -0.5028596987184049 0.8116041940835184
Ni 3.144650760600049 5.7945124616952635 6.27033677144228 2.0743791431515826 -0.9569977638613905 -0.4524305955335757
Ni 7.728874574127253 3.912477697451457 3.85770435424765 0.6574213081487904 0.4115405421874332 -1.548918933424842
Ni 5.734569007039002 2.963356114976579 10.262073548345827 0.13849915665088405 -0.21700264947442624 -0.22980597188668161
Ni 7.418529747201249 4.72218861521801 6.049729386652018 -0.036821282593407556 0.46410674631992327 0.6531401642749332
Ni 5.128908961114329 8.820841897141888 11.843093446319992 -0.251330990442651 0.009666576555486578 -0.7754423994509807
Ni 5.329681315540685 1.559533636788341 3.822079947173319 -1.5142069838649534 0.0890056779064467 -1.2188615355145653
Ni 8.382220471674314 5.631608825281895 12.947907768757807 -0.12281902691146589 -0.9211306176511362 -2.2608450574897323
Ni 1.0247761346336102 3.936642949413053 6.092200922092753 0.6116402452589338 0.382815920559231 -1.4284542656781658
P 3.2093462236451002 4.252909368187878 11.795135919799407 -0.1679413731714011 0.6758427480787715 -1.0507671817050679
P 3.856604761608848 7.514748707755653 0.3406959781797514 0.5420564235225245 -0.3388261452418423 -1.2780539867143215
P 2.6307431557170613 7.895830310717107 3.4872539886583245 -1.7392818688245528 -0.2120360494977703 0.6456960492920621
P 3.7579177036742193 8.45977214346113 10.133621051819324 -1.526478859253771 -0.6146533210536447 0.12119563237542999
P 0.8512421817799715 2.0920072279345066 4.3675930125010485 0.009278854198764664 0.4899188222870207 0.2202090722268659
P 1.9990391568398744 7.30690359665761 7.139919311180146 0.033130978226013914 1.1133226358397859 0.3784980099101675
P 4.700224390397732 2.1737859769508843 8.408298499105584 -0.40407971503401374 1.5769498714201293 -1.162635880252617
P 6.656734914021657 4.719490284873212 0.4950644181304641 -0.30024828496864425 -0.04070647658042666 -0.31475959121094177
Ni 0.18585233739015983 0.14084455561168666 11.655805376162752 -0.2178274593685668 -0.9619728484784787 0.460701063072484
Ni 1.0534907899751715 3.9293675877325422 11.92525990764871 -0.5159918652249887 0.9975988252122047 1.7764111695766824
Ni 8.943556067259367 7.482948930688812 3.3242149752617873 -0.3088838491564551 -0.5765246325027232 -1.0235381707857856
Ni 4.270287352353859 6.575020630235359 4.011551546766569 0.15377819429714162 -0.25012000085368535 0.11556620200379451
Ni 5.293433437598291 0.38472020473356816 9.237674074842259 1.0189806333220903 0.002393439932841039 1.0684995659878245
Ni 7.431542514358922 7.809686344692423 11.179911075594507 -0.17936684139952336 -0.08312710763848265 -1.0427962476844495
Ni 5.11478186640812 8.476192358494485 7.126750906538422 1.667955096255108 -0.9016871642145438 0.5730207331145228
Ni 1.0007490224507578 3.980009630620049 3.196463307879446 -0.37985863770311995 -0.3862820247309605 0.06009439418873522
Ni 6.466801927567403 5.052941292123776 11.417353094754356 -0.6152701287020371 2.608163556473302 -1.4508778847890045
Ni 3.5475676579216193 2.0483090112585254 11.316005464681119 1.3057825629778415 0.5012674145306206 -0.25302997541162875
Ni 7.153172441552835 0.8709795933668972 7.691551047774373 -0.5785167232320875 -0.530800133882415 -0.7631777231510146
Ni 6.945143144083133 3.257400448010805 8.151568483105656 -0.9021669320644399 0.49760384963610427 -0.11788482283464213
Ni 1.7048843119826533 1.7230819255025138 12.68050231065655 -1.118189477013784 -0.6360870654473884 -0.23205414449091002
Ni 9.09101567640917 7.707287931368875 0.07406962843061095 0.48459226786778475 -0.39261182360373026 1.05223939537522
Ni 8.736281933913466 6.155591424694604 9.397410626594958 0.1464852601801542 1.0051588969476495 -0.5743623347440818
Ni 6.443262909269445 8.539810331265334 3.1828491722183077 -0.9105903802414448 1.5079625456171384 2.3656131404367584
Ni 2.9504630689604836 0.9104912538150806 4.2470117205673725 -0.7435707475533645 0.06752436810421919 -1.1522097998232865
Ni 2.0901377362621725 8.396651473893758 1.2106671511618183 -2.5934805005398305 -0.021792670395059242 -0.1746082436686154
Ni 8.40612786271559 0.5161896740278367 4.902012532663787 -1.1207212422967021 0.892531980077837 0.12082847884399836
Ni 8.589448558427303 5.442928306154919 1.6871508481193722 0.21600326167563444 0.2238176155137307 1.503906887490526
Ni 1.5887548046519635 1.2705360103375583 6.229212559310226 0.33498825955299083 0.23940981352503282 0.14725941934201733
Ni 7.544946063389066 3.320410605755181 12.220161628243007 0.8304928034579053 -1.1373138565480607 1.6043925410121143
Ni 1.8686167870684844 5.737884361728856 4.476528200154757 -0.589110953808166 1.3437425871613826 -1.4036876002564471
Ni 5.0723729543337495 3.497487383467671 12.559839976719346 1.687939509796835 1.6403103379546458 0.5467425161442842
P 8.915062435563797 5.638257953298767 4.554125918534487 -0.46511616142104417 -0.3219255128317617 -0.21538336870344843
P 0.17477352713490052 6.966121971815037 11.316531316772204 1.1801458641119225 -0.601887536747544 1.497260585818602
P 7.305807687746241 7.633337103147984 1.6743867325634372 0.9943134695927134 -1.7435951514879262 -2.771204664129608
P 3.8643590078556715 2.0246594811375727 1.9667816766394617 1.717687944703861 -0.7733819173775262 0.9241344374744666
P 1.2195900599368146 4.110551721533017 0.9441678900091223 -0.5378382716761189 1.5652518662569106 -0.4879365017496693
P 5.623578299477584 6.5419683858412405 6.040577165844306 -1.231453513246963 -1.290008073752404 -1.0835343488337597
P 3.4343667139003005 2.9702354759580243 4.8251165643600755 0.49109895863805103 0.7904663836636386 0.8102857323824109
P 5.759351283345654 1.572150403246949 12.45583822103051 0.5196652003115179 -1.2113130337433462 0.434372195369968
