# total energy = -340868.753055703 ev
CRYSTAL
PRIMVEC
9.26890271406399 0.00000000000000 0.00000000000000
0.00000000000000 9.26890271406399 0.00000000000000
0.00000000000000 0.00000000000000 13.56597603707479
PRIMCOORD
 96 1
Ni 4.772159529177699 6.405562669991188 8.931580622674428 0.39185051995767356 -0.704430072798161 -0.6168765539572085
Ni 1.4067506587320915 4.0754068309181495 11.453102230571435 1.1073918721776477 -0.17013015329260378 -0.375709648531753
Ni 4.691418116205423 4.219529001771773 9.856550393821221 -0.3619480759712863 -0.7408268662596402 0.8479351673040687
Ni 8.40853550636553 8.382526964889212 10.960168999043049 -1.4475909865076166 -1.589806158557507 0.16419553297572367
Ni 6.221806670430246 5.825236660785106 12.134521382799527 -0.6791281036982627 -0.11858107757071837 0.22583001795806915
Ni 1.934911282539486 4.995679122086255 1.6006227388943355 -1.0395836542844226 1.1636031292618927 -1.303644690699232
Ni 7.125988146201741 1.1888016764533533 10.284665260631845 -1.05886538533217 -3.377712987478615 -0.017162370711899473
Ni 0.11530329802462576 7.774208868990869 4.377048444845593 1.0908396242459213 0.5603950739307123 0.3776215208424851
Ni 4.894073408735079 0.28839635171445 8.797901724693707 1.3215603946373884 -1.0811424515628154 -0.11229318767947756
Ni 0.6716858773156598 8.611088840963525 6.831866393179407 -0.3029106622921557 0.49567552226513995 -0.29614043344785773
Ni 0.20158566113750828 4.207433083515681 13.488311384265979 0.7203164050111143 -0.46932222908259175 -0.41763817044473883
Ni 3.8326635334401415 6.300833336370049 0.6911320355541897 0.9956139335716918 -0.03238561541955713 -0.90811749322092
Ni 3.2435784110141306 8.011261060101644 9.705913111134487 -0.9860383740681149 -0.5513419625895085 0.19288467338030005
Ni 6.115659194668737 1.6886179952591154 6.607891697139531 1.6030067164081812 -1.2533569981882737 1.2648814538881055
Ni 1.3495893346820373 2.0644627380685296 7.897229455551911 0.31101143702241923 -1.4601634238559884 0.28827928553222615
Ni 8.252762324593968 2.0833620310372436 0.21842447699639167 -0.15152179416279712 -1.611142201031122 -0.37335220404316993
Ni 4.187254681949771 7.818301039982617 2.499694268509061 -1.434743441120987 1.1145953319046222 -0.025411240984253014
Ni 3.3676704827478954 4.742480502161601 7.391232632306944 0.7845857565131455 0.5680914141337055 0.4021555014281074
Ni 8.288679323247116 1.9214806422689283 3.093965342095443 0.3043450807458371 -0.011032860775393902 -1.0419688666871476
Ni 6.691480517075999 0.479139250265003 12.556423304010874 0.09343080355733586 0.019858429486823863 0.3441604129705621
Ni 3.3163485675111275 2.26730340865575 12.214682562451626 1.5049893219214274 -1.409767745012256 -1.512950485750033
Ni 0.1133132645766694 4.900728481001649 9.502952871700137 0.3632169153813809 -0.4770100846451527 0.009754251173286427
Ni 5.089619452757132 8.542471152955976 4.548495341384243 -1.1399991166897077 -0.16201086661957903 1.2032076310273925
Ni 1.1259863216475776 4.110999417970558 7.006935576962871 -0.32144420231996895 0.3869759654741916 0.1275071764157546
P 2.5398925734016644 9.194825806428796 7.9750029658225765 -0.7404807957741311 0.5024874029806508 -0.0544870753042868
P 8.259602774918104 3.8928187131198646 3.7941327041753325 -0.48473650675513286 1.1201831104050448 0.2854207330375084
P 2.1270092946908363 3.853824438711144 9.15901447326846 -0.4909657754942963 -1.4908212579511617 -0.7454088292033678
P 3.4315610302875466 4.9654532298003415 12.147870456724757 1.0010721284727857 -0.7949647857546245 -0.5983939217719888
P 5.505478049291872 8.059236901399371 13.415230719522562 0.24718380104349685 -1.0220960390226204 0.04464257841003924
P 8.569471467040264 6.166536202567351 6.645158248051748 3.4737097519909144 -1.138580124854994 -2.0595317937261046
P 5.5300962553364545 4.564137541881546 7.800313807057122 -0.1157595489615232 -0.06279919471440797 -0.18944993666713822
P 0.5647292263328816 6.249010900377856 0.17214855248653246 -0.4511620132337972 1.4678435661090656 0.028641060775460348
Ni 2.465945266239132 8.520262861659733 5.16132461231342 0.5394302987535872 -0.9848217280521941 -0.19536681637220546
Ni -0.049184506233048285 2.4207686336106313 10.14440636849787 3.1496237411727237 -0.039230663365848566 1.3783938586866649
Ni 3.967711448375976 0.6759644028842514 6.388394808080127 -0.34198166015168846 0.847893772543172 0.16492752604574176
Ni 1.2076731627134327 3.1904490597161073 3.363847060310625 -1.6600525535785797 -0.1401084101195329 0.9012261654177253
Ni 7.186857031403088 3.2353568941611393 9.945569863954045 -1.9305477756545073 4.4449971930020995 -0.23155509336730443
Ni 7.102065107873026 0.16491324689978487 1.66790941244857 0.8616165214459032 -0.7316014910066304 -2.5774463298951034
Ni 5.709709055310827 4.773447906677773 3.9668679782140575 -0.9639831940402882 -0.10846095841758095 -3.635203055544127
Ni 5.585255496364812 3.0605268480719343 12.034906629786597 0.8592333659257073 1.1588514735095201 0.24316773790556828
Ni 0.1757550825964524 8.729443461815665 13.536212147450392 -0.0548683699031055 1.03120520041274 -0.6163921581216223
Ni 2.46385976309153 5.75655409045741 9.987027812747797 1.1814324441338298 0.12227189615874427 0.6000085745572763
Ni 5.773219577832471 1.9646551918757313 0.5709440257127358 -0.44892515348347845 0.7228165457251488 1.4034302328300023
Ni 2.8645637034203615 4.24758597078418 4.929306362355814 -1.300940918614824 0.525461752388637 -0.7410466955799302
Ni 2.25986047964453 6.701472394378733 12.345269354432169 -0.6621775918868532 1.0470377965696225 0.09080545011934685
Ni 1.5115912191877696 7.688740315550697 1.52358147195105 1.1853549191166877 -0.41885764467413666 0.590808396115247
Ni 8.397412822911651 2.9710819352969993 6.261037301862363 0.48627736887969164 -1.4855952336655318 -1.0229594154641801
Ni 6.933815982827365 6.910050515847579 7.433232811919075 -4.46580358822449 -0.9748489331101985 0.20938061415279427
Ni 0.8768604576476193 0.9584694399292975 4.584377118206453 0.14263220498265114 0.9696126244119235 0.5618302637153421
Ni 1.2238566671388251 1.918023341495348 12.675370207756933 -0.6613026454810675 -0.2628482470536312 1.06047720990398
Ni 7.777174917911903 9.089392036188912 8.047350460348326 -1.8753397630237962 1.8879294267633489 -0.9489178150667334
Ni 3.4917254788701477 1.2389000965101953 1.2418170202459748 -0.61942271741783 -0.7008171586359221 -0.3211732080467694
Ni 1.4444750934464945 8.88733922234634 11.536384249822635 0.7270166998494254 1.0638355848532517 -0.5496411778483179
Ni 0.3808675612791278 0.15226768270301344 9.324058411698829 1.3675114074462063 0.27482547402016544 -1.0678171952088191
Ni 0.43572092851250255 5.0657334900399285 4.992821519328896 -1.8118427709114153 0.3348381071283717 0.06802496188972156
Ni 3.833525541407817 7.657290928084856 7.140926836970587 -0.43147507632783105 -0.23056110488515133 0.15541495856961624
P 5.880840809151618 7.812962151924756 10.047884648375405 0.40928594182530154 0.4586752908917068 0.5261754906262099
P 5.649146043904462 1.1611525391675883 2.7330426060296937 -1.907261294322741 1.1479883055427713 1.1022144417417663
P 8.235902190258466 2.1328950480185136 8.31553689622708 -0.3154393908867858 -0.36658480341234934 -0.968521448230274
P 7.436774459708848 4.040620638416146 12.837998670097234 -0.9758439500336162 0.32454546695311204 -0.8121659801242594
P 2.6414334044326915 6.336972788692274 5.626122089154935 0.3340102119104376 0.13040172435473027 2.105369935106142
P 3.911597510351162 5.607982846222235 2.835764295287408 0.9452755903284559 -0.594235419518925 -0.711142194711014
P 8.239572675798245 0.7248810378241188 5.670930746339169 0.558000862666923 0.027329541052888418 1.0397001252576286
P 0.9842555277365379 7.339135836789556 10.054612944974712 0.7403021041044219 -0.6036752247755862 0.7752557373614712
Ni 4.422360403456115 2.4423095638996415 8.089201410624117 -0.6680397070945849 1.5928032935126182 0.22418939703085258
Ni 3.6500846845447352 3.6857606917230483 0.2989397287384385 1.0218450993540789 0.8446048173792551 -1.5007513725806798
Ni 4.800309187218888 3.48636805300653 5.564735999172982 0.36204346389857 -1.7017129094318435 2.2310452005194805
Ni 5.933997967158277 4.794117560096229 0.7429433488629288 -1.718285211968228 0.10434899313173643 -0.18754757743810282
Ni 8.867522307992681 5.893817273181143 11.724543905141026 0.2478669431534505 -0.047937961331859374 0.22886391968838649
Ni 8.721926381581419 7.056832861827256 8.65894604030441 1.4194420348772263 0.6257520020699674 0.6869211173801202
Ni 4.9984041795324545 6.317712008511308 5.601445489022218 -0.4917011109984242 -0.0012577836665010596 0.06248680568031174
Ni 1.9742763130633356 6.094952465638769 3.6425462858338693 0.18780623041612818 1.7799790894335987 -0.8062177329606243
Ni 7.6988897642023595 4.457990066120038 7.869758281201408 0.49912080050126295 0.5619960998692449 1.7291766620697513
Ni 2.801164407733257 1.0925626578686745 9.833487509679603 -0.4454397660380393 1.2718010638260742 0.4509529825467847
Ni 1.5542930547477827 6.363213052740548 7.758625989471987 0.3780115571920522 0.7516129011315507 -1.0603144590738707
Ni 7.644249581735185 7.5203985014762535 13.112709486711974 -1.146899957574599 -0.9060991772393104 0.8528354328191635
Ni 7.172045324603674 6.0625576500793485 10.009858974317458 -0.8887164629864887 -0.3785322055822126 -0.525441697783979
Ni 0.5528965449185311 0.7761436320824666 1.9279151146469968 0.8720238328221562 -0.07019214474436944 -0.5226304535874289
Ni 3.1705023807221524 3.33357945796176 2.3222642951625123 2.4836198335612454 -0.5997751183902316 2.694051257576057
Ni 7.780891747966075 3.8763849483167596 1.4655599937138957 0.08597280461739387 -0.04132739799387721 3.0386603280482634
Ni 7.389734777601822 6.572143392518767 4.395565859015724 -0.11442514642081583 0.011645554658728331 0.8958713288637152
Ni 4.631559541417803 8.996443478126006 11.45074236789864 -0.6308870093036877 0.2723289328505568 0.23511247170125962
Ni 3.5912827646852334 1.5953635634012269 3.9260616332926426 0.11132953821462763 -0.7288146722901125 -0.020710750184790138
Ni 6.777672044940675 4.7812245161926095 5.811257301464158 1.3617559930196677 -0.6812176392374396 1.2660129963893871
Ni 7.10282515790904 9.251115853608297 4.0529714515013895 0.9012989276371898 -0.16202577901791448 0.055571052397084944
Ni 6.172514644923811 6.561641725557731 2.462970875305508 0.11525458430064667 0.38749507120245524 -1.2522095148473917
Ni 6.644978431335911 2.376157404057702 4.544100027639385 -1.0077279432264066 0.776710981750759 -0.9701121897561615
Ni 8.962454411271528 5.855666468934341 2.3124837488454024 -0.15916902629540977 0.3283933799442925 0.2816296414261924
P 2.545982242592662 2.342724471375921 5.87527483297324 -0.11918425837235604 -0.12965713287922184 -0.04037866092736272
P 8.118168585899168 7.887511937774373 2.6643850617397686 0.22963859307088194 -1.3032734234027428 -0.46592014537957827
P 1.228250127103107 2.8076711775537757 1.2021757764163539 0.4813303092870614 -0.6067998864474968 0.23120490911673733
P 5.9071088799085265 8.54857935995273 6.706869676524727 -1.3563937002664896 1.4855034452826739 -0.8658267028725087
P 8.763895973814051 1.0308873781169212 11.872738831919344 -0.5775415038030117 -0.4070578238257312 -0.252182796919985
P 2.082166342565952 9.068509198004255 3.115915031001383 1.1561387025640477 -0.03877943476104289 0.061955615767190074
P 4.812015811554095 1.8457166301422632 10.48839852656624 0.09113043755893337 0.26031725310166137 -0.9869811975973583
P 2.902074953368565 9.033639585376347 13.116223327793113 0.1517393094902419 0.20061340948312545 0.49484171350993483
