# total energy = -340866.8820296564 ev
CRYSTAL
PRIMVEC
9.25799482011552 0.00000000000000 0.00000000000000

0.00000000000000 9.25799482011552 0.00000000000000

0.00000000000000 0.00000000000000 13.55001123169823

PRIMCOORD
 96 1
Ni 8.44068063839802 8.407638854427052 8.210832397813203 1.9723613692561837 1.0951133119206107 -1.1282383766093538
Ni 4.0599918466921014 2.6162260504734296 13.462410590524037 2.139693133868044 -0.17046233982104192 0.8352377743420583
Ni 3.6286433460545786 1.9697958111938467 5.878794389274433 -1.580364296418317 -1.0999320734654927 -1.2571714868383574
Ni 5.325402370229156 1.7726468087669056 9.610358865170774 -1.0941231800931996 -0.4857186681627441 -0.7451889998830779
Ni 8.213313540459383 8.651522215353697 2.2253451715550154 -0.20170612832667198 1.5922013982625611 0.26650358441803135
Ni 3.279811354392465 6.15927923322972 1.4125071020747724 0.6025809632701429 0.8668456310553264 0.31110939605286425
Ni 6.507685357124205 5.858736943218648 10.25010946109506 0.9597804688128502 -1.4929825272685384 -1.1377751124551954
Ni 2.893003067451868 9.375849224129418 9.691862549498824 0.14129677400067922 0.008186906686166546 1.9142498098254326
Ni 6.9815280545750475 4.018321611429191 1.9119879649363185 1.0155055302892961 0.12850810687644318 0.10467732300543262
Ni 0.42255433123600306 3.1238141395113215 11.740380017538714 -0.5268264939466476 -3.0307899241612515 -0.8591305217992558
Ni 7.278793014374375 1.898518508085839 10.80931827836644 1.2510746299120001 2.325503931120698 -1.5721475649354797
Ni 3.3495796043238775 8.93909405444201 13.655295360477728 2.2065734406303608 -0.7150646696938717 -1.155947412488848
Ni 2.8591002899506957 5.978007692139346 8.174518838427458 -0.7707853602949435 -0.3640162713542247 -0.1533717028873423
Ni 6.454535208125235 9.049097550419324 7.269079526074475 -1.1650779140352063 -1.4915103135983863 -0.850479273882161
Ni 1.5970596765748715 0.44574005378486575 1.1562143247192438 -0.8038438334118092 0.38675485060232095 1.1156849654243752
Ni 4.0051289686276705 3.981585887473798 9.273505793172442 -0.08365212690401723 -0.05248110061785155 1.2779274884387863
Ni 8.990448152420985 6.6518601124561965 1.3255162041407846 0.8556459056847652 -1.6227702721883535 0.019115894893844496
Ni 1.48851894379941 3.873480280460913 9.437718552770827 -0.7388751418499081 1.7862610657875688 -0.572435292924698
Ni 4.920652089078489 8.904274735440943 10.888748171826041 1.1261488410701765 0.5596743937146039 -0.20762146536984244
Ni 1.0000671303199353 7.691218173337293 9.34091695758998 2.018239362735221 0.2923305727834643 1.1870014535811753
Ni 7.198646552105766 5.252329016101151 13.586867668214849 -0.9151124364815143 -0.4438138003988421 -0.1794617151061748
Ni 7.701624159659335 6.905742107927152 12.171500771500504 0.1733553450981208 1.2612824236829376 -1.1728603861941025
Ni 9.09635961463109 0.4773051875615577 5.995690462490858 -0.21132822479746832 0.48792107513070154 1.104711240021691
Ni 6.631881359357472 3.6411601552248642 8.774716502533543 0.3496522893230688 0.689437970264703 0.18197162601222208
P 8.104208069992067 7.542358872561394 6.12681422234404 0.5425996976205042 -0.3877375262305645 0.7245700380811457
P 0.505442085808844 7.445742437279518 11.467320085532073 0.3609214344789849 0.2343982192430544 -0.38451027754251843
P 7.6961249106599645 4.265454528582737 11.654906504976775 -1.6299763030184895 -0.8117646309207827 -0.7879742133694042
P 1.8182609498778488 2.007059240861301 10.195245657231135 -1.0715666349489223 -1.9125899056245064 -1.5133628906971035
P 4.856049800328305 4.518864366311322 0.9096554032525007 0.8559310410253518 0.7048779589688571 0.4316221434286566
P 0.19190064509067276 1.666355768763914 0.20997132543052463 -0.09933019976090635 2.1857454481414167 -0.9717882919070037
P 8.791817870802292 4.095246291455744 8.225223025161052 0.12433160690125039 1.4294040311859448 0.31564996423569514
P 1.3943466191839204 5.206696359000311 0.5609613557151187 0.6941585156688239 -0.3518575245045037 1.3639249756465286
Ni 0.4124640425417028 6.340171196527207 7.3804069153294165 -0.5557349494508816 0.13498908661509654 -0.8912294592163297
Ni 7.932999969410644 2.6494807683282118 4.140842842376286 -2.8421406290185374 1.1818692745609323 -0.12956534449636395
Ni 3.9943248885228457 3.8990693784983894 6.828853534080898 0.834635107761053 1.6732060602414023 2.5994955963856583
Ni 0.9979470494767435 7.959690768846984 5.080319173157194 0.48398034531539874 0.1470362475876177 0.5371792979358813
Ni 1.774442859786902 7.194934096131442 13.378400766963445 -1.923010329626882 0.278665673701862 0.059253900565310845
Ni 0.5385681175338422 2.8773385399991143 2.021024926241016 -0.03172458479679053 0.7900614349157361 0.6998293408013561
Ni 5.705850414640177 0.5269734046604211 1.1927722951716273 0.9420444849856678 -0.636919845761329 0.12418171158694742
Ni 4.59606678618633 7.353884611401138 9.08259945673923 0.44560791618478734 -0.0283456410222286 0.16027280088254975
Ni 2.988730735218694 3.9746886812372133 2.150658148907499 0.06420198859920556 -1.049969882614753 0.6324844356977946
Ni 8.593696778905766 4.854457425197173 5.453121039540302 0.9348633938561964 1.1659389764839212 -0.5121112992236599
Ni 0.14990452840557814 1.0765566845839123 3.7504942981674065 0.9353691298480213 -2.0235903426344897 -1.2073195963132368
Ni 0.20663474405110838 1.8241860666448477 8.561465995292282 1.3739525350858595 0.6550114131557171 -0.12556342242582247
Ni 2.141901937285269 1.2588373471236654 12.053317836986247 -1.0763164909290817 -2.9098915113112658 2.5830137966805515
Ni 6.576509291570877 4.52296565807348 6.346798069311298 -0.4614055453386764 0.7210250010423647 1.8153824086335573
Ni 3.334479814562979 2.9631416371812174 11.293270706300975 -0.30427540385016627 0.944137877179587 -0.5577964599656006
Ni 3.181213708191623 7.7516358483707855 11.755976035828848 -0.6713754563360372 -0.950740470097769 -2.190294243854363
Ni 1.320708527364062 4.046743655920889 6.888080630964021 0.4934330060878663 -0.3778716891800783 -0.13101236135553565
Ni 3.5472748284527764 5.299998432090648 12.382447889598595 -0.5114124733844225 0.0870611525855662 1.5001543624266291
Ni 5.2459780315665245 4.0620008315959115 11.37612883528998 2.823781152674744 -0.041435898547283474 -0.03765740534145773
Ni 3.875878101152558 6.811967877094446 4.1050708756950245 -0.318380990013613 0.05717799187288863 -0.15290247656040765
Ni 5.384153606171929 6.341596927749266 5.917290058069525 -0.905566187553976 1.0885068623476868 0.3978203643878633
Ni 2.6155779908270396 0.5336178676349135 4.168335384175161 -0.8775265078079403 -0.6473310137923238 1.202371251169026
Ni 0.8197611981026836 3.2623600339146637 4.470392282159797 2.0123569358125146 0.43605472527871353 0.3341698774167535
Ni 8.96780309677711 9.208899801224277 12.661442196367183 0.8280592543157481 -1.6952494131946867 1.8257141295768686
P 8.878157931691407 4.997308287251538 3.1915289661631707 -0.8390671753904775 -1.6883452298756858 -0.39197084758562173
P 1.3647302933438743 1.82950015574525 6.576620387510259 0.7770295414324424 -0.19286101923121624 -0.31809071246670384
P 4.395427519663828 9.387884617562387 8.082622128970295 -0.5572027922456596 -0.13383363285441466 -0.6236745507156485
P 7.479950728613988 1.2314799720510374 8.33751139429164 -0.7796366400379864 0.4595594932688731 1.8015938394898974
P 1.8915564958846154 5.985719601931392 5.806558883689263 1.5167487764502006 0.2461432755941245 -0.25996963995425554
P 6.42283583342179 1.1856528970562799 3.389047362588554 1.6433236708596732 -1.7598216406491176 -1.0902063615372966
P 5.121744997353464 6.727970088927288 11.41169805188187 -0.9326656148739293 0.35739079561790704 -0.943374259540685
P 6.027445385163993 7.194165682550722 4.0132426754004795 -0.552508472093784 1.1947924103805037 0.03527090738715216
Ni 1.4998507296162953 6.250729707330368 3.5670536088606144 0.4473912333374553 -2.097112580193356 -0.7909178693787605
Ni 3.3733726513413576 7.808276261465315 6.385253002928615 -1.313421567580338 -1.7022502699925521 0.6386278295913711
Ni 0.21669911035955297 5.183227341806026 12.290063283807648 1.1237196628033936 3.3098528333015325 0.2721150170675378
Ni 5.292962355929836 2.834723989251464 3.016489907272084 -1.8586476470800957 0.8432647584115929 0.20739520829164926
Ni 7.087874642547731 9.071048256442067 4.891893053570668 -0.2306734620932995 -0.7525099590245234 -1.0803639215255783
Ni 8.014923966709352 2.7173140973154006 6.764274390318084 0.8958854699311022 -0.44988597473485104 -0.916833275827363
Ni 6.823466306820403 0.3723074894528624 12.220524632150957 -0.8556862720043974 -2.218209225097077 2.466755967926371
Ni 6.309406879313555 5.076778915888912 3.9138534706315466 0.2417711146683578 -0.962690957591426 1.2540149434872467
Ni 3.2415110292907863 2.11602584140439 8.212336821992324 -1.1440488612790491 -1.2287533407069806 0.31365016019684694
Ni 4.724715883989793 9.266790043636846 5.5806267749676355 1.276125659343357 0.04245842627452688 -1.045812923023586
Ni 6.478226417198282 6.460747322735636 2.0003064593459117 -0.38532865967875574 0.9316083772540084 -0.4801285756694763
Ni 8.337750250561308 6.981592860539687 3.9034197103246595 -0.8008631535169304 -0.4715074096593686 0.5048862422301305
Ni 1.9527333265038793 3.192471430048921 0.02591035046218736 -1.5403016240694762 0.34974870569161703 -0.1798846615762063
Ni 8.82481336479852 5.957658619242683 9.50167463347361 -0.8056448911762898 -1.2113667697994168 1.095153678240243
Ni 7.3599485980923625 8.132648630473662 10.109582355772753 -0.6314745063760415 0.42745618497642507 0.8845204226272703
Ni 0.08516985032763028 0.47311872224587503 10.56117716556301 0.5011627706319562 -0.0036982747871936307 -1.4242741661585472
Ni 5.109302252142767 7.0648685251008665 -0.1500063663500109 0.8592158824242105 0.7432349614805006 1.8754652328580668
Ni 5.716774848679332 1.9069432834889155 6.981575270349285 -0.4695045202967269 -0.3235298812044041 2.6762049734232556
Ni 3.463452942189638 4.404241130854739 4.856283101801004 -0.8473363573778052 1.429060788913913 -2.4625020777460236
Ni 7.73598057891298 1.8042073135461232 1.4747023121383642 0.07337954133341555 -0.7556356491376987 1.4779873394112868
Ni 6.79826604457076 2.8358442066402247 13.222616485966116 -0.7790013204468325 -0.16087983833892938 -0.994472877988713
Ni 1.9815997547531023 9.157240189412004 7.698370900234455 -1.200093510878443 0.4590252180319578 -1.978435600474722
Ni 6.714851510085354 6.886115158636468 7.9439512516351485 0.32994144115770274 -2.284766087081704 -0.11603774232357435
Ni 3.497781587458438 8.616545510438506 2.5056411524133537 0.40010736064982705 -1.5975729469871196 -0.36060107502508865
P 3.7537558897877408 1.2056131341651077 1.5446196157884464 -0.651420353370349 1.4195374228045101 0.4160906234519608
P 7.285847606525082 7.9458408084041245 0.40739991930490843 -0.9888408765139163 0.6957777964398016 0.5126381182614074
P 5.048245775457833 5.21031623502515 8.07083392400245 2.3860521250174003 2.9703003514166264 -0.5246824510204512
P 1.3238562456465301 8.13514828910974 2.6460599391947643 -1.1344866715119106 0.8957157771224574 0.7745348000350467
P 2.879801166655398 2.57787017740206 3.925831464495833 -0.5474433988660508 0.49782907827303297 -1.495126570194735
P 5.121569095449444 1.6032810491802203 11.838089822024001 0.0934734838698132 1.0358786946290097 -0.4739070202397967
P 5.716358238906652 3.0029973054342336 5.346671687823692 -0.6812826881474202 0.8770372268763476 -3.5186598343390436
P 2.66499716786179 5.441238403023985 10.44570404617016 -0.22944447478220484 0.20920757891003972 -0.7773424446871708
