# total energy = -340867.1199473571 ev
CRYSTAL
PRIMVEC
9.27114859234148 0.00000000000000 0.00000000000000

0.00000000000000 9.27114859234148 0.00000000000000

0.00000000000000 0.00000000000000 13.56926310695303

PRIMCOORD
 96 1
Ni 1.7428090761084154 7.257325411212785 9.900094163390824 -0.2524789880041652 0.3352592538261904 0.6823072727571926
Ni 2.871793938669863 2.3552889730929683 6.617620786052171 0.7820642756428724 -0.7597658692559883 0.29680249251188884
Ni 2.6810864097811926 5.27823183917551 11.043683866509314 0.4610239936295415 0.4055884383690564 0.3216560612204589
Ni 3.0636974457416475 7.622182197400669 5.172318236354695 -0.47359385987475217 1.8705130310591143 -0.4458452290065741
Ni 2.719700744142948 5.63890733729685 1.528441575721257 -3.3089881713083917 0.10549287692819251 1.5710098517866105
Ni 0.7695507712518826 2.386041373351778 5.928098570433105 -0.30683647970912314 -0.22571740363960482 -0.05918628055216903
Ni 5.903181431170042 1.8586984349372135 9.284700344367879 2.054516342789384 0.5829061105490349 -0.4655794742107079
Ni 1.5409019995825293 6.831566449173193 12.643093304232716 0.19932914345406316 -0.8788022891965703 -0.24376397672867053
Ni 7.755510586946024 6.574913239536583 7.389494907169854 -0.17715569268081746 0.4461398774288574 -0.639495319797989
Ni 5.43753798739593 1.6746939465632005 6.656279621927718 -0.6461053689153389 1.1760729795941292 -0.1107590104231383
Ni 4.495765430660875 8.829628791463566 7.015919532738563 0.7257360333647889 0.06592025684189293 0.4815411397462868
Ni 0.13049141804122705 8.96080627450906 9.25929925114235 -0.9224637346402629 0.5168259310905099 -0.6577023297243189
Ni 5.10708643405714 0.026564622388172494 13.075396770144089 0.27612799488167283 -0.04631919478151378 0.48887495440353873
Ni 4.1878798532732295 2.2089253484665488 12.02400956802466 1.0845648469808034 -1.4238067396038254 -0.3875755467314035
Ni 6.600510881114689 4.892107037855366 0.9232404575860232 0.592227902170593 -0.2516760324868956 -0.9748612744053727
Ni 1.9195264415992734 0.690727464950887 10.42917266084321 0.27275907840943997 0.40845856082799975 1.46320966688148
Ni 3.534996290226605 4.320299670245369 0.015565331563013578 1.5325734021872832 -1.756945347542587 -1.6321069762082472
Ni 0.46909694666721036 1.4854883437649513 1.024061418422466 0.12746989541991596 0.5234228675817373 2.4830444206737496
Ni 2.160594850260587 3.1799205659238727 11.824119893457269 -1.8491332798317572 -1.2412460738573527 -0.5646137399977502
Ni 6.68709413888286 7.431187262902102 1.4615724885621697 -0.6300740264840891 0.5589262026946696 -1.0966845130624727
Ni 6.1344224222026735 2.228394760749787 0.370938659739218 -0.259710729865914 -0.09971072302877666 1.4643993163142068
Ni 7.3144264160949115 0.6537355816127346 10.719677615751147 0.021145780839679714 -2.2793042926361844 -0.43122182266644443
Ni 7.046147185980597 0.36816009647193876 7.65528946943088 0.9163807616709766 -1.8165869704646198 0.4994432168376882
Ni 0.910290517073058 6.172387776154987 5.79593463716526 -0.18371586239683843 0.6775368479517428 0.8369293031118684
P 4.157136724163126 0.6537226020045458 1.4088150168489475 0.6690812609852219 -0.2872680706588923 -0.9205212662019114
P 8.248503919403733 1.6899635284824832 9.088923351366603 0.48085131276811377 0.6157681513843782 -0.23994434587226418
P 1.6506816714138737 3.189896321931856 3.9342861227097004 -1.5479997640446823 2.025297555133583 1.1092548935283155
P 2.4528956266729356 0.32493800120315014 6.081893020747626 0.08488265687700865 -0.6436113988488915 0.3698385344629566
P 6.562248850403773 4.550669173299607 7.571499608767918 -0.3903762494049922 0.21950921794636388 0.7819179798729953
P 3.6045206343751777 7.131311957996704 11.448237857227848 1.4694034543970178 -0.21256672519025974 -0.5570878639343502
P 5.712872561675742 2.7791566207964746 4.778836778536099 -0.15681029625524606 -0.23952602738792295 -0.7583160241833392
P 7.780116215612555 1.9695999157620205 2.1913277811071135 0.8922260188016441 0.08017291010616515 -1.1776518940454752
Ni 7.52061676332311 5.191908173571115 12.100146095430569 -0.2900849712823972 -0.6268840587918817 -0.35834158956695056
Ni 3.566490382381919 7.262350373811603 0.17452659305155857 1.6732613389593698 0.07706676037701567 0.8751742055256798
Ni 6.2895472823565495 7.961636036133279 5.6778545058971615 1.7231247994487162 0.24566350774422854 0.8297050174492873
Ni 9.231171513082295 8.166454253352944 4.5393259228574445 -0.5199660193813884 0.6264536561226823 0.6858417682730124
Ni 7.191083053706245 3.904525735362465 3.184000798469517 -0.9289308304218453 -0.933229200686883 -0.237620582835094
Ni 8.648229495876024 8.504248556467125 2.2471512216975102 0.3500284417155649 1.0109117402710266 0.3723029368430491
Ni 3.4693843708320924 2.372514767389281 4.325365425898493 2.1869260987130787 2.3649171428109983 1.0934014714358267
Ni 3.664199018597656 7.572433213442642 2.824048449947269 0.6031980280288515 -0.23088326411126045 -0.672038800951649
Ni 6.978245292855627 2.4572716088623108 11.817864649425125 -0.9715494364233205 2.2708533336553534 -0.7843612992071654
Ni 9.110145937870202 4.230072851035619 4.718331407849019 0.25161792555545054 0.027279404541243345 0.19578744884939184
Ni 4.987154854392394 6.358756407449108 6.642846654567154 1.4864935771100853 0.43431743087263264 1.4125365660066447
Ni 5.187281870366669 3.9464962255559026 10.527142743452464 -0.8080578714931567 0.031112405134088358 -1.6824815720060573
Ni 3.9480908631333866 8.287350032483147 9.3918701878384 1.3052266904743715 -1.6299606192892058 1.1146297846869835
Ni 5.673154960617937 6.80523638684729 12.608898526459255 0.08822431965573192 -0.03980787602555724 -0.39161732090094487
Ni 2.590479473474485 0.5513922981587167 8.335000955488937 0.7766536461502624 -0.018748227141780618 -1.6432524513021056
Ni 4.574440398582571 0.38636399695676643 4.70339187882368 1.1115305769363695 -0.9845381353735043 0.9963011894467034
Ni 5.688609965511344 1.5422555872936496 2.740082437458887 0.26298348707991487 -0.7286678622996031 1.1847568805213726
Ni 1.953162169105744 4.503682991656059 7.229933802360011 -0.7862693148631555 -0.8620464098944702 -0.44042482932195115
Ni 7.387826100402719 4.167807816324082 9.60760796400435 -0.4071570684077568 0.043410248664834915 -0.8853503747277333
Ni 8.762264624963564 4.424117993458559 7.229336740383325 0.8012007393620072 0.2277899698979174 0.3563361291011476
Ni 9.057495084367103 3.0744056224974283 10.894992256442741 0.6281117605513956 -0.8401709499776175 -0.1609986233049808
Ni 2.9708654337454266 0.6591388070787685 3.1716933485618988 -1.4718958818015684 -1.9470707130101952 -2.194416493552853
Ni 0.10439406154785227 3.8146604909522615 2.2931240667874593 0.7624495867357386 -1.7164831257624829 0.43959616277306873
Ni 2.238287076419413 5.52186835602847 3.8414587462878322 3.628240251073048 -2.026537083967639 1.3605714857932634
P 1.524937081510274 8.222553974174788 3.0078990372527574 -0.02170550999789165 -0.058781331804266514 -0.592008072850303
P 0.5880967758869738 6.662358714134442 8.079356446831573 0.28259766176641654 -0.6955134870348215 0.17240403692844503
P 8.104152134046581 6.231454264562849 4.749079172533475 0.708648995975515 0.20567076940137483 0.07459618734933605
P 6.089364639490036 8.459172231457076 3.7342481097630054 -0.09692827518763306 0.5028113619789728 -2.983142497486617
P 7.07006674964286 8.501281788881109 12.478213341410065 -0.6851997638136393 -1.0949580172896691 0.0923869356738538
P 8.469055275977997 0.7590743732137593 5.740177948845549 1.2057471096197945 -2.189655838939416 -0.9824902517055403
P 2.548805660039649 3.7678411899854267 9.596454772110667 -1.0701299025023956 -0.2589293716151992 -0.3323315386564341
P 6.173389060215269 7.719269666653083 8.317971709545198 -1.5876014375967047 0.14643769477167037 0.09345471481673583
Ni 7.572896770877957 7.319367938355372 10.041295612417574 -0.17328695375403058 0.01739299866546682 0.14865475702764722
Ni 4.090653316790221 2.8146187645980874 8.521524414966452 -0.9175809526266648 0.27427191550954055 -0.08697064975428892
Ni 7.831376396809709 2.3791807233091133 6.730327359530096 -1.6218377330717553 1.7828816077923746 0.7417624907000322
Ni 2.8809260201455724 8.882427983345968 12.348992997856472 -0.3250424611941886 1.9401025092224782 -1.1832964939257622
Ni 0.4195055722371909 8.507567627703983 6.87900598998848 0.533375865029391 0.7664779911688412 -0.23089920495086041
Ni 2.4552412272956303 2.8616976577286986 2.0363799998935277 0.4183709348457053 1.3027792573751436 0.23653660574229585
Ni 3.5162500275424584 5.451101677953252 8.495796977306458 0.9023397101968782 -0.02434114784852582 1.129320553929939
Ni 1.1429564836618482 2.2499223680458247 8.705048657837478 -1.2033343864132438 1.764503362395503 -0.2432752100177101
Ni 8.105431552568053 0.9734520718644943 13.189717450611779 -1.336091498374028 -0.7677146917894198 0.31514654223671534
Ni 2.706118511288213 7.516676525122931 7.657542358566511 -1.9288084243658974 -1.4427791669412702 -1.4963635279256295
Ni 0.47794903945198935 6.162819950690081 3.10185193112757 -4.205131779996887 1.8657726881606513 -1.9653327445441764
Ni 6.719849107262232 4.703133213774775 5.3951799631865685 0.5200871183402849 0.13895629879296068 0.9510099217090717
Ni 0.4005164054569393 5.138209680264203 9.768254720327702 0.1972591482989119 0.08564190364053638 -0.28999781088522963
Ni 4.920875412291028 3.6392596285776984 2.1174969883844628 -1.0827378210743932 0.32246184495120594 -0.5389991247534395
Ni -0.0753892728201806 8.831010192620806 11.765935091291375 0.5997344949602832 -1.5693730875141358 -3.7850934847510875
Ni 2.6457169774666434 1.656401970165663 0.22980396298315417 1.195218956394961 -0.12312653084955569 -1.381577398620969
Ni 6.347946248057557 6.293774926166624 3.409833928461761 -0.6003914118179918 -0.2081336291195706 0.5024503790951282
Ni 5.270156668652319 6.202741517019426 9.851569898176901 0.5931907803044946 0.9839735211192862 0.62683700760403
Ni 8.902064276305918 7.785558379903156 0.07142678386310632 -1.8924034033743022 -2.584808426687129 1.6055721631425122
Ni 8.689133803968238 3.1345290218578086 13.425361310165034 0.3478409471459429 2.8176655266953086 -0.004773767239559521
Ni 0.6687214663816041 1.3494620499460606 3.595230943371461 -1.655580376739839 -0.92082619903684 -0.252692646676868
Ni 4.615650654582091 4.02092500737011 6.397731389495538 0.02458540264884798 -0.5333630095135846 1.629001597810046
Ni 1.5881848579846793 8.810975240266483 0.7553028699200348 0.6440078629563618 -1.3962373146259888 1.4579057381700633
Ni 4.595003806413152 4.690969466672104 4.179305894949641 -0.16870164837619334 0.6736603957154721 -0.7573606022486054
P 4.296648969895587 0.8957060730431713 10.144978576859652 -1.1909375554107877 1.2119768925795902 0.7622834934715194
P 1.0643186003349787 1.1030627307786225 12.392455215876755 0.5965908071249789 2.085643660321808 0.9895147626524894
P 1.3580100490532727 4.525015904829264 13.343945790685757 0.1646249072036584 0.7143162215636214 0.34471011482644504
P 5.477830399673526 3.884036496721533 12.5105622334761 0.8990705525273032 1.0965965813343566 2.5206660876812657
P 4.756905876271336 5.78371340894061 1.5494064242908219 0.965944174421401 1.085142573861144 0.7169531449658362
P 9.04716702470828 6.6070377698039255 11.454073118223596 0.6319105654721956 -0.8397215211450249 -0.3255816215271103
P 8.77252778658144 5.31811632091003 1.0307959808427252 -0.9603170580426105 1.7678470820567556 -1.1461880191092388
P 3.271065228855546 5.680275202824378 5.761496028180823 -1.6996809666034793 -2.0704289002545826 0.5138581067114376
