# total energy = -340893.06851062644 ev
CRYSTAL
PRIMVEC
9.05102558650235 0.00000000000000 0.00000000000000

0.00000000000000 9.05102558650235 0.00000000000000

0.00000000000000 0.00000000000000 13.24709083753641

PRIMCOORD
 96 1
Ni 6.4254499330401575 1.9608142303065155 11.498342628022286 0.1924578702555266 -0.42754334537359273 0.07783757710476917
Ni 4.645755780109305 0.5604150800505798 6.034725294979204 -0.4449386580319047 -1.1262452574387247 1.0252978337893697
Ni 2.9602828058042414 2.0329871100723214 4.646205616091794 -1.1955817390510184 -0.020805366781125458 0.030841925081521077
Ni 3.550717423140907 4.491951698611897 5.0455649327703265 -0.08886143901909857 -0.002900975696878875 -0.6674056730550119
Ni 5.30750342976034 4.6677588238402645 2.6614867215327735 -1.2192855104258613 -0.900745369126565 0.45433218343166265
Ni 7.069403265959368 6.154190689676576 2.683966754323635 2.1584773564540827 -0.1336207455126602 -0.5097415134399027
Ni 4.868139484128097 4.353760636627406 11.53910392273326 1.1668666305045132 1.0418500817210958 -0.02359192838732711
Ni 5.6941632521324514 7.607595362351936 12.410020778728384 -0.8358268140763089 0.5406040073467141 0.5400522486083021
Ni 1.8444994976917213 6.521055918614048 0.4482547682800927 0.726540017323323 -0.5993084631664581 -0.15449141831408233
Ni 2.9162586162907123 1.494442023673374 0.24617975596164118 -0.2936927432383135 -0.19312532863619641 0.6385072448531068
Ni 0.4974163200403072 0.21380333155604003 4.6716525751414 0.8122186877390656 -0.2535745350611891 -0.42754540225612175
Ni 8.932185835776362 2.4293043769779317 1.526806681745429 -0.8936732927711319 0.4463265395183668 -1.157760811548503
Ni 6.95347772745417 0.5577848519517657 4.760169797305135 -1.4699996932201198 0.6568042433900818 0.3305986151257274
Ni 0.7929015390724559 7.775157003072323 2.4964675139608965 1.2832810394412157 -0.6719241297506557 -0.15176964850754507
Ni 7.428303592188801 3.7392502906505296 3.8040746425655882 0.8382446794891821 0.5907873130693244 -0.13715729791100897
Ni 7.9116464722055495 3.7331317972066262 12.55763305347287 0.25121271969723186 -0.015290607610483344 0.5638033282813129
Ni 7.93172164744013 8.910209945122816 6.801692024711186 -0.4510697106303071 0.5109103369370234 0.9917012287808469
Ni 6.8888896073126125 0.8954587124642723 0.42848732792286676 0.11357179728158506 -1.2860740288053205 0.282532612856436
Ni 1.6472595433580821 6.468704785360297 9.167543280183454 0.735687745260862 0.08606947809625821 0.06546054359665501
Ni 0.041571361520484795 5.007154189460804 1.4530869816696186 0.2909082385146409 -0.31954827084883675 -0.0007865004570373551
Ni 6.55319611124615 1.9308372328417114 7.0697607814786485 -0.13390253841913716 0.4300054337608401 0.011858184890166674
Ni 3.647970695411233 4.241908059734276 0.4473026003654497 -0.03273014324316944 1.709811884389894 -0.5165829618417683
Ni 6.037912161165001 5.562715204372383 4.948609439248971 -0.27520316907455833 0.8666072897922752 -0.24894320693676483
Ni 5.271362683722609 2.8192406706913054 9.331197593063997 -0.32113618416124695 -0.10305521402097735 0.09755948101372876
P 0.3146525763785303 5.5463237966402685 12.4565050370556 -0.4335550987853114 -0.3596945040504192 -0.2700216248736188
P 3.8675033263015792 6.098816513804091 12.487343692177001 0.3835360865547072 -0.0739115025774856 0.5689612183331686
P 2.493702425577594 8.492161165260384 1.2478957011666467 1.0053129060270105 0.8800248487497617 1.606717332490549
P 6.1784202857554655 7.800698997892877 5.947678864508714 -0.07949413887158567 -0.4447257706901502 -0.6197708447858682
P 4.872891272675507 0.8564958565806705 12.594751310297498 -0.5357963015454256 0.7066180815884152 0.5445863890332299
P 3.905644349042124 6.221349301146638 8.245294436440174 -0.7603744493742647 -0.804905184796788 -0.653813536192874
P 4.697636260021218 1.0720215983473242 3.97718727741193 1.3317959563224677 -0.637925661318024 -2.4503870396500447
P 0.1067450830316006 6.048547116485394 3.4963578672611155 0.3433389455105313 -1.4273227231768837 0.8117859710770214
Ni 1.595741104478352 1.1443211924743941 2.495102619269564 0.32906366653843977 0.07775735868613705 -0.3287685038955241
Ni 1.9352541334343516 6.484480723337697 4.813291172854858 -1.2677464341407265 0.40085683722134186 -1.1027003802392492
Ni 5.592149140288911 5.222143205397246 9.381444362818185 0.07095961903801327 2.072397079724547 0.3584534325544665
Ni 8.598374953077254 2.31181301100854 10.127057007369395 0.1312687003407159 -0.8667304456337009 -0.08097715117501537
Ni 2.2474511665120964 5.3484593215261125 6.903602049757974 -0.31253610119706177 -0.07169084077708299 1.1150892408219053
Ni 0.28580605203671944 -0.19476449877608362 9.170457710492533 0.9738490310907745 0.8403090182173786 0.2675253408143264
Ni 1.4762223087287327 1.2327678166368539 11.34953833317933 -0.15752197761029 -1.1042276155170532 0.04116079050902589
Ni 4.170332547671572 6.954862534402273 1.6570654247147756 -0.16361240677874403 0.03733216079155506 -0.8931729560959457
Ni 5.65695448504978 7.685153602471472 8.18692708633411 -1.3729202371666032 0.9681434960655648 -0.18387424235157365
Ni 5.325831757014637 2.868867445177876 4.922579594137549 0.20966523527274858 0.6772524839421046 0.17142496084462733
Ni 0.5617962665883603 7.447736144591255 7.082225854216731 0.8357957037280573 -1.0044767832789605 -0.09392291270240598
Ni 5.162840884325568 4.624838859474896 7.080728814548651 -0.7328970698896023 -0.2769589754234005 0.20257207587139306
Ni 8.212728845595256 6.925437649511549 9.484175315905448 -0.22580687802961757 -0.19152173159450242 -1.7388470952799795
Ni 4.879290347919352 0.25913810960607364 10.506916794054519 -0.9249726171050457 -0.25946904616875316 -0.3734902722829309
Ni 8.182091123246718 7.426683458569778 4.967606637310227 -0.455888472175189 -1.8108050736755201 -0.7419730640489415
Ni 7.195112963359327 6.244112631045184 7.147295488931094 0.5587611378717152 -0.7888432462379188 -0.3810881392348469
Ni 2.21541958618965 5.215843691437251 2.657141324043989 0.7498892335722246 0.7181895884760987 0.005115209739378288
Ni 2.219347731388843 5.205896614078006 11.21239085447011 0.4852129321709192 0.3680469897801726 0.26733945005576537
Ni 1.007750264108926 3.264840773102912 3.624550261039275 -0.23606789363599345 0.49644196811751923 0.2491486380793516
Ni 4.036838968079666 2.6809590984487697 2.387258741705286 -1.1221294354981384 0.1554478686900807 0.9910615383143191
Ni 1.27895520131768 3.316594538653561 8.008370259466307 -1.8476762356702567 0.07560251712666334 0.2579281840441945
Ni 3.5072815503046764 2.7226209702273003 7.026641694545579 0.7255437148483247 0.2902641771727388 -0.2211539526386385
Ni 3.9028294800168966 6.9845227459639165 5.93312028950203 1.8192274934112604 0.37215818373506876 0.3846252058538279
Ni 0.6486109907982525 7.435146167697071 11.38975656634203 0.5246904214402511 -0.34147900948365706 0.32656275449345695
P 0.0006788269353442977 5.487365414549165 8.074220997707606 1.0682206012948248 -0.40974771195306847 -0.39670039185080713
P 8.759121171366784 1.4617859225704108 7.9786430703137095 -0.8837997424111619 1.5080455922492482 0.23378475402877155
P 1.7274606830125598 3.085250319088224 10.191583580535482 0.42446033557289475 0.5109761571779522 0.800224748601983
P 4.031154923874383 6.19532760195844 3.699144290207808 -0.7219935356032211 -0.21209389931889927 0.931409116759009
P 6.857916997009303 3.8007248579153097 10.582995191455003 0.24382131232916718 1.3809287092933766 -0.4221072619596859
P 6.28310445021136 7.593439557993556 10.213785746834143 -0.28718836646089246 0.052036813991581346 0.34425297268436844
P 2.1300412597749467 8.440344042529102 5.886198866628452 1.0444944613224787 -0.9055402194120469 -0.4911714637471993
P 7.115862181414331 4.091833000868358 1.5039691334352858 0.06702814519409102 -1.4647667269559548 0.5674820626844808
Ni 5.464810258244126 2.910158224898418 0.4573085093924247 1.0153533209821481 -0.7706580906884599 -0.25210386405293356
Ni 1.5217761216032375 1.2494036020656916 6.644025870502958 0.3995576587939441 -0.03170838684687442 1.3299853854762902
Ni 6.887912096525716 0.7586153482220861 9.266936214953986 0.2417052944274289 -0.5272286144810726 -0.7015396386242434
Ni 2.8614003488890885 1.4687642634657503 9.010061766901641 -0.3947237277404105 -0.38068396181789277 0.913683931565104
Ni 6.416398907235567 1.8785042016395683 2.647656754103359 0.4318774539725724 0.30848172862203 0.0695164588335835
Ni 3.9206237967487216 6.945929171933142 10.408146569859342 0.38189932228223267 -0.0342316674893604 -0.7761515097028633
Ni 8.151272380382087 7.125800207747772 0.47786338899465003 -0.7111910456710784 -0.007357211696019587 -0.21146140794122295
Ni 7.3741875089031526 4.032639292106335 8.416393218044995 1.0053432450443138 -0.6351036184881965 -0.8786238546371772
Ni 3.15951398581489 8.223056066038295 12.368424979438226 0.052544863976251445 0.6377431129935727 -0.2835356001996536
Ni 9.036390295864614 4.617073079334557 10.308541841084983 0.30408334244401825 0.573830887720644 -0.22883589466392845
Ni 8.639231283559177 2.3699658518030353 5.7792691426704375 -0.33302085141397486 0.7529154219930582 -0.027279918761875598
Ni 3.5945605921383437 2.5674954389624216 11.4579524253693 -0.19704111875083485 -0.8130926057035869 -0.7632134614849565
Ni 1.5199568654165148 3.450975118774318 12.591559013496218 -1.3929745847143171 -0.5835301172862789 0.7187961117118459
Ni 3.015593624496095 8.284023775858017 7.935020746345905 0.1966384839957775 0.11885181473360176 0.4599037639821692
Ni 5.692923261597223 7.679478609291995 3.6273977137573987 -1.6478989489351814 1.4955916827566114 0.9741069127378514
Ni 2.962255929429642 8.685219545672302 3.737335998692859 0.801819861003245 -0.9342064769984879 0.32794240844980294
Ni 3.26134707714234 4.241636528960138 9.083874692543239 0.4190905866205492 0.22902718473912817 0.04930938775808927
Ni 7.3564656003777635 6.1112888273628165 11.371594777962537 -0.5115202026068805 -1.7095851130910686 1.9705310009156642
Ni 0.7000135765476836 8.847567795529244 0.2109785064024273 -0.6515702486846521 1.022441081066865 -0.3592005951331362
Ni 4.700749812897997 0.5242489911405965 1.6834274424732263 -0.39824562485073994 -1.5202020251061237 -0.15842906280559166
Ni 5.964671260354252 5.4514237910791365 0.413270743340189 -0.4563762104448849 1.2108756890956114 -1.0539226966149138
Ni 7.73132288510069 8.736167769926343 11.375966423426155 0.4576944150356763 0.7575475214484308 0.7178933973919184
Ni 9.08433357955153 4.931858705792415 5.7119865321468515 -0.9042276712482106 0.43500417252701207 -0.24257072775151772
Ni 7.851683426250136 8.731968093953013 2.672388682114403 -0.8511387618430309 0.6165528520692026 -0.5645682314717955
P 8.455595021009836 1.6856992499501786 3.613899013872432 0.008194362885334273 0.565791048135303 -1.2125502485845567
P 2.133706925225806 3.3804495257049476 1.5359735606803184 -2.2770216672495946 -1.7688688384530504 0.8991060337509289
P 4.866410738199421 0.9974592477691065 8.271908072715993 -0.18718248078920022 -0.27019594566795396 -0.7680687326947288
P 8.653749128949741 1.4812456280502806 12.538888379031564 -0.006261664638995667 0.8122719095745042 -0.33429431880975974
P 6.206324598311018 7.864617342124896 1.4101796887403764 0.8897035094901065 -0.1149175126762021 -0.3040856564368634
P 1.629419971497234 3.422165703638306 5.773757973058022 1.1872757902884843 0.09312047140576866 0.08274375615713492
P 6.931501836800624 3.9026484595008046 6.038395485942965 0.7554764978520151 0.051799244059478534 0.36924101008827376
P 2.2139352179576974 8.456500123590295 10.22659566365538 0.6546141777172985 0.4617163917108758 -0.4802023663302053
