# total energy = -381173.04775494727 ev
CRYSTAL
PRIMVEC
9.18694495746524 0.00000000000000 0.00000000000000
0.00000000000000 9.18694495746524 0.00000000000000
0.00000000000000 0.00000000000000 13.44602257587888
PRIMCOORD
 96 1
Ni 2.791480790138426 6.772266728385182 3.658622745491775 -0.16318071855796412 0.044073593280446674 -0.9240696456748021
Ni 7.752504569798562 1.2638755804343342 3.3719533146305376 -0.9712049085997081 -1.6878865450717124 -1.3255031813352203
Ni 1.921789457555749 0.7483134156316883 0.9462342019938608 -0.5487551756989388 2.0615166853666174 1.099804803859009
Ni 3.9957239107688802 1.3312801956833054 4.845421695012136 -0.6856957296134514 -0.7633605285857821 0.4176158018472357
Ni 7.576069291639029 8.843564528391763 9.932751268905468 0.5283354743920062 0.10031981736768528 -0.5761474516689625
Ni 2.5245541040189146 4.828373481230274 12.67025416386939 0.24145126943509387 1.435411156611973 0.46654646610966743
Ni 0.3373767736262222 4.177919403424951 3.7813979967727853 -1.508947278127911 -0.12281311337419494 0.8774933405771599
Ni 5.931771506918932 6.308757793785707 9.780703654864773 0.387718500067171 0.7779926766766602 -0.4855237785431186
Ni 1.0682671481212505 7.557640280028094 9.692054229371392 -0.21423511403161816 0.02606712940069704 0.08930649697631717
Ni 1.0454375898694184 5.965469221070932 7.524354141010775 -0.8321948737506764 0.3682781319543722 -0.30758338517747674
Ni 8.012283812730981 3.792683239974616 1.9116213468623373 -0.04566587746823103 -1.024475080777758 -0.8753621531667698
Ni 7.761902814503441 5.53766994157201 3.388505433383988 -1.3817967137206266 1.3771013651274864 0.003708302089522645
Ni 1.8732364533863592 5.162190313680406 9.719941200829515 -1.1824737409141506 0.7222244206671046 -0.040662253606052544
Ni 1.5261077376738914 7.568692174827673 5.599193074650832 0.39062924595606274 1.4347367562527678 0.2537987352568532
Ni 5.251900831317888 8.040708220469883 11.22279034992145 0.5813428798269731 1.1493085670160919 0.5213001648117797
Ni 5.083862420861443 8.86001834683403 8.869493761876662 0.25234297664693317 -1.1116681309554983 -0.3201704778138679
Ni 0.9465125664264686 1.4045644557134325 12.019346250982522 -0.29868762534974364 -0.5715474910031059 2.0726642173430045
Ni 6.179837395013893 2.589202635776719 0.8796711109041926 -0.6891111830529035 -1.0163244266461657 3.361861108048023
Ni 1.8764794449609654 5.347344002616997 5.098570719759304 -1.0151882561591934 -1.157186941322904 1.8124248686671303
Ni 4.263679534725094 6.959891705518851 13.032866556635232 -0.39130133232242287 -0.9516167020551355 1.1704201521837263
Ni 0.5142346512544005 8.831915482169098 7.593371983796576 1.826934375137215 0.1628575308905905 -0.9712239347631014
Ni 8.461497860956271 8.758695530753766 4.993517085326497 0.8739261920511916 -2.928056869366383 -0.45329242931323865
Ni 7.918999573499953 2.135891210094562 10.086560938991514 -0.8392049865199225 0.15859258496664946 1.5604140785486351
Ni 3.07627608422567 6.9371723906066665 10.898337770479804 0.040951759822013344 0.08750029700551383 0.967147964921515
P 1.0957544874731548 0.7166212115667604 5.147056659230409 -1.2182264730337278 0.9854562763123995 2.075942373873644
Ni 2.1798783026135853 9.13500198369272 3.6744619573155104 1.435393158889844 -0.7078696946073293 -1.4275466662622318
P 8.589802734415057 1.7874579481962756 0.9976746629674964 -0.02823816891008685 0.32856435830451797 -0.2394123846281941
Ni 6.492818236270803 4.805332623244119 5.371309985961687 -0.4948178022505349 -0.40947928878303025 0.6746255878422188
P 3.4253340583819547 1.605308390265057 13.016839012439602 0.0016866436738035469 0.33199395281135724 0.2481754755328048
P 0.6345147282814081 3.8393988551498945 8.555314024301094 -0.36918778825283516 -0.4959688851358426 -0.8531020562169888
P 8.464750039475847 7.3450176256295405 8.405458415330374 0.045629110693024645 -1.3960992463862278 0.27870346891833286
Ni 8.920679744474612 3.741263908974413 6.401570742739747 0.4557702014297699 0.921188467472265 0.1898741686887504
Ni 7.057741856400247 3.520290321597624 8.387198443506897 0.2612518491007888 0.6188575889429794 -0.35635001305821856
Ni 3.9052141289189595 6.041968911840754 5.958335558301296 0.39424575966272746 1.499492046252282 1.275535848278158
Ni 2.4821012313099744 8.806633009610128 12.567177559994247 1.1589139513163396 -1.7760632993189607 -0.06842245443845635
Ni 3.763110464114396 8.544713208499568 6.495544921538063 -0.26070574678933167 0.19943250180114686 1.5025804553696187
Ni 8.941855652631745 1.8150555308878265 8.064212100482553 -1.0614475442370495 1.6132078253108992 -1.7026413347833838
Ni 3.0194364556928384 0.6053480153888862 10.616979312506047 0.5049847154812077 0.39902441199829347 -1.1414044816776665
Ni 7.893588483711395 7.116970090625423 11.35187152023025 -0.3510751378125244 -0.5198408066574338 0.3556797264640713
Ni 6.167104289284701 5.694509466109346 1.4111735439252506 0.22292904226119029 1.154713797192063 0.7882392941053329
Ni 8.284070392739917 5.430320489591061 9.50430798456411 1.0848296706064156 -0.9619440521230724 1.7562614341016851
Ni 4.529320048548728 7.709041133142861 1.983597385928657 -0.07275990547154566 -0.08221873689160034 -0.09415739731071525
Ni 8.821322934618047 6.1723592218078585 5.445034300655903 -0.9379710862472428 -0.3024465781715437 0.1529544128442656
Ni 0.32922795343733885 7.2332033183929 3.238676466553684 -0.3034259113656774 -0.8759277958622528 1.7771457337498622
Ni 2.658848865598506 3.2506167389319156 1.1261219340733286 -0.5401291245928247 0.3711299995808705 -2.6951303495728487
Ni 0.9428653492731579 1.9162037950136506 2.8996754410566674 -0.9288256723025489 0.6628309092001359 -0.19646442031175843
Ni 4.888465288282682 1.8622580541465446 9.733562684137357 1.3331784384922911 0.8807126188454059 1.0328152252123373
Ni 9.028635534823618 9.034469244879922 1.913234574399167 -0.5746821799773457 0.11468148540599604 -0.7973445988407106
Ni 1.2865030258968142 3.3733726976284886 10.990308276580043 -1.9999436497498266 -0.3896617398364708 -0.4036169164649823
Ni 0.662260220786985 5.417247466897959 1.4644734425609267 0.8270734933637112 0.5385923762333241 0.7577313553244628
Ni 4.521143667524933 4.430670633454895 2.2031846633093894 -0.796501534114125 -0.3322402644942085 -1.1157492430034075
Ni 4.283808131155583 1.7072191708234372 7.523614591940645 0.13258176272518457 -0.20537689231003983 -0.886315309744164
Ni 2.5938971646566733 4.024727096040926 7.316290048706611 -0.5174062290740121 2.1563417981683184 -1.83776591853508
Ni 2.342698528326754 4.269357066716898 3.148668291899156 1.9615843332453382 0.11997178727065791 -0.6068561936067292
Ni 5.436282816876952 2.709248445706977 3.23352626520319 0.570251912120134 -1.059313528613182 0.8911847220213233
Ni 6.772817945083416 7.948581536305144 3.1965497303911983 0.020904097142518837 0.21802157765724386 0.07939772250303745
P 4.541713237314008 5.326232403074658 11.43526417581148 -1.1882733783150632 1.3391012317346291 0.772448092709347
Ni 5.921105463808116 4.052434922072123 10.513378134073085 2.266167241033594 -1.6623593473348854 0.7628856458318926
P 5.3161083897171055 6.8309437459121245 7.758906033054046 -0.42227438366516945 -0.1378214138575691 -1.3611443275775978
Ni 5.687876491840605 2.485518774839021 5.753848862368667 2.284231811844789 0.9508111754347044 0.526077788706081
P 5.477155535050956 0.6155299064997537 2.546609202809729 -0.30590933990916347 -0.3847025960589826 -0.16120431155788367
P 0.4048760144083901 8.437088148169503 11.585980601525941 0.4397164904010169 1.200181442606559 -0.05617706141220002
P 8.035049062368019 7.036418957123586 1.5671476582463604 -0.006396904665279306 -0.5286092968786832 -0.5154048823732672
Ni 7.924778161886433 0.17303059635344453 12.869766129100462 0.7515607077373766 1.1194827419039108 -0.40325361958829264
Ni 0.3186519423872345 5.489613032431031 11.702839460245912 1.4563664187074017 -0.31122663835701886 -1.1604226746513822
Ni 5.174987728024391 0.28713612766574126 13.692354157430106 -0.3903582516828632 0.4612312245443411 -0.4559208680750213
Ni 3.1617973549565783 6.812487173466277 8.558555178486706 0.6738812534770265 1.111676872706247 -1.6935959367516638
Ni 1.866116571034178 2.7763039570470673 5.089736553475618 -0.18904550213986798 -0.3813768741198593 0.21947939314969298
Ni 6.4093364673233575 7.051274247140975 5.723958218212465 -0.3159703236895913 0.8740583467536818 -0.14636184722841244
Ni 4.61722992497198 8.160965330134463 4.446034880223653 -0.3794254068204433 0.8391383949480451 -1.1330090585251198
Ni 4.060326507801832 4.833205814284787 9.38123599496055 0.24259335345933705 -0.3823158409943609 -0.2215894975141603
Ni 4.923155192491503 4.236770972906335 7.305788451910768 1.1918125018165733 0.4789340411407429 0.4865167385840073
Ni 2.0922256606495084 1.8378942760846295 7.331081030109206 -2.418762470766228 -2.639746216375589 -1.3512208978162985
Ni 0.3837883009229753 3.615476258437557 13.433154610725328 0.20377406659929423 -1.823785802205904 -0.6586811486978205
Ni 1.8625336624956612 7.8008279003436884 1.6752127732405167 1.5482558459195463 -0.6768588480481118 -0.5948470849609948
Ni 0.6919248660969111 0.9244822723870748 9.833749075124766 1.4836404239320062 -1.5653020027685558 0.2141240423750506
Ni 3.976275148266212 3.8707906461142856 5.224115834948937 -0.439124879563605 -0.1818027045345256 -1.5469546106096197
Ni 7.086745041672293 2.46039248034455 12.441241999643363 0.6589238608362459 -0.2618105498177362 -1.9305416050069204
Ni 4.914473529494328 5.981730113668817 3.8597075157018064 1.9241650120566154 -0.8387876964768457 -0.4548988545684101
Ni 1.0061634001202904 7.061416634388469 13.10505848890836 -0.2511677253919094 0.18741645117687722 0.5872530746638209
Ni 5.373251187433966 4.3171934891785835 13.111445253051892 -0.584270080776097 0.39392360043661834 -0.36943204305315736
Ni 6.275482679102353 0.29063084153254093 5.466856969738963 -1.652694827661928 -0.9311692328340608 -0.5181564769764754
Ni 8.067754586463199 1.552226222225183 5.746951304084773 1.0113112897022905 2.5567260666286162 1.269201678530014
Ni 3.4695324506353007 3.0819168684375917 11.383698772386245 1.9129328907862218 -0.2828583716269709 1.0718903368369281
Ni 7.312054867075185 5.693609145502232 7.533806588690981 -0.7039837292893618 0.6677280893914371 -1.8132139402273288
Ni 2.786648457083914 2.8826704059161674 9.184789713266152 -0.37052784722049736 -1.1981140185545687 1.3967767320692268
Ni 6.635133200809689 7.609417901882149 -0.19292492568718406 -0.6741653603763486 -1.776487531340573 1.395757546776093
Ni 3.3094774953582693 1.97201448570978 2.7353513124518187 0.5609236927406727 -1.2141613018254187 0.7428696077212819
P 6.281105089424333 0.8251860963673148 11.129138632891598 -0.6826906242385403 0.31833445304639374 0.7741357648244152
Ni 7.3093447183088704 8.913403684057931 7.526141920502044 -0.6714081093461857 0.24918771884740312 -1.0392684370368488
P 2.946372682342005 5.841978306776715 1.491661287506791 0.2712845507464424 -0.0033064386654136605 -0.561618404814852
Ni 7.954874593609976 5.32411940573143 13.43214588416756 -0.9669453619924057 0.596528843538792 -0.6877734380780866
P 2.8642689551401435 -0.14285240081966433 8.56574855639865 -1.0329198691110015 0.709598761483294 -0.5368918486024495
P 8.230308390772223 3.901759837610031 11.379288120105882 -0.446470778405715 0.2645819419152863 -0.011826303210966728
P 6.387627716357932 1.6539716377740934 7.795318489444846 0.30793974007563096 -0.5678577008563446 -0.3844776245323701
Ni 7.44063534888309 3.242164749559004 4.080007700012254 0.5914511719055685 1.261011429409738 1.7389345127874631
