# total energy = -381166.16058852145 ev
CRYSTAL
PRIMVEC
9.31467071424282 0.00000000000000 0.00000000000000
0.00000000000000 9.31467071424282 0.00000000000000
0.00000000000000 0.00000000000000 13.63296213164416
PRIMCOORD
 96 1
Ni 7.611604405057 1.2307847228249464 4.75588652380845 -0.6989307402464866 1.3630898813397427 -0.7633224762589951
Ni 4.279159804938777 3.3547252928770686 8.705423412775806 0.20645264187272186 0.35813975796878966 -0.29947669690994233
Ni 8.978700021624816 7.977959725666594 12.405600041860545 -1.2585256868734067 -1.474652361500783 -2.0830064798092773
Ni 0.7614100736854396 -0.03687957643816739 0.09413499543903303 0.24867246977388138 0.47051496383911223 -0.2346681850749894
Ni 5.068410498434798 -0.044158060268335346 0.29536914525596236 0.1419855725375877 0.33742797934273494 -0.4889204629294934
Ni 6.636376992654998 2.9536169351925374 9.00964335830746 0.3551469938890529 -0.5703634979973338 -0.4780768353467702
Ni 5.1918950903679155 4.240904451610777 1.7026892365770379 -0.8656189577370769 -0.3161338458506491 0.03200457793105456
Ni 6.902599601242188 1.9741886062210365 6.738350283644436 -1.2406367224081278 0.17875080508207924 1.883993324933736
Ni -0.02929277700167929 3.872183204596189 8.212769538158495 -0.014954050206671019 -1.0950678033946561 -0.33085289722837863
Ni 7.619764056752965 0.10987120043351185 0.17582838497589645 -0.47718491966012017 1.1104481425054682 -0.538364319382918
Ni 5.788043341730315 2.1466963110261434 0.4605545872777382 1.1130405858229928 0.7097319446270486 -0.5696513024216576
Ni 5.330460134465149 8.312477501188505 9.145454985690849 -1.7383632136650253 -1.6772861438480469 -0.315007959776322
Ni 4.251346197673763 8.693186729633123 2.3128998465757378 -0.23010679095655207 -0.8943854883468081 -0.42989950431059515
Ni 4.024953121794275 8.037955520842063 11.327042190921043 0.2745012579115273 -2.271421547453998 0.10495165971274183
Ni 3.7157898804235243 1.135355919599875 3.548101586334733 -0.4055881812587402 1.1148740394873058 1.0867117181204768
Ni 4.972627737716067 0.21281228572798486 5.289412242805583 -0.3754761923647082 0.9355825314104081 -1.438946166348425
Ni 7.664008743460539 8.53406420689092 4.02306038067028 0.4145932129708279 -0.8915248789695613 0.7870398744805929
Ni 1.776354311277426 8.872251962741837 11.450338626502264 -1.165513458910728 2.8428319986586077 1.899172089556703
Ni 3.8727420848493375 7.17885411037339 0.25509716568118485 -0.787555894885063 -0.03499657067984296 -0.2114009870169327
Ni 4.553914652057365 4.49166470652753 12.891533381433746 -1.1008062485403298 -0.057099830336785534 1.554779505970677
Ni 1.2331599639008268 4.929398350135047 6.171369061226756 -0.9281666985623112 0.20625800936341254 0.9067956890857027
Ni 5.166717534963584 1.2165891643949798 8.038826442569885 -1.6198111895600298 -1.1376732967700085 -0.8250906586057275
Ni 2.77538070779266 3.2344076890451263 10.489964388294766 -0.1370757939407962 -0.9655266272680082 -0.2511474136769352
Ni 2.0053741243467114 7.221273121587346 7.035726740476289 0.46661177212996413 1.8878301821813228 -0.7753698943418325
P 2.9450474379775966 0.308991851426452 -0.07878255488504939 -1.4891184163274418 -0.9074127538444114 1.493177416888164
Ni 1.8236448953646576 0.58276865810203 1.9026575226205862 1.9066925663034646 -1.434912876819316 2.127825950116813
P 2.0592688100919787 2.3774579675510745 3.089774136865791 -0.6496915436047005 0.951974085394554 0.9288182161033811
Ni 8.52084668890396 2.9808157741790877 10.320029395588318 0.588856928815831 -0.1784726117200281 0.0469624847924675
P 7.4670500275801945 8.178439387141774 1.8713965556607364 -0.6681633771566428 0.35702261364521093 -0.8439530427278692
P 3.06294322737923 3.9569653389987853 7.13093944333681 -0.7471895752528745 1.2645132719154095 -1.1906367363409172
P 5.147995046483116 6.207017238173821 10.421486653810682 0.33841245474319137 -0.03514492333224915 -0.5164580062281299
Ni 3.234277283652725 5.837336580057994 5.316092254623795 1.1395805410950504 -0.8858519969545001 0.46758956266220114
Ni 7.107419899350153 7.115123132172713 7.837903402760542 -0.27426780174448245 -0.10022777187451125 0.9001427025455595
Ni -0.2849655893436069 2.2686905556175305 6.153251094886778 3.1270612824911757 -0.8456833951554146 1.3266326669539732
Ni 7.5480876642866965 3.7080680182591923 5.447990788768059 0.10583406231769514 2.6769986729691446 -0.6994261918256665
Ni 2.516842702686259 0.48812787603389785 5.999294488617839 -0.5082613293499505 -2.7099316762517396 -0.20285541143976676
Ni 6.733687359399002 2.682001132162466 12.032943346396705 0.490073345587014 -0.9573479481119578 -0.8293674316042104
Ni 0.10804645640698267 7.622605031373135 5.570783300654359 0.18297924134113003 -0.5686742832203691 0.3483579959916775
Ni 2.2973517979331524 2.5742397046845893 12.694114520811642 -0.939859304408891 0.8303087124715571 0.6732773013444404
Ni 5.789161102236612 6.470426816153497 1.1352059533986136 0.9680727907286295 0.5533988451185373 1.8948927454550593
Ni 0.7702916123750546 4.727707781444713 10.419550133733523 -0.03792531429086372 0.5468682430888712 0.47252248118744433
Ni 1.9140158322987368 2.7101221235667112 5.36642501022233 -0.7098322176503389 0.27556826572346094 -1.3064214821134212
Ni 5.343118772198958 3.948060513631956 10.871360107983667 -0.9172747342401558 1.0236312447202243 -1.7257856341103308
Ni 1.7791300832013959 4.449618282149007 2.3248831706703257 0.488757454989068 0.7378649554178389 1.0497572523833147
Ni 8.823862247490082 4.661219660661837 1.9571073627506475 -0.7891368662189376 0.5145330212912752 -0.7931279896562018
Ni 8.332271176820841 6.5259701986455525 0.4258667528990006 0.06786581060403796 0.36024317746503765 0.8655634219087931
Ni 5.610682693393704 4.763541320342404 6.335974199252346 -0.7377456562311552 -0.8366441677712816 0.0419532045033342
Ni 9.184367954783388 3.253949868563545 3.7886408528884936 0.7935848746879623 -1.4365211018467001 -0.0029536833116852357
Ni 7.49934399154128 6.4337456422051975 3.0207915472196967 -0.9081110654630167 -1.1505110719646248 -1.5525791558852486
Ni 3.7987463393325034 6.233871434337596 2.5803790042654233 -0.593291567548417 -0.6818635003515546 0.38630053667372183
Ni 5.638608076709347 7.547938629552524 3.8155388280054323 -1.8956843881184195 -0.25986782426906857 0.38250970217272184
Ni 3.6722437940323864 3.8213530455723514 4.048485706320173 -0.15522238294283588 -0.35283634347800524 -0.8065599467913915
Ni 3.02395201505125 7.897993276111959 4.29926365911161 0.871439678183912 2.59949816748882 0.295657066053536
Ni 3.800432294762834 0.95100926809891 11.871529414616589 1.3509169934226348 1.8539846943867877 -2.0174212377092995
Ni 6.742405891348115 8.935368172664052 6.405051798541476 1.8000326656503645 -0.42572094745287326 0.7612511955522632
Ni 3.924662060366814 2.117178118989028 6.227591483226386 1.6418118622008366 1.6454281187971855 0.7746492141257239
P 2.7296643030851295 4.6712888198893925 0.4791196578202359 0.19724346456962805 0.3411715055455673 -1.4831614274130585
Ni 6.7883551628277905 4.823602318214075 13.509284217514505 1.2099032978800133 -1.394310015696289 -0.6349971748173193
P 9.021109718167885 9.213625336035703 6.928284806209795 -0.5333180152082622 -0.8514082134543337 -1.995867422797924
Ni 7.349396419621592 5.157617101508153 9.573925189102432 0.025402756343820772 -0.20843110575533136 0.05836095643739627
P 8.15786327915503 5.295157531807948 7.08983566365193 -1.23451466867079 -0.5347920286506272 -1.6238141400718358
P 8.574620283927713 5.805629440362715 11.614792866859503 -0.21048258896772135 0.1348816145029548 0.728761450454674
P 3.522529088884844 8.941907071625886 7.843902050811001 0.8131072609916061 -0.5273000911489564 -1.3649413327261848
Ni 4.67895479402841 5.72271024013728 8.175619836264639 0.11009206626310072 0.8837979426389488 1.3862650339046254
Ni 1.9291149138046266 2.0386554434216926 7.69509832047609 0.35139292616325934 0.8141030492459722 0.7573480038431151
Ni 6.135881096618928 7.595788093892904 12.81910156915864 0.675379692399424 -0.9509641560728009 -0.7512200365685062
Ni 3.0465680359619842 5.4491569855629605 11.113645875328517 1.5833133517443119 -0.14650222946101865 -0.23784169770696453
Ni 1.4998389913614214 7.177904013943038 1.249254783724409 2.3841227692051716 -2.3954759894344613 -1.1040396678759632
Ni 1.9666344081326486 9.357052638335325 9.19153373109584 -0.33326973419998734 -0.5656907751120129 -0.42789687205826954
Ni 8.471516191892738 0.9276667028590829 2.6084217524342272 0.2593916559635985 0.8670472055431713 -1.5103282176358375
Ni 2.313214682451678 5.744925730199924 8.590334133712066 0.18721230558587112 -1.5753542447982354 1.2949839297004406
Ni 0.5715472740859009 0.40497767197049456 4.513300824061078 0.5091092791725426 0.8754701394995439 -0.11641646581923176
Ni 3.674786699184211 2.0415243620545205 1.0001497458240625 -1.320677734922119 0.45901930449468686 1.3032654529829426
Ni 5.611381293710139 2.5903447706461455 4.79279031839092 -0.050697269244551396 0.06317200467279442 -1.1084755921601297
Ni 6.009052537837809 0.10041401508315413 11.301207951219261 0.8696869571588635 0.9735327854019362 0.14153820058752398
Ni 7.035156682618077 0.38918837335196665 8.986003655066376 2.101079278150588 0.09974697558335079 0.5166076444321167
Ni 7.149736449184363 7.267958252067 10.636641579266447 -0.4138388513033066 0.47341028310903627 0.11918040171761408
Ni 1.9558945926013158 6.83289791900371 12.650298308964816 -1.0624847272523121 -0.8370090073098683 -0.027638073432242723
Ni 9.166530360037072 8.1561773237247 9.865956887780012 0.45551771909933164 0.6639614232601534 -0.01425213904363997
Ni 9.06009161582498 5.620295433747854 4.219279511682292 1.1511651606088562 -1.1160811724215296 0.9263265600297788
Ni -0.09344477832639489 1.146570783346384 8.443221016142928 -0.5302697153002416 1.7234114774511995 2.2089501683926533
Ni 0.25357421699135574 8.209140542381386 2.4804763646138994 -1.5616847177309428 0.10336503195191231 2.4133243304697922
Ni 0.7342075088305349 2.417874324524582 1.2793085693374586 -1.5315737572781754 1.4594913374896283 -0.995534486484008
Ni 4.7239539690777335 7.568505422868381 6.362721276700935 -0.44461238504073747 -0.9529688452076556 1.1425859035802775
Ni 5.829670605918978 4.875317370972064 3.983197315147389 0.17183093803379437 0.6845587877955307 -0.6309001219298102
Ni 6.033559436938361 1.3036533931645982 2.7382487037734875 -1.4816899850738545 -2.254152475960905 0.7057927574736426
Ni 9.299012924045876 6.259132821779899 8.490254515313712 1.4194559188342974 0.8716713345787439 0.4531821289876195
Ni 0.42626076347747016 4.407879241909716 13.297605527233323 -0.08583936436332314 0.4099089201212811 -0.3860315992830513
P 7.967070875401087 2.6329407606069313 13.714214428738922 1.5536109395838729 0.23901052120408517 0.7912726816150178
Ni 8.495501469423687 0.8805437828477959 11.375480342461405 0.5311768004955433 -0.6271972191569263 0.10675040348437745
P 2.070846946003034 7.1921275163856615 10.394342771382359 -0.5720449994648148 -1.0943370958762186 -2.0970758134181495
Ni 7.045374876579806 6.494281688292044 5.507471482643542 0.2758631712560604 -0.20137805556329189 -0.16985221704086875
P 1.1973543690157926 1.6940685086722254 10.477136223550835 -0.5500695236349882 0.3099089479868598 0.23838291492241526
P 1.6606754135466149 6.461093515925921 3.910383601365963 -0.7147291407313239 -1.175464142365537 -0.8698013712495407
P 5.1390157037492 1.714141624431135 10.106210193937578 0.3781156868700843 0.5788021156829902 0.9383343831239322
Ni 7.203211974739769 2.9853427042295886 2.1211117045041035 1.400738287820136 1.8258159452620555 0.3463309382593197
