# total energy = -381167.98845744925 ev
CRYSTAL
PRIMVEC
9.27452027310198 0.00000000000000 0.00000000000000
0.00000000000000 9.27452027310198 0.00000000000000
0.00000000000000 0.00000000000000 13.57419790255949
PRIMCOORD
 96 1
Ni 3.8333910179758433 3.2435964616191315 3.4315297720979356 -0.09402190017411549 -0.990009957121353 0.4360002178916943
Ni 7.7148889716808124 8.65782942966812 5.780708209959109 -1.4520533931543445 0.5637423931363903 0.0700209092738278
Ni 5.097777067911435 1.9318547120820524 12.85700473780706 -1.1961044443237079 0.7053764958718303 1.7530334140826904
Ni 9.261693433007881 6.9612043707377556 2.0959237549062175 0.20463512904800887 -1.29447459416419 0.6376963189160372
Ni 2.9761934982603235 3.5427182837004403 5.745347247195578 -0.9174984202151878 -0.1184916031807056 -2.49522245079718
Ni 3.7217999922012464 8.989885072604281 8.656007913921599 0.11923902286969143 1.3924086849085182 0.6622043313597306
Ni 3.268517097112511 7.865516452532311 11.14704941114516 -1.0815921375057242 -1.2143592767688376 -0.8840414261083227
Ni 1.3261358047234304 5.412146201027771 0.5500996103531148 -0.28415112229646544 -0.21239857504351162 -0.7599075370401751
Ni 4.348442216892605 5.038883865312641 2.1557045290780357 0.1054530248291926 2.0956647920032356 0.00759709562096756
Ni 1.526103732476596 2.4497717377079518 7.607306393490971 -0.8181954741477909 -0.16978536835867533 -1.4492989703376586
Ni 2.7586874530088394 7.363069326423701 2.0855260904284996 0.6352895092467575 0.07026516407414996 -0.7470281099743457
Ni 6.092886701429172 7.381395778130034 4.7867504718370855 -0.2377601937367518 -0.9451004982031723 -1.7249456547075388
Ni 8.122615424066353 0.7290273618203553 10.05708276845897 0.43059550193635515 -0.14825237938290595 0.5447403981125908
Ni 4.789287980534885 0.08205538908229475 11.362621718956982 1.2879763880343562 0.45489319814145535 1.159566497298674
Ni 1.8110633623739112 5.265163606573331 2.685328781418969 1.5620621556750194 -0.315159911973154 2.2926089801648906
Ni 0.36473070468038427 9.038214596815669 8.492411871622243 1.195622619591283 0.05211780374116185 0.015625622352398894
Ni 3.660764375460669 3.2169136673078356 11.00236226041406 0.5717251542315509 -1.0996433385804802 -0.7703647278177571
Ni 3.657156587143987 1.1292099195611947 6.466748171142392 0.049245881510005515 1.4655077188870373 1.3330948776395493
Ni 8.792309971035445 6.121405850719139 9.967057784259644 -0.05932846255698814 0.30959604473213126 0.15208512286543485
Ni 7.80611315132833 0.45964150606538584 12.575096425020767 -0.08677833123782475 -2.653764385031552 -0.23987081232185137
Ni 5.451284675825709 6.788577728222581 11.938914428960414 -0.36535967275599657 -0.14785745793733246 -0.1864044649725951
Ni 1.883126383506609 5.322665631157981 10.76459695346859 -0.48458943965430734 -0.6316441991846863 -1.4860721733019502
Ni 7.953476001106636 7.03494608000752 12.43133208903905 0.25104456955048376 1.365331626186068 -0.6395104893066405
Ni 3.602279251746024 0.8021912684882463 2.71175838133169 -1.2253777393665284 0.7175372996040803 -0.41914946488294264
P 7.4591626291207245 4.222049057047507 10.16494265479963 1.3765272377915714 -0.8092349225203934 -1.2550495553993484
Ni 8.853512529137719 2.0798853273071476 11.927240590517721 2.67645771286401 2.701974883298508 -1.9522242321866763
P 3.3274752213519654 5.634901624652628 4.405818108003972 -1.135901035360934 -0.2635966951838815 -0.49018493146421394
Ni 1.5811851073166336 3.406494132555387 12.297014779225385 0.5282408577956709 -0.8445677934937327 0.030916229962882243
P 1.255259922162803 0.5930795913741119 4.209901290627996 0.03809706398203762 0.5371947245548491 -0.6549759319320914
P 0.4662264153323376 8.71432053156249 13.512815328194986 -0.2869708511334477 0.0928816159220852 0.15665191630051084
P 4.924139502705983 2.695129166802613 1.6514229028947736 -1.1069660974941387 0.33914521914415785 -0.6571510852065392
Ni 4.971727065309827 0.23800458956390172 4.870666329650297 0.6817778826162839 -0.7660385896385775 -1.0018673706805714
Ni 1.8891826451281857 4.62170667695101 8.589196126066293 1.2047400085115185 0.7862106937110782 -1.9984079298315904
Ni 5.592173910578195 4.318281477545947 0.29626063263221764 -1.139673357919173 -0.006605678241975721 0.6591161793527099
Ni 5.898733897775131 0.3557418398049903 9.499902062013858 -0.0512099472149118 0.3410218673415804 -2.294674347334351
Ni 6.191576869752599 4.4592820065395635 11.69798558321078 -1.336621659845885 0.5250753155834957 0.2537910219473694
Ni 7.8958070351602885 4.279087355627442 4.703296485124571 -0.729857254622014 -0.7368948781950857 1.9430122266701055
Ni 7.7607051009466455 8.497185467114779 1.1790632474240763 1.104571372009717 -0.6676470996418565 -0.12539038718306791
Ni 7.384113212517663 1.8034304323363037 5.575791398283626 -0.45805976879489496 0.4942922687643681 0.1214159759163522
Ni 3.4652574918728614 5.0251204774927025 12.371211867431782 0.5940209895152738 0.9722965990019901 2.5425024668300664
Ni 9.162558087719928 7.385847547775297 6.793967151849377 1.8543500481460065 -0.8754698823892277 0.41174854443318115
Ni 2.833412261408601 1.217892880702875 11.431700199523334 -0.18763705182811555 -0.4232483175426646 0.7014529924477081
Ni 7.736980878545431 5.611010460889714 0.5851294727492794 0.5715845148886285 -0.9862939417223465 1.5919098351640713
Ni 6.683089336670031 3.8497234478619027 2.5915587460055654 0.02305842448136029 0.8865703631777635 -0.4974341568274595
Ni 2.9699517462368603 3.587968667240522 0.7638476200623888 0.6442444044472001 -0.3000909334551735 0.4586084422095134
Ni 8.118432615503824 2.721645019752212 7.818561412198897 0.7243463521061139 0.4580633683393208 0.4350638221203539
Ni 6.998719804519192 6.191131692788073 6.558807985050406 0.02081796518661576 0.9076747492565465 -1.1415757171482082
Ni 5.92199439417163 1.8152461709364398 3.5054003971970125 0.3262195122214253 -0.03752962151434182 0.7502381322712112
Ni 1.1062462078077122 1.808503594827885 9.801195049249243 0.8123708970462138 -1.4311145861191483 0.8158274881362465
Ni 1.557813316679002 2.8308153957821975 3.610084687857386 -0.17042505882520326 -0.49583364510955896 0.35903347342765257
Ni 3.0871816802287912 6.697789451019495 8.636786471026166 1.0397908851992221 0.28436426674853604 1.600435613246895
Ni 5.5110496833133675 3.1533924791819863 9.243716630709104 0.011512114404657594 1.0561078771916907 1.5186390514943782
Ni 6.044863236380895 8.88844964633294 13.409678027486343 -2.544990523359243 -1.2476517202733803 -0.9712038801584434
Ni 6.38018351039025 2.1119195197128535 11.097042126248713 1.2895753570903596 0.1502825224390573 -0.18207112770456385
Ni 2.275781740738916 8.789750203489419 6.77488204439933 -2.456376938684892 -0.7507063301568814 0.9021682176160204
Ni 8.594493731944157 6.471676651120503 4.568626743547322 -1.4478815211648421 0.7258918422163627 -1.0935750208992134
P 6.452691708487474 6.627460765144431 2.824709051752112 0.6345701145822298 -1.0599159380838714 -0.8567350249838859
Ni 8.59965963963668 2.077501775642913 3.613682274201964 0.1139849735596037 0.372998420248177 -0.5731019799744195
P 5.187684265705563 2.3041617722274688 5.531621496334531 -0.5291307165997919 1.718147400838783 -1.4669249109495381
Ni 6.1346776889740795 4.065226196773017 6.576440702653686 0.10754307458900188 -0.889110613101114 0.06163988429898416
P 2.028068583540303 6.5863653666065956 6.928460677544836 -1.2501806573428211 -0.6564813128330241 -2.104796836211491
P 0.1832413307630986 3.50961752148389 0.5215461453387987 1.617858436709033 1.256900492565158 0.5037513572947389
P 6.81541818937548 8.240299809542906 10.933419187841082 0.6917589050883958 0.0932719093819684 0.17385748154551994
Ni 5.282237998066934 4.841753940708331 4.408438159930611 1.3913470764132232 0.5362585858938248 0.43369265280444025
Ni 8.749443139159599 5.15336854135666 7.605432940431922 0.9729560869628598 -0.752541326483091 -0.025416126080259456
Ni 0.3045056809960488 3.7801738216747593 9.777738860478753 -2.5736763213297094 0.5023858444057799 1.1940863854524146
Ni 0.9435154782331543 9.23145849750047 11.34193397443464 -0.7283364471021134 -1.087807522287817 0.0838282474705653
Ni 5.368184975780797 7.211328903160886 9.593129538001744 -0.730019234121175 0.3040918270844505 -0.5237365421674142
Ni 9.016345278433315 4.883313065250882 12.276246346378223 -0.3469770564837508 0.19591600400745612 -1.2633264506961597
Ni 1.2954278686912089 7.718793544640512 4.74405985584303 0.2672422623562688 0.2013893684172015 -0.6317120763081443
Ni 5.8151890207656916 1.8657366583297998 7.497545230530979 0.05849002581609281 -1.8745671465238294 0.018819703809664363
Ni 7.841180111804872 9.218808052091847 3.379296602378857 -0.5501777670780782 -0.8837205524337942 0.38724644552675885
Ni 0.20694422176809674 0.8060772924077572 6.097407102523133 1.2050639675098407 0.41296107668404364 0.3983680093612172
Ni 5.7410948797323424 6.696750704768934 0.6549972149756569 -0.9172112279920719 0.3256387000172908 1.392168543873254
Ni 7.547020157974013 3.282530896974996 13.312935508382717 -1.5739167410207602 -0.7422641129267991 0.38124471941736926
Ni 5.008815871166926 8.281154070558289 2.6940570322797126 0.8904015639983955 -0.13061641146869762 -0.46297263271548006
Ni 3.6925388813037348 7.64227875386255 5.403711952454016 -0.31406050826138815 -0.7477531610658283 -1.4095993377551919
Ni 1.1338100815279666 5.039301218716885 5.201103568830003 0.40382569004167873 0.5018189161587164 0.14528815454825947
Ni 3.8883147259742774 3.652779013659478 7.62362212924086 1.2447445739289145 -0.11460692341431875 1.9485789221246055
Ni 8.99956767158273 4.359126464041236 2.812085502451762 0.5991403130197102 0.3234128960105656 -2.129334416341539
Ni 6.388929382839173 1.2274734599602852 1.3480301643100405 0.9659544588340462 0.02967284447408438 -0.3789762350981667
Ni 1.5053473565055566 6.836703212991895 12.24776800497667 -1.5198130171978212 1.7515460309038868 1.8910409758091369
Ni 4.310342488345228 5.665813600126923 6.5892413952878375 -0.009020201220739304 0.9933091966979151 -0.037909373451263745
Ni 4.212394281629343 5.212094802593757 10.25483130355357 1.3032196873466715 1.262229360977239 -1.7662056897985903
Ni 3.770537595296784 9.21154610285801 0.18612014180036876 -0.4602868583532009 -0.5433556019499223 0.33266809606024644
Ni 5.508480641247248 8.183799433128438 6.767199031953214 -0.28585164992733997 0.5731482598313226 2.709713646703663
Ni 6.491496300562018 5.346232186717593 8.603584616540587 -0.5094134406765227 -0.16548956919679886 0.8391800468192581
Ni 8.859847026362125 1.5524990166649688 0.9003221832499883 -0.16717107066427983 -0.9597804688128502 1.1378776994713307
P 3.184063317133831 2.136645390284253 8.920174997219506 0.6541171834762218 -1.1261262153623572 1.4202398481881735
Ni 1.0201322887321524 9.006384443852038 2.233064228636587 0.03879717537285576 1.1617174822034058 -0.24131371541596508
P 7.620103376317084 0.602556296006466 7.904404515287704 -0.23860582956649873 -0.613158481675673 -0.926672887625604
Ni 1.9807221584589099 1.4415108346965013 0.49232769723372133 -0.4313295518889023 -0.23735318810632025 -0.42162158057251903
P 3.5784066370233 7.024855402144924 13.388557162875596 -0.3133994776386216 0.26837534751944747 0.32142877570100126
P 0.16080255684695327 3.198791255043577 5.930010361889133 -0.31899085568346996 -0.4162299772433025 0.3518971194931875
P 1.3637625327459988 7.440706334133072 9.797516774579842 -0.1594302503765964 0.3718676490778434 1.1885546570009078
Ni 7.44236647322995 7.744956965826527 8.592480233631685 0.1861725514674471 -0.024202308277816387 -0.2940192733397968
