# total energy = -381164.8328898635 ev
CRYSTAL
PRIMVEC
9.27546670253732 0.00000000000000 0.00000000000000

0.00000000000000 9.27546670253732 0.00000000000000

0.00000000000000 0.00000000000000 13.57558309770507

PRIMCOORD
 96 1
Ni 8.278873538289577 4.404427579934694 9.749957006272094 1.93064059247863 -0.33844587908428814 -1.0560212310151555
Ni 2.520951293085374 7.7964565104208035 2.3302894354357573 -0.026208025853935505 0.7328973269999185 1.425529892942519
Ni 7.401970907743261 1.6229191491861452 1.5886694880554886 0.35962945514043876 -0.4269244808426712 -1.12588761698899
Ni 5.699820721217084 0.5765398271438815 3.324701099680667 1.3264416339890899 0.05929349555399466 0.3787494637993412
Ni 4.367121652495967 2.3899538755773815 7.410978313545288 1.2454590834974357 -0.42544249698050596 -0.41348892416305566
Ni 7.130784085136083 7.595002647158317 2.4076023062431364 -2.09975490291221 -0.21095901438350764 0.13575244714368234
Ni 8.260044340701159 8.862634316331283 0.7140569702601985 -1.5053140522506978 1.963715777766044 0.49364460787804015
Ni 1.9463175743673151 3.177134915841546 2.8851645547928073 1.1196197817024072 -0.5181456783431979 -0.09173001881614525
Ni 2.3657634581830007 5.151176860451118 12.442429303734444 -0.9246579140781042 0.1806649913856566 0.6198634044996744
Ni 0.38246274262133106 5.411427907710145 0.4467426550388159 -0.06817408587307615 -0.014029224399556483 -0.2077587622786551
Ni 2.09021716618343 4.68546494827532 4.844392651388358 -0.9327779720820774 -0.2882042093199165 -0.3456100009328951
Ni 8.063385893770304 5.36494854361381 2.378740763772141 0.41558437323950365 -0.5439880933275986 0.5115086326426544
Ni 0.9849247168097206 8.836069379438067 12.705673544127356 -0.6215631607996004 -0.6483111183174061 0.8727236871026584
Ni 9.29522353659169 2.000810941772219 3.3198277694279796 -0.36401961378833436 -0.2298548228467461 2.2637372914358624
Ni 9.178287726740862 3.32861256402699 1.5911803569161709 -1.636279362418382 1.9944900828344234 -0.42411400797706955
Ni 5.955897808419567 4.985535574473795 3.8289525763785712 1.1461620509673098 1.659842751560619 1.188519432887598
Ni 5.168419953218048 8.748212157981174 11.327955069783014 -0.43801596277014243 -0.5625411737394376 0.3093137376050221
Ni 1.2690044382582288 6.108636920088768 8.565528129319635 -0.6138400811237299 0.04033598061488537 -0.3289171136582464
Ni 4.843648758951614 4.859454154365735 13.067340690200297 0.3683822616324043 0.4868412118029616 -1.6162792651473714
Ni 4.5316220560578335 3.3292247448352836 3.322786643334731 -1.0941751163770574 -0.8354506616838128 -0.11911509569731744
Ni -0.12266804832848545 1.798503735564839 12.47712882500453 -0.8121682941171046 -0.625501319511742 -0.8665270713736433
Ni 9.037411937099044 0.9802127796792199 7.4159750075063124 -0.22444445046445216 -0.6682921894250232 -0.45919748194376403
Ni 0.07049169252830424 4.089469829534538 7.350730446542427 0.2951700991147884 -1.0895363320534655 1.400708205913149
Ni 6.421683924329703 4.061365165153797 7.291350763231326 0.44760232090699686 0.36828687370512053 0.0354637401242486
P 6.560537662210795 2.7608983435360046 13.449275658761144 -0.8387894962490586 -0.4710219853825178 -0.268610346348389
Ni 3.008516205023887 8.018576113696586 5.063041374990455 0.8504545912918128 0.6764004203544545 -1.3085269584921981
P 4.799423333285813 7.617273042926687 7.1189541547891535 0.3058900566354538 1.1882726069841147 -0.4239198896883925
Ni 3.664458665643459 3.9238563699575932 11.117968704618269 3.2896930705242053 1.1315784967261802 -2.746082929361316
P 7.0998875052508525 0.8915931148519975 4.865190103030108 -0.039795534730383074 0.681900010016445 1.3886548742930407
P 1.3990557581534044 8.425286781606411 7.342652442512991 -0.6129479083267637 -0.6481082582779806 -0.38763391077316467
P 9.33269642243268 4.744865037613363 4.17415205870842 -0.3810847968007372 -0.03637699596713735 -0.6936460948087796
Ni 6.058948244482287 8.099337603057352 5.150250241318565 1.2651437064105566 0.4763577957731345 -0.8222771004163323
Ni 5.861334424471823 4.9186316325007615 1.5507254085014492 -0.9137908894566134 0.05433615154871932 1.838847838745349
Ni 7.030117444038991 2.94443200495572 3.2687969337766507 -0.1963867729962876 0.7928575096036344 1.0591646617401436
Ni 3.0221418657418115 7.496107620218559 11.980954424789381 -0.4211233007798618 1.4220267648852671 -0.7621773069109584
Ni 5.815801157988305 0.6010966254765595 13.743105750901744 0.7778561510987958 -0.826981447870537 -1.9309257278192162
Ni 1.2254561216682678 6.951971636313661 4.287684699793145 -1.1979890629409304 0.6102503068899425 -1.1118316531165562
Ni 7.4350101204575205 4.760503474625222 0.09652978290771629 1.2247938418386004 -1.0118669050954445 -0.29845365496206666
Ni 1.5658472020129752 2.880551865156985 0.2295167880426622 2.1652984931409742 1.9515657726670712 -0.28154196680839255
Ni 1.0966198879228868 2.583310256330168 6.110369577285573 -2.2757451145300163 -0.29761290422832615 -1.3354698056296292
Ni 4.081131184888239 0.6728952312759022 9.482952491641575 0.6912819654519772 1.5223139292428038 -1.5980863962884284
Ni 2.173214043041146 2.6249200003605346 11.629034866768492 -2.44803165204399 -2.542379825209273 -0.15202393061019626
Ni 4.576357632397213 5.47362918801947 7.973903610531396 -1.2187234672748042 -2.138131445807879 -0.05873068107198918
Ni 5.860341949525044 6.0624265445294085 6.127352956982318 0.6435826024934852 -1.2218869526044505 -0.5657697079790643
Ni 2.009687563492473 6.990622506437275 0.3413176994772608 0.13386422898203396 0.025309682409382216 0.10906696743269603
Ni 4.786011008304112 1.8978439849106299 1.6564657299339436 -0.4240834118494503 0.4576057119766119 -0.2882072946437101
Ni 8.483416131993906 7.319131713821016 12.930715846989402 0.46387766102825273 -2.3077792601474254 -1.6145658820006903
Ni 1.1368012100672344 0.29244433740182624 5.154785017033332 0.4170938679054946 0.30157703108239675 0.06783110071136061
Ni 7.065920745857362 3.335216696383125 11.327426368175852 0.5856731317712107 -0.6142013211178906 1.2505316129243367
Ni 9.350876337345635 8.613291218020027 9.15892982754528 0.59484939895384 -0.931213455808435 -0.2525756614830295
Ni 2.696795592534253 0.5174597414101736 0.3311666286197414 1.5589048409929604 -0.28813041865918765 0.1591638840890872
Ni 2.7116548903355566 8.195088246754514 9.254203712249318 -1.267218072441082 -0.19809989903265238 -0.6911829779802677
Ni 6.476798748009693 0.6662345185723343 7.262760991937346 0.1918652309768502 0.3521470307204645 -2.156116826641706
Ni 0.05209844187912567 7.3769920756715335 2.0247036166825665 1.6605603464529335 0.15432095417448907 0.2049050948799439
Ni 5.962845133047018 7.21701809990432 13.382430152228903 -0.3688753992187389 -0.02168365562102072 0.40565554416156596
Ni 9.395305823280868 4.058740208051569 12.195096199077087 -1.2857593257783795 0.4737172728264939 0.6323669362833239
P 8.574399185759813 2.0465760949255456 10.035315814591263 -0.1302808825061498 0.1773302705854688 0.5200423811452786
Ni 7.625732268641287 7.759670009122446 10.668996227362578 -0.0005838975279280266 -0.6401524937660137 -0.2834877776808537
P 0.9622183741021113 6.719621193165943 10.616295807688632 0.4096533524670493 0.3309269449994236 0.5991387703578133
Ni 4.446408342636753 0.22382072388549604 5.8881646397153 -0.3585133392581245 1.6477418545320266 0.7102708478496541
P 4.264627744440785 6.47415523997388 1.4778925881547624 0.010563891558775355 -0.5155501497018798 -0.41901679595982033
P 1.3293877270762586 0.2749164878043715 2.8655209712200236 -0.12754085786716746 -0.7758992844827411 0.9324871803145359
P 4.206053171647259 4.45302175045968 5.113175273002966 0.9698216550989363 -0.22833041578241967 1.7390993205001015
Ni 0.6148818242233114 1.1716676897395804 1.1103716949891864 -1.0980222580372896 -1.5877166230183302 0.47148555528249764
Ni 5.765639433575416 2.7533944909010146 5.428414070046929 -1.7034327203364275 -0.4601516183269172 -0.4919343100551528
Ni 7.127945792297632 0.5818342635889401 11.368397032544227 1.9819580118056832 1.7329075898670927 -0.2422089735367248
Ni 5.275022893062228 7.096613265473161 9.279765971182282 0.18462886112941107 2.7334336160284214 0.430605015018052
Ni 3.5386740604727525 4.388918999457928 1.4113040120526683 -1.21279244650235 -0.22128147935543827 -0.31282303630986125
Ni 2.3810865293239196 1.112545864405307 7.249673308293376 0.9770207439505367 -1.640033944364808 -0.2149578511302556
Ni 1.2888910390609718 0.503747818851081 10.748847793431016 -0.27990520253591794 0.4731557438960689 -0.6540526487868735
Ni 3.42719222509581 0.7132908167031526 3.2676022536537994 -1.2117817458496485 0.5497733325508081 0.6551453676304201
Ni 3.6649038880494906 6.041714427182149 3.7523724674477856 0.506543061107263 0.8642102503150084 -0.9846741467307365
Ni 4.657341732960993 8.531249714241921 1.7423853063779204 0.7007281984665416 0.026589320452754205 -0.7394616104809976
Ni 3.8964195391858985 2.4972246490306094 13.184823752591873 0.6915365046649444 0.4971148258148278 0.15073272260259846
Ni 0.5131920991390253 6.081858647459327 6.224798228462436 -0.2663308062855929 -0.30406045962588274 0.6520495023139158
Ni 2.5117593054941807 4.131311460234713 7.029790020061222 0.6649939782897256 0.7517573971292151 0.8095336847077349
Ni 7.276492392976702 7.803153397444861 8.215088008252122 0.406577541755203 -0.9513745041373423 -1.2364854192439159
Ni 3.035210998452196 2.323522982410757 5.188574615011089 1.8959710661209022 -0.12115295206295265 -0.8940003370932474
Ni 7.162793721036394 5.7291590226812055 11.737123736392803 -0.661875487265402 0.3347332061193913 -1.1480908925589066
Ni 6.581917613167102 2.4189768111705634 8.842863658863445 0.4040971985355105 -0.5564630858661578 1.7053199100568115
Ni 5.243319347566065 2.03621539851852 11.300750125681127 -1.0591718608289953 -0.5947365275250597 -0.14514802942596938
Ni 6.267544217174862 5.054990269814718 9.651397751230217 -2.2698377479066454 -0.1393936434406954 -0.15411038082557973
Ni 1.1949954887222756 2.0268564525250645 8.908718545542266 0.15010794453440598 1.7760728124006573 1.082025111278085
Ni 2.9001787528895426 6.688158809806381 6.817779748042391 -1.3369515323814782 -0.3808693383558215 0.6289447979756523
Ni 1.602476020375863 5.5403197942562805 2.3967286765224953 -0.2798987747780147 -1.0706461800171818 0.5148852624243714
Ni 8.628994583299432 8.123296133781926 5.963821839700249 -0.08079717395372536 0.9558451383141862 0.9261339844029984
Ni 8.454170585197708 9.094715770942022 3.68282501743894 0.1555982782250159 -1.1889310665037203 -0.44982452536929624
Ni 7.889164801010082 2.55517776554905 6.066575460825615 1.1873542089349036 -0.25454204118078094 -0.36527122680724833
P 7.99719616274028 5.557173317417933 7.743879454455193 -1.244681839011779 1.7497007501650317 0.3335597546365804
Ni 7.926758267919371 6.383200012608351 4.597819207461291 -0.46101628032005765 -0.07290697257237122 -0.44010267009584203
P 6.2507648977475485 0.14483826905549835 9.253266890103292 -0.12058319560241168 -0.29091903714791834 2.415447547460382
Ni 1.1402331327803943 4.289458169043837 10.284712710609915 2.62321607993105 0.5811752439008572 -1.4531034316854134
P 3.33719237080989 3.45237511743697 8.84456014173976 -0.6320005540828406 0.6592215945823227 2.3293312752865885
P 3.282569146869893 0.626893553719371 11.4388275069917 0.05580733677760712 0.11417574941417112 2.0571483810955926
P 4.908001947556758 6.539435975258257 11.382950239941382 1.2415335231907845 -1.148145914166558 1.228315996059246
Ni 3.2871512274653014 6.074994802033007 10.053316712995127 -0.9053520146606409 -1.5904121675726222 -0.21164807003073224
