# total energy = -381171.96161528135 ev
CRYSTAL
PRIMVEC
9.17021249893439 0.00000000000000 0.00000000000000

0.00000000000000 9.17021249893439 0.00000000000000

0.00000000000000 0.00000000000000 13.42153293148038

PRIMCOORD
 96 1
Ni 9.042755605258021 5.421493754815967 3.5294331776388304 -0.281960799513366 -0.28433212795902 -0.7928389976608733
Ni 7.860761079606255 3.8827871375134135 9.520322842981326 -0.15023238592741223 3.105523665529716 0.5968373759181463
Ni 8.003027754581712 0.7501490498699431 3.8530398855504844 -0.6572804116955518 0.3806410243950993 0.23375955721779096
Ni 8.037260157423235 3.273820843514757 3.5797776436447126 -0.052421451024509715 -1.6369815306917292 0.18062308240412764
Ni 2.19951212192621 1.108843741438848 5.79191439696442 -0.04245559806104947 -0.8607207491045112 0.8318889124744835
Ni 7.787720337941983 2.151588591990556 13.162819237227247 -1.8026382215940113 1.0547233381393384 -0.3421253848184043
Ni 8.43185439644566 8.108686941707354 8.222809317845169 0.10609477217824954 -0.7293373775628019 -0.5311392623893885
Ni 2.5741061277320907 7.739998552678848 12.886577593316863 0.2578078564162463 -1.3672334711944711 -0.4470762732001978
Ni 4.728399932376879 4.043137471316484 4.607169724617724 -0.6448540130067411 0.06745160588475481 -0.3332118843788584
Ni 4.422564179050434 3.4685136227079965 10.233891915638615 -0.24142247307968745 0.6160486587392745 0.5922641547251671
Ni 5.1428843620672025 6.735649381392465 3.967083397861769 0.04287725897950035 -0.578289694822946 -0.21063788359866306
Ni 1.1347862722823163 3.4350881985565502 3.249943444500892 -0.35979709106655455 -1.3708450998051294 0.486884149225755
Ni 6.369125162487344 4.20754103899471 0.29866923234582576 -1.517763076647328 -0.7877073328612628 0.10135340083852222
Ni 1.6410095066944694 8.964790459541808 1.1710874750383975 0.3085143816321783 0.914058284185387 0.878303495183281
Ni 1.6459522511711855 4.755717995078431 1.415971577690653 1.2086722536863894 -0.34099872741312887 -0.44815330831446043
Ni 6.0948807908349005 8.753004404458775 2.6177086535908827 -0.11118401377569884 0.7285521626573453 0.5285912991565541
Ni 5.462356221213455 1.5575422335459193 12.954007082021391 0.824430142203593 -1.5838980206031883 0.18170937348977093
Ni 9.052090881468219 3.3627902440956436 7.624853697859857 -0.730465063409342 -1.4787018489798083 0.765548023155404
Ni 4.748317633681938 7.906969779825498 0.6760427295262754 -0.7783873410119175 1.524489082517252 0.7065298927499831
Ni 0.7357041313175815 0.023318933079482348 9.605240843729534 1.235268516117679 1.6666070668676456 -0.7211409577949387
Ni 5.258924229615186 8.884211803295235 7.088863954038762 -0.3208240522374668 -0.08463377409099618 -1.3698498257713958
Ni 8.490057734467397 4.1989393797754895 1.2356430191807672 0.11286808634634109 1.1443373390537452 0.5954872896481551
Ni 4.5058205373140785 8.451496991379102 9.520188040859233 -0.7719464704825802 1.3625664047361048 0.18349911840034205
Ni 3.3824695198786356 5.637929107579325 5.680959412185153 -0.7394369278906491 0.8951033403494391 -0.1616370282199281
P -0.0746464458532755 2.2509386729937853 1.6469160404930832 0.6140794508280457 -1.292595374863606 0.9082326786425455
Ni 8.197775555049276 6.076503685210895 6.906384980724071 0.3797218550149396 1.744686584779892 0.5047898258615822
P 1.0973167844681022 7.689525703699545 3.313038173809977 0.256433601776539 -0.33974634306326645 0.10750630781379548
Ni 0.5118473256692401 1.220445226191414 13.18811893618237 2.4725031548227934 -0.315483870971476 -1.1978633359963435
P 2.8827846468985756 4.662823743595811 3.3887089323869053 1.2745729701442565 0.1322457195420045 -0.01962265932693395
P 1.847834476876012 9.043370009487965 11.425079579208578 -0.5342078740123832 0.7296222557930725 -0.03689044526844614
P 3.5318706200913557 5.356348566017098 12.725129585091043 -1.0186109086874975 1.0816641283942405 0.01238037594222384
Ni 6.334553461787494 4.699999784613634 3.1217273689451464 0.20983287119886443 0.5758623163283759 -1.8299605635580483
Ni 8.617798793021484 4.146531615982481 12.010808555018 -0.1856177074052416 -0.26987995708943197 -0.3215395902472527
Ni 4.475549666223839 3.4397925175111985 2.151915051551541 0.00481207667666268 -1.8923437537809604 0.1808413690625208
Ni 6.45813124391778 7.968391862395151 10.86326743432629 0.449788015704406 -0.07225828324477877 -0.27450999966227563
Ni 3.708965761713505 2.3119756066431756 8.395209310725058 -0.9606225050981715 0.7664270833262478 -0.6390970559183058
Ni 6.073752621494727 2.7246901853427636 8.323470739219772 -0.3171556022469441 0.4256636118523766 -0.13339988775110576
Ni 7.06993113354409 8.622493941763745 13.077176789700445 -1.9188734246403725 -1.02121543618988 2.4989816607292963
Ni 2.395222794694432 6.950003095943922 1.640084232264598 0.9326075079424841 -1.5387587050623885 0.689791754059696
Ni 4.382407819006763 2.0142096402174916 5.905984502891627 0.3188011082701671 -2.3157072567452506 -0.23904343132454958
Ni 1.1144375709950571 6.595152557407742 5.236411358204541 0.24071233438654027 -0.49095343419912224 -0.331373545618539
Ni 8.05216175255248 7.422700033868368 3.7326221586088373 -0.9578770811425503 0.8519090643501522 -0.17985535100016767
Ni 3.2789011411772813 1.1897066742694253 10.328889813842867 -0.35513696658672383 -0.035975132543028365 0.4127134794496118
Ni 9.291625999235004 6.673603724380478 1.5810298985333264 -1.4387978136960191 0.5243980870108129 -1.3777631670812014
Ni 8.071125751769268 0.4505187792659359 11.510856828857472 1.3309364365356497 0.9458222068605453 -1.8125606229140458
Ni 9.191854088461962 4.53198315325484 5.582256748176462 -0.1711341690770859 -1.6914999734545837 -0.5917684460356712
Ni 4.324030246949668 5.571665152869214 1.5091308483112644 -0.07671529057486788 0.7239442315716886 -0.4295886579383956
Ni 5.453378583286359 5.182178722146475 8.76603252519731 0.4609656295877803 -2.2546371289068072 0.060460262168586194
Ni 1.2732748197542352 0.6111249619946103 3.582770800967904 -0.740804240551821 0.4871633710290707 -0.6055593291721764
Ni 6.303154654573626 4.865311203318194 11.178298159613405 0.3591337464509428 -1.1179511357507328 -0.05466268165020264
Ni 0.1638698613172888 8.680055364918376 5.486078643637975 2.450885833663334 0.4823518085730402 0.47507044442027857
Ni 5.629951022802436 6.387814055332514 12.669510412920026 0.33413259642091486 0.9048277667260546 1.7919372902367399
Ni 3.0470323209662182 1.229083566260183 12.769044815192238 -0.6715883436777917 0.3033840023841485 0.8600013544399835
Ni 9.265032383312043 2.0578323405435355 5.5878808394335495 -1.2391585952007045 -0.06912050894674547 -0.24037500565177958
Ni 1.443446451024027 7.06463992099666 7.5549941028727154 1.0131509140141906 1.0047529197584826 -0.45084293933148156
Ni 8.539127540951455 0.0782008201745651 1.62306615211638 -0.8922280756841732 -0.42811078784128853 0.16248857758694596
P 0.6223777296149778 0.6849745163914357 7.3498867134712995 -0.15152385104532615 -0.3695235743256991 0.5131878201172904
Ni 1.02606423421934 2.4652006854213697 10.880407478299256 -0.2988172089490725 -1.0971385698807556 -1.1883685091320308
P 6.154652235174853 0.9622120453670705 9.554789086238722 -0.9100453063712519 -1.6640691309371405 0.5942683296393895
Ni 4.277142951013771 3.389814860000805 12.696206735221725 0.05072400871742877 0.7078375558178133 -0.10738032375889249
P 5.144030638615605 8.745750766460478 4.704663754633778 0.5079931632902284 0.8755174477977115 0.44325921344695274
P 7.1339850670688785 5.394441628273643 4.938278583283369 0.6224206237038894 1.7041477441255812 -1.2955027783183883
P 3.6557601894428076 7.036414007268772 7.797964382199756 0.5325178879044701 0.6549119114633754 -0.7475474728129254
Ni 7.2552244450404215 8.47601813930255 5.866229798150516 -2.123711413727807 -0.8792401480649373 -0.7208064572736553
Ni 1.9281838778129048 3.4695590269201406 12.702527762620242 0.0211699492093958 -0.058415978045047785 1.5554135400102505
Ni 5.666861127661028 6.492528710582273 6.469916800877845 -0.8843844112700381 0.22623445248533944 -0.8893749225060942
Ni 3.1094081056241443 8.136665259700786 5.207353706213131 0.04409287655415632 -0.12851659151687544 0.4089113320947022
Ni 4.572918981351426 6.3983139485158915 10.703270153700126 -1.4676854432646464 -0.6472214847976532 -0.4947941481014511
Ni 3.3703648395274945 1.5026676826207463 3.667890546388633 1.4715400411240462 1.228939745686174 0.23963118550721957
Ni 2.218375248806738 3.313986373770816 5.2904459176750445 1.264016791894965 0.7579005339124754 -0.3870857515791785
Ni 3.2445862064242736 0.2152487272804504 7.812620215637024 -2.83963868853229 -0.7906592164007351 -0.2702113722869217
Ni 8.905431674759281 7.369090972252633 10.489438224233501 -0.4691633349072243 0.16935213747599864 1.287952733885272
Ni 1.7141052696330645 4.560906003124157 7.142496858206704 0.9084797616563451 1.9980808855094752 -1.1946905946953166
Ni 6.628623832621125 1.816802478157632 1.723713818172402 -0.10925851461821183 0.5548913705036638 0.29119620206870495
Ni 2.312278223651954 2.259549502425392 1.5419730469548834 -0.02764964339646851 -0.630469976370927 -0.6109110804023931
Ni 1.798296989560206 4.70669403965631 10.762995746978142 0.275176686711997 0.15213088850170572 0.018074083892891456
Ni 1.0998844439365263 5.785844633385314 12.616616627870494 0.24582574435370563 -0.04469837134863915 1.277545422509019
Ni 0.3870893372047179 5.755298655923457 9.101557758148644 -0.0719518077479535 -1.7510426089049067 -0.7422389161158185
Ni 6.562598303433083 6.7035903188867145 1.6722826819986334 1.2491694424694875 -0.9857046448777799 -0.7414403314739231
Ni 3.619519510088482 8.522987967149932 2.7870613848944954 0.22131104704179305 0.43789820624535547 0.18409972809881844
Ni 4.3574373306763405 8.67478249279572 11.829939870998507 1.2442969448685344 -0.14729027257995278 -0.18293990346276234
Ni 3.1129844884551634 5.291304249554489 8.982240456693464 1.0642263925337674 0.5428416384279812 -0.7538086232312888
Ni 2.2908749479401638 7.187731681870423 10.153591116827375 -0.34879996862510254 0.6250436631490333 0.2709454222394688
Ni 0.09254578341190604 7.858826164792549 12.772897221416113 0.19951811953641768 0.5850000169635861 0.5951203932270396
Ni 7.2486860836083284 0.7936186076491206 7.6187729300258855 0.5665628933043211 0.9031436941554123 -0.5779461954405982
Ni 6.055641452029951 7.251703083483726 8.589284017603399 2.4159424848189293 0.7514925735036025 -0.3797545080250879
Ni 6.545780133914906 2.4815878549573465 11.045344752338417 -0.8250747177661275 0.17833351503900255 0.9327843998399806
Ni 5.935603371881135 2.085746467050258 3.95681551105179 -0.6629278397893164 -0.6290756671265617 -0.00967171876180915
P 7.711699277251862 5.761644442895418 13.19242710196189 1.0288125318108474 1.5809492223875095 0.2472977009135418
Ni 8.147917110299916 1.8145741165475358 9.613011681706473 2.121185819092476 -2.367751012715367 -1.261599440702724
P 1.8193884780508305 3.5846085115303046 8.903307853570398 -0.7258453052491436 -2.4251981990892424 1.7194059558362322
Ni 4.422518327988498 3.8861434352471393 6.9376306453910725 -0.6509827516122981 2.4264022466996726 0.7919951616033393
P 6.748946189353944 2.2089024194107316 5.955643954032184 0.2754574511772095 0.28077809205917453 0.43923003768290164
P 7.399215119944677 5.986250454895796 9.747173722974097 0.37381860215662716 1.1156322578095692 -0.647261336896653
P 4.489910218822238 1.1214894643208355 1.3966315997659888 -0.7482529835203823 -0.18535571199310658 0.9583013131641626
Ni 6.6874232344480316 4.407295775425699 6.665804458745141 0.09344802994851648 -2.5510004769987487 1.0303287113450577
