# total energy = -381171.6720850686 ev
CRYSTAL
PRIMVEC
9.14607052438216 0.00000000000000 0.00000000000000
0.00000000000000 9.14607052438216 0.00000000000000
0.00000000000000 0.00000000000000 13.38619871140564
PRIMCOORD
 96 1
Ni 6.1719602820469355 2.824233329155194 5.8798073595839035 -0.9544695981228981 0.23405266297817756 0.8190076856364411
Ni 2.634168842985947 6.703182335157093 3.0749975398497016 -0.30180277393995764 -0.2171515163474647 0.36000560753293487
Ni 4.768806766328674 1.406281471748764 9.826847944098937 0.7223820292908915 -1.5215924776957472 1.0636473801018456
Ni 1.5576855189094256 5.98613042641021 5.983604281803121 1.152566668942073 -1.9913229979603513 -0.40739181012638226
Ni 9.34252785391282 1.1081287271921363 2.50790459916167 -1.2036686298242107 -0.30780681404219246 -0.3354227759872481
Ni 2.8199986986226713 6.901075857472862 11.776896218932823 -1.1736864816398238 0.07501990515031595 -0.7271827931136444
Ni 1.1213905290758477 6.0092059616878695 8.456007494625608 -1.2703008251314638 0.540470052872011 -0.8061863655020568
Ni 1.5361465234362255 1.3494843754054204 7.505521349121637 -0.03781732795808971 0.2094513194897296 -0.3808659959217118
Ni 8.023024296834853 8.131871679054198 4.653257143819409 -0.46711647968052455 -0.6850701802143105 0.04132739799387721
Ni 8.077434268839129 8.649072806448679 7.096291410415148 -0.16016969964578223 -0.528081192289355 0.1648838172919999
Ni 6.715017350079522 8.769645450747278 9.353258023547282 -0.1355588430756375 0.3851260567496464 -0.5018459127419099
Ni 2.9628694622264344 7.8925830427207195 5.048604262471219 -0.049964761953901045 0.3995843982668215 2.19990836990536
Ni 7.094094524337584 6.620959163478083 2.629786046115137 -0.5695911386076835 -1.1341331448272338 0.9328126819747549
Ni 8.317701534690922 1.9853466184131943 7.615435163133838 -0.1591425439328485 -0.014758389256097165 0.1895448103737897
Ni 5.006449110014519 7.224133351360074 1.965803295471736 -0.69959331353115 1.9005118914140495 -1.965309604615725
Ni 0.896489575875657 5.083815718383012 0.11570602031078993 -0.5995758578952319 0.6317231320517379 0.09412114475614113
Ni 4.547124315254607 5.398650895102322 5.864654150369468 -2.575991342616131 -0.6160293754655648 1.9651237138571642
Ni 4.822503344852309 5.034244017548725 1.8081945542435502 -1.50293501049556 0.1827236736868982 1.9992201413202408
Ni 7.90232360755255 6.616532465470002 0.07718551617725365 0.7210969919308807 0.4696739559950557 1.2033526412456887
Ni 7.597210703524539 1.336250011732503 4.378023536738914 0.7160704852505668 1.030373191429748 0.379546762889656
Ni 1.2641606859067003 3.1685645824779316 5.461194467392932 -1.383918645159636 -0.17563822759502654 0.14046913589306131
Ni 3.9173167707620165 3.1195599380000516 11.507351467556926 -1.6517134375852651 -0.3348291082673072 0.023885291258029833
Ni 4.583864079507619 5.348210317592896 11.254982121530977 1.181010526105063 0.025302997541162872 -0.13080770154389731
Ni 5.907144963604878 7.0252429073854605 7.265466272099983 1.1622134480032178 -0.3546975650564601 0.41347966819167503
P 5.041423682706459 8.526341689567628 11.812584185105404 -0.9352642288390408 -1.0040088425036064 -0.3148169268114385
Ni 5.922839620178982 8.643457119306198 5.331214175220137 -0.713169509553688 -0.2794686292191316 0.6657352273311244
P 7.059577255158875 4.998016433230531 11.8753381170121 -1.3667025383916656 1.2929663850497797 0.20222060606924527
Ni 1.369834381744219 7.925079030370944 6.91730464455042 -1.1121602401005686 2.6866737341650633 0.3293999668319359
P 8.96096294854278 5.5503933468627755 1.967235570075177 0.24891235369882936 0.09996603357269236 -0.013476180109563887
P 8.263730574059348 6.372240928701772 6.454757689236278 1.3521706633240775 0.5241065239123232 0.9800875558013185
P 3.9983326611660965 0.5442945313393919 5.9861066466275235 -0.5304018700027318 0.46062264442606476 0.43240787255474566
Ni 0.5855378205907081 1.2571913803650532 12.332517243687931 0.5676216735861386 1.1683846098109363 0.8195365615567176
Ni 6.507959465358597 -0.08811964317861715 2.7447594661977304 0.9298906232319535 0.32633701163589607 -0.37389470681020126
Ni 4.855282860680737 6.696368512809945 4.1056270406545075 0.2836741826600469 -0.2528800800973258 -0.3429260263428287
Ni 2.5221935047360993 5.258834918966945 9.963321031552592 1.2434641645545939 -0.6158100603659071 0.044544105158962
Ni 2.128308842719604 8.640630983594429 2.114832108184674 0.8229072778011634 0.6842708242414667 -1.5903208934103965
Ni 3.6513764856774107 2.118952412838889 7.874832349551128 1.1242554807022056 -0.7155385240064968 -0.9315656969415312
Ni 2.5003435428739014 2.409047469492379 -0.10522462378752556 -0.3780933182725811 0.5333092734575138 1.4084914494029936
Ni 6.90089293606757 4.070376256640576 7.819681545855418 -0.9501077216097767 -0.5971158263905135 -0.4852635829031966
Ni 5.423820880470581 6.218696701099187 13.3214223719455 -0.46321225953011186 0.7708799768912787 -1.3095638843971447
Ni -0.13832699589629585 6.089042009027812 11.546158243689746 0.37897443532595376 -0.2850170698411866 -0.6830027561623205
Ni 2.4734723884364227 1.2789041511732815 4.191245233615748 0.5430344711650776 0.5190319376028932 0.5852812956494308
Ni 4.487921802431665 1.10323557960056 1.679727022092524 0.10850132473721312 -1.3334453190004325 -0.49106733406916714
Ni 6.610596665868258 0.6992435953346238 11.496174055086525 1.3449216950711484 0.4070881628430344 -0.5523143538051069
Ni 4.31420134382531 8.790507637020896 3.4405476761863776 -1.5300848314374746 0.05590143915331018 -0.04381853984684711
Ni 1.2849314114776718 3.9280359651121612 11.441531772897529 4.356375380797633 -0.4861254166828596 -1.5823247625787977
Ni 6.760336128240758 7.110612327235503 11.203792480866879 -0.8447498275975517 0.9771464708951236 0.6660789838237884
Ni 0.009341796168291651 6.058951437857184 4.43602517053611 -0.9373619919083341 -0.6971330249161156 -2.0781221551337823
Ni 2.6521225789154133 4.32171026751257 7.444921316762261 0.22316172709728666 0.11694482751887601 0.7612658508402825
Ni 9.008659704972818 7.836453609506694 2.354512196325478 -0.1431752219703147 -0.5204884675437617 -1.8577652444751425
Ni 6.6677230207411275 5.802404166934352 5.226788003366713 1.5222208553083656 0.5509696668517544 -0.46587875061868145
Ni 2.2359032133126946 4.347868028469407 1.8645636144985092 0.9870837846134937 0.3417500037568566 -0.15185398069123526
Ni 6.459119450145479 5.460011880507716 9.606042601163248 -0.6504713591935185 0.7340664076073551 0.2524918435199716
Ni 4.672855343182455 8.83155520036855 7.966769562458201 -2.7401879040331196 -1.2567608816635 -0.016806787144693636
Ni 8.520954654181763 4.320018244513613 9.600768977048663 0.6492439145443206 0.28004687032010483 0.8670482339844358
Ni 4.336645800254709 7.53413940297966 10.042004674039193 1.3235707401991978 -0.40873238331467676 -0.2933960379335011
P 8.38778787112877 9.45456721465452 0.4635749736118857 1.0261468120532264 -0.27825506852700466 0.37129892105856693
Ni 0.4651215740936344 0.052842335560918184 9.163977355599714 -1.5894413190189207 -0.3689350488120808 -0.13848398714223245
P 1.3951232660259172 3.2439464935990006 8.920361713424041 -0.36642436657508504 0.6108097789378383 0.24850354829618493
Ni 3.4225509537266676 2.971768588593918 5.738743859464431 2.3112643904825485 -0.20361902907866866 -1.4234632402214775
P 6.179496643944989 2.3667926248697944 2.504263548589321 0.0859604633222197 0.3270178397530045 -0.06955373982942215
P 6.694438691984109 2.150378310268153 9.415075397858882 1.497994378660833 0.2987513887081435 -1.0786155713759036
P 2.218754331566516 1.6289059680600888 2.0654369265064942 0.571381911959519 1.976906051204073 -1.1091829026397995
Ni 5.3503139137537605 4.290741673596537 4.12519780180676 0.48253769933160123 -1.3334553463027614 -1.2343740293278678
Ni 3.5408462265293736 8.35735889535835 0.007749465335219812 1.9536229123064162 1.732604199694061 1.2895684151118243
Ni 6.217827824424048 3.0210567612500014 11.412804880803357 0.15316781440665234 0.8816389873144171 -0.7080026206407677
Ni 8.593199463202064 3.623590724213469 12.18450547398842 -3.4541081757099033 -1.0345944285999473 0.7350130877913406
Ni 0.6679256215344825 3.4257063479679646 3.215752817401256 0.05945418950157502 -0.4490567939653363 0.7268788887199803
Ni 8.696678102176072 8.786181545785727 11.312448710217692 -0.2966500260944246 -2.1327120745645205 -0.5281004755630647
Ni 4.853316455573843 3.3065330524198537 0.42283288901107113 0.14375783394666208 0.32066027296609295 -0.3916353186230739
Ni 8.344645857690518 7.108270933247759 9.250612591574383 -0.7381734877971933 -0.548647703586797 -0.36030385549964394
Ni 6.45838776452431 8.462063107747818 0.2010178199181661 -0.5543321555660841 0.5604935471817895 0.5589778818682116
Ni 4.721265493093134 1.3121775547960004 12.852102751600402 0.905136556215725 -0.5187326611949196 -0.9630444842761027
Ni 5.157651943629359 1.514314853714557 4.390258234931908 -0.2564132900615649 1.0575980885839722 -0.7813842188567124
Ni 2.6179620064770255 8.773331317063924 9.12558581105691 0.45404679098075995 -1.9560999130919987 -0.5468152783637485
Ni 7.653550496354652 4.059144882355612 2.9431294987742866 -0.9561780961735725 -0.6918342384110214 1.0873902322447402
Ni 2.7130079686670454 6.585216320883914 0.8086900451563018 0.1701818324661456 -2.668937750337881 0.23446763902840909
Ni 3.142132439413155 6.7515193165056555 7.754866089711074 2.178291305856216 -0.02698424189832772 0.1462824001407287
Ni 2.5377326781157032 1.6444268492991636 9.895064823774694 -2.4615507695763474 2.8755284604503637 -0.20843007731406685
Ni 1.0478652702184985 7.972373359709339 13.278439500129853 -1.0077040319670063 0.45881773000684206 -0.12544720856293234
Ni 8.015771463115001 3.807847455764677 5.392737046069214 1.1344241937050914 0.3461288495508426 -0.6668657413911419
Ni 0.08590720878160349 4.2626906760949215 7.3477113943476295 0.4829223363645296 0.19270032528363587 -0.7892019151289184
Ni 0.926277412120526 8.732686180807915 4.059069884579442 0.6236395837126549 -0.4422050611508255 2.9348098718195
Ni 0.12827455006844254 2.722218061423527 0.8236338093616785 1.170509369463423 0.7304797186973614 0.8213964975835919
Ni 4.664184868571588 3.7465413467808713 9.34920174138492 0.29360326884830085 -0.15016759412774783 0.03554755808730652
Ni 2.8560890918868957 0.5870149109384456 11.759574476458644 -0.6468777283049891 -0.8477101957774562 -0.3991416543024481
Ni 6.078048432569728 1.098708274819569 7.436206941014123 1.7886074545325585 1.8032894820247654 -0.23042817885171282
Ni 9.090672517035744 2.0861820430807247 10.20744519523498 -0.8996410803187926 -0.281327022584109 -0.1397901075481657
P 2.9801280968157884 4.957243251990818 4.068881788759335 0.5715112384485319 -2.1536714504250067 0.953873616410112
Ni 6.8596807434551526 4.711067624748074 0.9216147454996182 1.1143055685783454 -1.3628816219836786 -1.326983622535489
P 3.0260413695442243 4.847801375204272 12.727651258902576 -0.07455659236065224 -0.8161028532848204 0.4611006125037478
Ni 3.9521724445405155 2.9639395524473957 2.8055058356813403 -1.1696724753844243 0.8473363573778052 0.9405828128384769
P 9.340058414941371 0.9998392552589337 5.833464221553031 -0.06888885255191361 -0.30317522880745207 -0.9023098854002073
P 4.862014368395504 5.255908176482264 7.942526988614778 -0.10384737090496954 0.31245973943317157 0.47187687718364535
P 1.1225337878589263 7.1931190270927186 10.28339782114056 1.1738960265474687 1.617506195575937 -0.4812889145261646
Ni 7.207990537343004 2.140646891506588 8.87168815668974e-05 -1.1750699922509118 -0.6624619558964914 1.4135436671149206
