# total energy = -340869.9879623174 ev
CRYSTAL
PRIMVEC
9.25689704777492 0.00000000000000 0.00000000000000

0.00000000000000 9.25689704777492 0.00000000000000

0.00000000000000 0.00000000000000 13.54840453091184

PRIMCOORD
 96 1
Ni 6.035644892885473 1.8305513631078105 10.427732368607304 0.3656088126523252 -0.2978661578897128 0.35004258278295197
Ni 8.956603170106666 4.3363655847977975 2.870879390650893 -0.502483803436225 -2.155632945026752 0.8934262097573323
Ni 8.688347554675559 1.591834505702884 2.4984475831324087 0.14819195845861574 -1.081037550553835 -1.1852533605418167
Ni 8.673443950657337 4.252988714367901 9.043857754650372 0.4708242675494149 0.5754733084200735 0.4553835075143125
Ni 9.067093491573441 0.4660023728209689 5.23903244707641 0.17081098140971226 -0.7559758060859367 0.483097171379497
Ni 7.419828687199054 4.960965446614922 4.546031522643476 -0.07914652572417982 -0.4589539984743902 1.2550963494768836
Ni 4.197789838119042 3.7943835278642997 6.842364018736209 -1.2383301857621383 -0.47818302190733136 -0.8532061858950211
Ni 5.785116235028836 2.210750632819891 7.327843828336521 -0.9808329186077752 -1.6412130522745734 -0.2480309795351406
Ni 3.859709449328026 1.5684330703252023 4.692977355504392 -0.2684740778808409 1.1121157600158784 0.7888352758181189
Ni 1.5167147873128972 6.800810734216084 7.719582745731284 1.3725692815850876 -0.23875366799827272 -0.6028151907681359
Ni 7.558024901104675 9.246584722575516 10.047781183732294 -1.9871760656715134 -1.407246264141983 0.15312024899816856
Ni 1.2328520436987327 4.796313021352729 10.69256293218329 0.9130696950198726 -0.1869855342870457 -1.0416168826643672
Ni 6.669279486082588 7.1966819303895635 5.253258446241134 0.2613204975551951 0.9281147622784531 1.1657757114331793
Ni 7.712698391502493 2.187784271596779 8.579472561718834 1.0435706639566287 -0.04990691213277212 2.72352432733451
Ni 9.03068611604321 7.68713084224887 8.942340143354318 -0.8858615100361968 0.3502439001604807 0.27083666457574646
Ni 3.581660036970659 5.9740957853592835 11.054685333617863 -1.75508823972919 -1.4961164449118298 -0.6750310508107537
Ni 6.126242142901837 4.72739542388958 0.948704187659872 -0.3386405115935974 -1.3252039049272466 1.5843795882252971
Ni 0.7509703899256773 8.728105926885663 11.139091570983677 0.6802066814744221 -0.2286428048165159 0.24524056127419697
Ni 9.04091498712404 7.128680765720081 4.272991017201799 -0.007682713356238381 -0.2472416508646258 1.4788010935618336
Ni 3.9473259785407464 8.5903262733408 4.780757731792343 0.8816215038129204 -0.6035479551691024 -0.4104066856933061
Ni 0.75706698222779 5.097301024242492 12.967259283138263 -0.22934111643512115 -0.043438273689292935 0.43192219116757874
Ni 3.0091209633513514 3.5836410129084846 13.008635760927486 0.3276302765260229 0.4231128204060649 1.2693209777166978
Ni 7.091977169488867 4.737318817372522 12.402317344809486 0.8133720846172185 0.2142777943440955 -0.8282523441631607
Ni 7.746717487631045 2.606806966931485 6.3902534711016665 1.7334886591815437 1.7992150548450758 -2.1839544176792645
P 1.402632789846699 5.266813320380193 3.8169786875214924 0.49797177449848434 0.4325899066585647 0.46436437085668414
P 8.755793305530696 2.328368764904077 4.384412582497291 -1.1505041299860896 2.2050130381217765 1.162855709572907
P 4.598993006910221 5.295426388715799 13.005655040123843 1.8499408633347172 -1.2352147800616082 0.16438065240333624
P 4.079005337024734 0.13477671618864465 13.387083625745005 -0.865685035088322 0.9356108135451822 0.9074916867114629
P 5.848775915049531 4.194799860418492 3.3595435727867753 -0.20379952052059094 -0.3193484961332048 -2.1335355989070806
P 2.620183182960263 2.2274963593223545 2.9013771631965057 -0.24942991676519624 1.1836978431292389 2.519640217519912
P 5.074140268184359 7.9517022127114965 2.9973406363491213 0.7305265127748968 -0.473683591375081 -0.9232083261157714
P 0.7850394732975204 7.434371272237954 13.19618604637569 0.2503596276683172 -0.5390580030158328 -0.691547560408538
Ni 9.012153808437942 6.498054664017327 11.37342436201405 1.4221224099228669 0.04234684039732707 0.11676356474600535
Ni 1.6787660245445801 1.698251792531139 12.089376836635047 -1.8925512418060761 -0.4491709509456974 0.33677131959534257
Ni 3.8882206917976694 3.930645050316623 3.9739775104220287 -2.308333847099315 -0.795181786861437 0.6111435081281733
Ni 7.224267483168634 6.149717633454765 7.805507114189636 0.6246268873265888 -1.1062004229727078 0.12671476242144628
Ni 2.3289797200998557 5.006713031123033 5.965389673819446 0.25757440024920153 0.7700867915660221 -0.4045512553537936
Ni 2.7773097510380986 7.249770234143916 2.5769738395837036 -0.29269361254983783 0.14529689629900783 -0.34393235612015605
Ni 7.238698985444665 6.7045760339841305 2.800252044329256 -1.3970775511390972 -0.7559953464699625 0.3497656749724815
Ni 6.0167052818163524 2.4669630253766446 13.051679405849434 0.566347177749089 -0.686900805665146 0.06366128560438714
Ni 6.171508368770849 1.9317199893905173 1.9312164141988455 0.8767006694725353 0.40459187878374187 0.31721936560534403
Ni 1.8229699645420188 9.113192838163968 6.370215992059527 0.5292304754024499 -0.08550743494520113 -0.027549627483494488
Ni 3.8954873558686667 7.711615334564523 9.032585631288265 -1.37408931777404 -1.6739264833471947 0.26726874471883005
Ni 6.117253696006374 8.250366734477922 8.30950719742924 0.1373465311036796 -0.2151671389275843 -0.7569350846754125
Ni 4.904600201355941 3.7488303381912096 11.337088264589994 -0.003973639935767349 0.9901225714398173 -0.6470623335119695
Ni 4.545136380712693 7.371868704330475 0.5311098315177197 0.9170819015030593 1.7621510601132424 0.08042282133344214
Ni 5.754596245930649 9.158625688177285 12.12533432697566 1.2543985520789107 1.7741072040338541 0.20429677187198367
Ni 1.6024429095568489 2.460575766511692 9.291509368948708 -0.778998235123039 1.9279864426852342 1.2559021332076306
Ni 2.1216807707929717 7.252139999751782 4.677342456630615 -2.0169730944282875 -1.3369047383039427 0.6019703262693374
Ni 9.160116048579106 5.4812123096137695 6.334136310679759 -0.09292378201393028 -0.24010606826110906 -0.08157776087349176
Ni 2.3821698497201718 0.3379063591291885 9.399896523438501 0.13749025577039545 -0.809530085163309 0.04681336080911293
Ni 9.108471820742047 3.14500295303054 0.6069423309694475 -0.7884493532336099 -2.590358152860765 -1.147643777719159
Ni 6.293393930328577 3.96573794648624 8.847730954219012 -1.485321925399487 1.285395257570741 0.3547078494691052
Ni 1.538718431257814 2.814068888650746 5.047376727850517 -0.22869268421784483 0.6255992785421871 -2.234663771108674
Ni 1.933497313596417 1.8022622861639042 1.048236194569646 0.47161899553656844 -0.27450562878690143 -1.1745382881171578
Ni 6.333948395672573 1.6893466577078278 4.791311519954565 -0.5806116580879033 1.657371921422623 -0.8833950507735755
P 5.7427751885820335 -0.01494526005429866 5.824932925689446 0.8970563503107518 -0.3076849437523475 1.1195362208496655
P 9.109064262144013 8.514271608363336 2.6355033473392435 -0.07438175734568479 0.510689736285785 -0.09705528768380059
P 7.446673688225667 7.7965473636745815 11.827364072477165 -0.22401250513335613 0.8605672542457824 0.37135060023210886
P 8.44222517974605 7.562468211619425 6.727974692292741 0.8947618978496202 0.10348973045523467 -0.6458045498454684
P 6.1971777438904345 4.382705610707875 6.347183906868384 0.7692797222836945 0.4088313707863862 0.7529375334802453
P 1.2977799185955123 4.508414270687667 7.911387500997359 -0.7447902217827626 -0.6127152234906674 -0.2732951534185681
P 7.715817965759723 3.1967119791459395 10.967189144064918 -0.3054606824075191 0.8383110139507433 -0.7892715920245891
P 5.237311589941635 5.886793990641357 9.613906723002037 -2.240751629173967 -0.19248538105935237 -1.5172144032327097
Ni 3.2050617001549067 4.849169902684439 8.830078051819786 0.02570588940653637 0.034658727724449986 0.4754170291264199
Ni 4.036164418145022 0.7429104097898594 2.368328937466726 0.8407633321459778 -2.0276866241910496 -1.434421539005194
Ni 7.02052318227355 6.280628669495577 10.347864787794368 2.5334915215807072 -0.5202817508495943 -1.9391434877433187
Ni 7.253843268782436 9.08761603201344 3.8648720207323506 -0.12315635564622661 -0.7044465278583932 -0.23323453795225638
Ni 4.071896040201135 2.5112295063798387 9.127275355426653 -0.2736227119613159 -0.3255260856988265 -0.0902133250613027
Ni 3.821330354756875 1.3440088617427206 11.556355455906294 1.4344621624351424 -0.28049887025585885 -0.4838497332748054
Ni 5.452469644721483 6.96842536648811 11.817758190558092 -0.5181557056455269 -1.2231051412822675 0.961377380986325
Ni 2.2395210684028957 8.47488351202946 0.7733072821592001 2.4874397215279678 0.07781392295568534 -0.43808872498960677
Ni 3.2449681827155024 8.184170664705057 11.662358033753172 -0.5579810651725811 0.7748081083010914 0.045452218795528174
Ni 4.53151022846746 5.9273762266760714 2.260917459910796 0.9752813926619268 -1.8198928949094013 1.3320273556069835
Ni 4.093297985847179 3.1813547871793357 1.7248200123402702 1.035456005269294 0.6232382345091783 -1.1954328721779799
Ni 8.563434987829659 1.2770537264235864 11.624151117464468 -0.48050010007628213 1.2808606029251812 1.4422379497258193
Ni 4.962131815625044 6.110884950935233 7.298213427030975 -0.6366025716312262 0.13879560484538034 0.5096096158477288
Ni 7.827446885545903 0.3406464006132841 7.411993649658045 0.5374556915257196 -1.3001582748125287 -0.9709650246747599
Ni 1.7556815809342783 0.23149555212876768 3.5886610281004616 -0.4951872697748117 0.05103176976583469 -0.39258611257211745
Ni 0.6873792109420848 2.1692056795069816 7.268217378297652 -1.4068253745544803 -0.37859674027156087 -0.23427094963657075
Ni 7.030964961983212 6.882900895976084 0.4508016224120721 0.6901331965595147 -1.065299570993288 -2.2534888742349772
Ni 2.7747270768014 6.021333730269216 13.500429699907198 -1.8615447661222326 0.8232898579515628 1.0848217001866154
Ni 7.037676212239865 8.707453789888982 1.5896072963073655 -0.10635831025228135 2.4740800123916102 -0.6018433137731699
Ni 4.763950909770303 5.774359720824379 4.935426593741708 -0.06269377948479524 0.6708437522022834 0.23326667674177246
Ni 0.3051369440829096 6.310241482697002 1.9626222883309106 1.6545578490125956 2.455880458664448 -1.0261743228570521
Ni 1.712933231023624 4.146321491323191 1.487831417587643 1.3301604776015736 0.7965660688034734 1.2513733920993417
Ni 0.3484258967728584 0.23698581768355526 0.531139453587818 -1.8958520240445351 -0.6510791679808464 -0.43162420031118565
Ni 4.090076585723985 0.38691607410687745 7.3584091762295465 -0.6446694077997607 -0.04105743216194219 -1.7722061303563994
P 3.3018980986857325 7.236856862960425 6.373507744599204 0.45759902710839256 -0.4417756869228908 1.8255071557723852
P 2.776680282048509 3.2179010161631516 11.000342720332785 -0.11408550369320998 0.4761557070646574 -1.9045251263385004
P 0.044673784467045737 0.8028423374266175 9.323456771549758 1.9877766753699895 0.2713987077268035 -0.5924927257962054
P 2.6339759593497982 1.9717097840232642 6.577777837238533 2.3265097466773934 -0.574390873989172 1.3068801669173944
P 8.36223633358365 5.015969928028761 0.8224771414533583 -2.0430916458922104 0.9800939835592218 -0.3238394420250229
P 4.789083384869355 0.3634868680384786 9.294882582181154 0.40955822165008177 1.2707733938925083 2.3771828475522288
P 1.7067773945813145 7.027410313571412 9.976231850478849 0.5586333540445992 -0.17900817250852397 0.2328588997803925
P 7.821550242216954 1.209358039351994 0.25311781192116833 -2.758813232443791 1.4616968297813795 0.2969554731499853
