# total energy = -340891.76100866584 ev
CRYSTAL
PRIMVEC
9.10858703803073 0.00000000000000 0.00000000000000
0.00000000000000 9.10858703803073 0.00000000000000
0.00000000000000 0.00000000000000 13.33133784024471
PRIMCOORD
 96 1
Ni 6.499559813620347 2.129578544972313 11.70322181883195 -0.904042808930914 -0.6160365745544165 -0.5968661722735527
Ni 4.730408058431371 0.7845153162144806 5.900756746302897 -0.5974639537585517 -2.2279051122286018 0.4835815672150833
Ni 2.7765250491712337 1.7792805039946131 4.731491980290967 -0.05112330103837648 -1.0467737442749585 0.013258150561486845
Ni 3.1795435920257584 4.144980951204819 4.597818000100308 -0.22983014025639772 1.1835397202848197 0.2825063876041909
Ni 5.069593623201447 4.555085974788468 2.7882897002120264 0.036335601206240645 -0.022766090051922084 -0.14680099164836008
Ni 7.4593407402379865 6.09584901814961 2.7078080467076644 -0.5687820124428269 0.7148270997617688 -0.4549636463680745
Ni 5.068555244277128 4.385128848921213 11.689210079364585 -1.6756977163150046 -1.2348095742033895 0.43672244076969946
Ni 5.6350455990154416 8.0572010687952 12.665557704118639 -0.5479105683104564 -0.03204108759594482 -0.4095119417931786
Ni 2.0479382791945 6.524836142699162 0.27767709810217306 -0.47820744738736354 -0.1767152627092892 -0.39607972754767273
Ni 2.6623124760832058 1.7506795406405653 0.3058472252884992 -0.12328208259081348 -1.147341673097708 -0.8208676216633153
Ni 0.681079112471731 9.246035634095719 4.6941504167985295 0.8813461386643467 -0.26014987428586167 0.5477321337510631
Ni 8.610420212193754 2.285444686664819 1.4205342485230028 0.9536712705913188 1.1704864866452873 0.14387610469208126
Ni 6.987761862617246 0.8981376528613165 4.850580380029766 -0.547800010874521 -1.3262164053521612 0.3357508487506282
Ni 1.0976849346368394 7.579683392414318 2.6079833977323923 -1.4164505563490701 -1.2337333104200752 0.07043974197880126
Ni 7.409525877631844 4.0622112206321335 3.97012613807786 1.0117265228628383 -0.5612759338737688 0.0925507149452277
Ni 7.60475022399086 4.032617421289044 12.913667417780184 -0.3383358358689851 0.03815517091348268 -0.060838214333295226
Ni 8.060252445458769 8.70381055527307 7.114788395974852 -0.0020795082368480315 0.337458061249722 -0.5806057445506324
Ni 6.994265393774823 0.49875343624190843 0.6483920369646176 -0.05225587198092291 0.09826499172118561 -0.01831833869321361
Ni 1.9828574246834578 6.529253807421046 9.383048822300898 0.1387858346533674 -0.2578585071485237 -0.44156537068429763
Ni 9.276002885508083 5.117450139590672 1.3373200189020118 -0.45735168698427686 -0.4701328979093452 0.647823122937394
Ni 6.3697806652545905 2.103582637516118 6.971370049352296 0.9194876827310746 -0.8222254212427903 1.288092087676614
Ni 3.4158932089400373 4.049832650823805 0.42145705563082997 0.153045172785859 0.8639868214502927 -0.4557010387547313
Ni 6.070490711787294 5.874419266832123 4.913437828440578 -0.10894432581190269 -0.24382516898390913 -1.4527411632499883
Ni 5.363782767917702 2.766323431669153 9.499711605306837 0.5426860866867236 0.2880293743049491 -0.5676252731305644
P 0.1871705336846054 5.6103977624434505 12.51004770818 -0.10093122569943906 1.2953258864208919 -1.0130264726211844
P 4.041461859319866 5.938234027742461 12.740906668817267 -0.14574195425622644 1.1700033763612818 0.026365634477722333
P 2.6004469528027303 8.503175708203129 1.3608365689617192 -1.5798253931957116 -0.18545495657513222 -0.6423050213326422
P 6.414931931288353 7.92746746336472 5.712531438237273 0.8487563776537834 -0.1283093606020758 0.4156154835877552
P 4.549957840276262 1.2447066382985235 12.58262310812025 1.088985344646002 -1.1171543508810502 0.9136502501136909
P 3.9809535155106492 6.217503306861924 8.345377635196165 0.1118797542911428 -0.30249182958718224 -0.1490098263742208
P 4.805344404136387 1.1967863617999102 3.7241359926241144 -0.05144648870575011 -0.4950931673991086 -0.489705420724634
P 0.2537834525383709 5.501887164852121 3.609353221986417 0.5224584467859389 1.1016310584344704 0.5409310516688297
Ni 1.4111023066271058 1.0171832422409552 2.337796290765899 0.16126961757818034 0.9568252428392682 0.9311283522937963
Ni 2.0136353403437535 6.429979317103923 4.965243828177037 0.2809516415225613 0.1415204599757111 -1.2573362945509958
Ni 5.895897315108826 5.511041294842827 9.190331159099536 0.06443210233214064 0.5213623855082827 -0.39111595578449415
Ni 8.623436383095962 2.436474168630892 10.337626013133772 0.21200133960509296 0.8568612661491048 0.05938219861305903
Ni 2.38572112155804 5.1058913426173325 7.203388533121718 0.13076887788616187 0.48717802631709 -0.8108066378828874
Ni 0.5488898319711079 9.364993781039624 9.108543334211426 0.19745789457327928 -1.5791738756546416 0.8698329958184244
Ni 1.262559468927165 1.1411237863041817 11.343635751633832 0.4192273693087296 -0.11242945614702574 1.2486498225205913
Ni 4.131809934322669 6.85055010721426 1.544662429479571 -0.04451376614165882 0.43392688030243337 0.6875659500529707
Ni 5.705263696625746 8.043957183216605 7.824389227093249 -0.3036974198595092 0.269228182438046 0.7738097489435641
Ni 5.1104183103838805 2.9947212520840427 4.83439624254968 1.8744308780562813 0.33084724080142375 -0.35182795681814893
Ni 1.202342599903722 7.529413100455405 6.9469071170975285 -1.0426638358716431 0.36720392505358695 0.4539827705120439
Ni 5.208891245040127 4.616332114149174 6.903446404821254 0.0677709368973865 1.7876931702484051 1.069042582975488
Ni 7.997430520537471 7.307336639456983 9.232870993224507 1.4821119031026218 -0.5783961384938232 -0.8476055518787919
Ni 4.628965724395055 0.2735472647312414 10.32472096699364 0.2586221247874255 -1.079790051299979 0.500118645638158
Ni 8.595573215293403 7.241964310160167 4.898226488058011 -0.5996303652822512 -0.9567385966627331 0.3197529306604751
Ni 7.278152726531387 6.101860685606193 6.937121762023882 0.9883145716968011 0.23154583739592383 0.9541885765473694
Ni 2.359433739316071 5.265838131310671 2.42289053275513 -0.3483777934860194 -0.5051135277495882 0.8132425010178898
Ni 2.4431325457684108 4.9794641542879745 11.40611974797537 -0.19486313726290955 0.5440649693121211 0.12567835073713193
Ni 0.9102174610142268 3.381216818020018 3.9752451640030113 0.2519675955853854 -0.04912195433763153 -1.2325837701966642
Ni 3.880239868438767 2.568320966258231 2.2572089776516937 -0.9433236088084076 -0.1700440213367007 1.3125571626975137
Ni 0.9898848068358336 3.401328578238406 8.331646440210106 -0.3556259904080004 -0.36152872904568056 -0.46430909213871646
Ni 3.9842417154376593 2.8722289733626294 6.911085776784642 -2.8306413701296864 -1.912229951181926 0.9689140556830023
Ni 4.271936437583393 6.788985167306612 6.104766324876874 -0.7530347211797418 0.8933102530047584 0.28700916057055087
Ni 0.8132793232768206 7.397256610868181 11.293603193797065 -0.3834993197795008 -0.258912916554967 0.7900341812222266
P 0.32909325031266035 5.792278028766262 7.966781035954658 -0.8600496911794155 -0.6266212920487982 0.5191815758068801
P 8.508996095331547 1.6189875889931686 7.990683790105516 -0.5253385965472114 1.0017578416859005 -0.08214263223802627
P 1.7671114316885597 3.1097262722458927 10.486337359694236 -1.404155283921485 0.621947797832529 -0.7251331096734673
P 3.9561599415457707 6.09829922806752 3.749824940696542 0.10887413469559959 0.9814307000927742 1.1483508310885127
P 6.7932662032226645 4.058959455053345 10.590494963531777 2.389946060755168 -0.45403547812685024 -0.8616126647911612
P 6.449417041880208 7.861676139063355 10.40069660248168 -1.386264262573677 0.8110902305615774 1.1372318383572155
P 2.8313678518319736 8.566434845303084 5.873160460101063 -1.2343310919050743 0.53421738709408 -0.20624412540634157
P 6.8877951196839104 3.9849066422927053 1.7376861412059954 1.0653252820249008 0.7355908146716815 -0.03868790348850112
Ni 5.577980301113177 2.7170095413510587 0.5791121238210223 -0.5183192278065847 -0.16084744243909718 -0.4797295404588448
Ni 1.3691663718239093 1.0915366383744245 6.92324391878623 0.6773316739194722 0.072184749694366 -0.20386174121709408
Ni 7.090998588303481 0.8332198420585665 9.539985222972417 -1.2819592353059985 -0.977033085245711 -1.3230567766772567
Ni 2.7219828298833235 1.5473758775633835 8.995906546683987 0.0032994966868781887 -0.02530608286495642 -0.030325647566734868
Ni 6.679254019049856 2.018635954637184 2.762666333966398 -1.0414788144246065 -0.2229457544317386 -0.23890844840858208
Ni 4.4037832352107324 6.7763788828218985 10.598573369391238 -0.6740131510692005 0.6302732869790887 0.5676682105533578
Ni 8.115304745621783 7.167902388812472 0.22491287500748222 -0.2514572316078702 0.1731961938124372 0.03588360127048659
Ni 7.517754109024454 3.922011848674966 8.38362550310062 0.6526195158847728 -0.6669073932623547 -0.3209549213883763
Ni 3.0701221357288864 8.556096598995172 12.505754831100777 0.3681086962560435 0.15294567109351723 -0.48681935742609067
Ni -0.013412394439119632 4.87911485069831 10.077038446064995 0.1907336884755683 1.0020478621224935 1.0576181431886302
Ni 8.613708412120763 2.3307325815044138 5.815809152565258 0.5364257075993084 0.5751202959560289 0.31060854515704567
Ni 3.646559067531729 2.3414078455333764 11.047799774377953 0.03159988629346816 1.1632174637876997 1.1420328592902849
Ni 0.8589543330662709 3.651887590959155 12.865887413522223 1.051487090590228 -2.056676069444864 -0.9202135051535055
Ni 3.12621281481622 8.365362786054483 8.170977340563272 1.0362561325730861 0.2429430234892719 -0.14067199593248675
Ni 5.446561607077443 8.0899191134983 3.7010329724167237 0.20051570756299658 -0.24580646107999604 0.16939918866385018
Ni 2.9639615535978576 8.595664301163957 3.623977969362614 0.9729260050558729 0.02220738933497466 0.7442004107175636
Ni 3.4069941193868827 4.055844318280388 9.144404752307356 -0.14463612278655735 0.886913605449795 0.28729532435240196
Ni 6.739407127963911 6.014008363456577 11.610021845222095 1.353044581288599 0.9152013966508948 -0.4800825529228893
Ni 0.6470995284614521 -0.23689248870278282 0.29700460897508846 0.13890102007499305 0.552014563176501 -0.3554015331020202
Ni 4.514416133585977 0.21303983178073016 1.7142369946904983 1.0934428661967233 0.8845191370756895 -0.9704106948331869
Ni 5.969194115143865 5.709608492651186 0.6158370359698077 0.34157979672757943 -0.40346213605467285 -0.5018546544926583
Ni 8.139825061974998 9.067616630853971 11.561415692118207 -0.40553110276855964 -0.6672393226804767 -0.007860633694999366
Ni 0.15302790596603427 4.822632502367593 5.845751810792571 -0.36642333813382055 0.2790752504354549 0.6498195845421325
Ni 7.998805917182842 8.67824275140848 3.0333061377095465 -0.4289592518845128 -0.10257801727424269 -1.2585249155424585
P 8.738960592719971 1.6188873945355589 3.588169381071605 -1.169552147756476 -0.1132105572874244 0.04220517261314022
P 1.6468052138604496 3.2454624365459 1.5943880279325708 0.5727409970905749 0.007425860150425922 0.37367436326927905
P 4.823598012595468 1.0906986483653252 8.289772443798887 -0.1998374505490494 -0.39777639852380525 -1.0571190920650246
P 8.320339040239496 1.7465260249432895 12.722336081528658 1.4252378156233971 -0.09885917366175877 -0.8816752398689913
P 6.255604526514784 7.756808976294197 1.572751490241104 0.8306522118539049 -0.3609743992041074 0.1895178137905962
P 1.7818673427183551 3.2157502255710897 6.140507509623674 0.2796990000623828 -0.32425210408240934 -0.006064975247157297
P 6.996269282927017 3.918823843205566 6.100340462426642 0.7861898677754718 1.3948504615807915 -0.7988939456057016
P 2.4141672389321456 8.65086233871986 10.308936696485285 -0.03574630436167392 -0.34712643757742156 -0.3501050605897712
