# total energy = -340892.5837275778 ev
CRYSTAL
PRIMVEC
9.03064893849449 0.00000000000000 0.00000000000000

0.00000000000000 9.03064893849449 0.00000000000000

0.00000000000000 0.00000000000000 13.21726755347248

PRIMCOORD
 96 1
Ni 6.3933922926441795 1.9048708693024912 11.468516665582401 0.9243619801042402 1.1869849985209426 -0.8942898433092082
Ni 4.3937537950671555 0.2858678962567966 6.2112296577573325 0.36512261704452603 0.34333817417958284 0.06705102801222645
Ni 2.811818926059814 1.5434101213211249 4.85090871588766 0.4618441755379917 1.2715974324557004 -0.6863243643363857
Ni 3.519857912836685 4.408491813872572 4.698764860603193 0.31383810783793686 -0.08375137148604286 0.5008771210707375
Ni 5.057885767486224 4.72294803496534 2.772454328037259 0.7755776394772643 -1.390790946799437 -1.2888325653870643
Ni 7.429532810817118 6.091010048967368 2.526137061167841 -0.8568679510173243 -0.6044457843930235 -0.037776704528141386
Ni 5.026359772602825 4.459081508325967 11.354333142435536 0.17034638306846792 1.0019151931993713 0.9637001155822307
Ni 5.595119063279245 7.783498120312887 12.61975460855852 -1.598377959386918 0.3072558266347289 -1.5297760419478041
Ni 1.8933477614619818 6.404518051938464 0.48695696485221646 -0.031501927263023165 1.6020579793416667 0.17260715407818658
Ni 2.787481327603566 1.7089328827699444 0.47540676506537377 0.1122888168041034 -1.0127287388751076 0.2658926903069098
Ni 0.7962386241952892 9.160780426717077 4.9625952646474545 -1.4033376731161962 -0.8223213233907064 -0.7977040390626584
Ni 8.721195536158715 2.2349139901857917 1.583890907532619 -1.3043409454353083 0.8142022938279978 -1.140851437387674
Ni 6.517997184480658 0.6254816987148399 4.68475471208927 0.3237060017709522 -0.8045210619844919 -0.4211965772199585
Ni 0.7085130958377069 7.477666168802944 2.586684852028548 1.0286366683546155 -0.3883255375235506 -0.0654109213056422
Ni 7.646241289538669 3.9263093530291933 3.9124698837771708 0.18967285131122175 -1.0155926906864636 -1.3757003710149018
Ni 7.551247895044692 3.8057863144402932 12.679218721565888 0.4281115591722369 -0.7482408993355243 -0.6825659257352179
Ni 7.77080102813126 8.974089824533026 6.928557569867078 1.5842047532103298 -0.4320052377996883 -0.5429046304554327
Ni 6.871872187488648 0.6277655497907528 0.4043626511301964 0.44700145409820435 0.06077547941615985 -0.5155699471962218
Ni 1.7979208958266673 6.4249182875275785 9.425563564207398 -0.04177219884077967 -0.06735827484000012 -1.5195445940277832
Ni 0.07341465923935733 5.018990763200116 1.1165403842419461 0.007363639453922803 -1.3331432143789814 0.6790039194155725
Ni 6.199802274793868 1.7467983930953797 6.6924313901434385 0.48628996728518187 1.5676239660335132 1.426313565186079
Ni 3.5061403573431633 4.328019702613341 0.6257544243079304 -0.5499589661990528 -0.21364967384179334 -0.9075973590513917
Ni 6.0837313460524385 5.496486317327801 4.761877355716804 -0.9185831686389341 0.8793730740983757 0.27170004101730627
Ni 5.182364230239814 2.9373810666667426 9.236874479448815 1.0438766252328215 0.814484858065423 0.7849981614602158
P -0.1411029840886936 5.578285933957373 12.18219709865078 2.67971324368683 -1.2991190349147368 0.5929802069555852
P 3.9380853190354816 6.141870662884098 12.683369207744176 0.2714066781466035 -0.49099560029096734 -1.2944352562858221
P 2.2441342825879547 8.475751533026113 1.3670352292359882 1.0436426548451445 -0.5966345158787209 -0.07309697709599024
P 6.265030650916124 7.677622794041624 5.697700008876355 0.7601127110724457 0.002363358025853994 -0.8456779958387758
P 4.845394601743918 1.0497767978274597 12.593346282337516 -0.5997810319275025 -1.5298755436401459 2.1873557300513298
P 3.8659665578957423 6.223841861840448 8.415565871181396 0.6172110544784918 -0.6225345235739344 -1.623493009286991
P 4.479996490895418 1.0532806895532572 3.3546747037819116 1.5700706278017929 0.6485440602638185 1.0083671194723023
P 0.18900515746580746 5.5687134462528745 3.491261460416813 1.6869642903677593 -0.8931881256045971 0.7173457524185646
Ni 1.3750788281024002 1.0306227917696853 2.550813308953257 0.9280857088127306 -0.6610141677063713 0.9649319311068028
Ni 1.9305088811827462 6.418641986626988 4.718867987847517 0.021897571404039706 0.4511640701163262 -0.1911473789742192
Ni 6.122635380987323 5.645862278761864 9.17352357520747 -0.38056697662405425 0.2858087125045465 0.9184790389609021
Ni 8.608872326660084 2.460616995090061 10.16627272906782 0.36346991193245143 -0.20441838505151247 -0.271745549543261
Ni 2.396734185635702 5.331785344917765 6.861823784593558 -0.054039446243906934 0.07674434404059041 1.1285471660990243
Ni 0.670222241954836 0.1272048156196154 8.952028852633669 -0.023872435742223405 -0.0034776741359553013 0.2951747271004787
Ni 1.563403977715237 1.2094838214633579 11.359408367048674 -1.0646377690395727 -0.07484352747345174 0.054089068534919744
Ni 4.234290598948259 6.638086751928222 1.4896922101310894 0.1301384433910146 0.2948055166865181 0.6239684278069834
Ni 5.897763195770614 7.8188169876829745 7.815330254189854 -1.0389969285430172 0.5274584711036916 1.7165669437255404
Ni 5.171220409647972 2.7515483761165864 4.617029361579944 0.20233913392498054 0.007778101283522089 0.01880556274227729
Ni 0.7317038018991707 7.229801951797883 6.751459322814837 -0.17874000644880184 0.5228708517330092 1.2140887967162703
Ni 5.124197821461819 4.635341711171625 7.293222392034818 -0.4562527974931433 -0.2548595724211998 -0.5891178957867015
Ni 8.197273416664213 7.295770841119921 9.045302811600349 -0.47756390026609363 -0.4354942247895532 -0.12938845259886747
Ni 4.542714346657437 0.5413882972957004 10.564072807731169 -0.004770424805449848 -1.711351718073188 -1.224199402787711
Ni 8.392236093128755 7.069029311606201 4.8363034476192786 -1.320982924867364 0.5614453695720976 -0.26681648767275984
Ni 7.043644157891725 5.9389700461438455 6.8829320230468545 1.9720752054743327 0.12058293849209555 0.19345905782653133
Ni 2.4015926746781737 5.227643903211845 2.517387265567003 -1.413775323509752 -0.2968564856782758 0.7308445582359477
Ni 2.184071437566617 5.38915705660331 11.635715515444385 0.08008472126773304 -1.1859061636344672 -1.372141964239682
Ni 1.1803148259109717 3.213059681907515 3.7972550605398783 -0.8866009593053827 0.4400875005871904 0.3736951892048854
Ni 3.4312762789749645 2.819287272599078 2.633183662585587 0.9501262335525379 0.029614737542639318 0.5371479304773137
Ni 1.0981539833302874 3.492576322878865 7.977757309237634 0.3467718824514802 -0.8614074907588907 0.6956695529967115
Ni 3.714179413238 2.8061296173297823 7.190299184849028 -0.4414154753699946 -0.5394804352652323 -0.521364699501128
Ni 4.206656813688103 6.886998524191511 6.204291410301327 -0.1644891529567425 -0.7709848779002593 -0.6938389275458761
Ni 0.7572153846965364 7.404048319966086 11.424952815878155 -0.44339085392881056 0.8072829410003451 0.10672212134960331
P 9.213338802604039 5.412284548123328 7.832803656510074 -0.5007750482752343 2.072721295833185 0.5161587298201562
P 8.578755112986025 1.8133542745879763 7.918160445693233 0.41017322952626134 -1.4559817816744731 0.3199527053761071
P 1.7825597622555809 3.261355591571342 10.365033696408316 -0.3132490681036863 0.46926695036462407 0.6232888852414555
P 3.9599123971314936 6.27981382296543 3.7600614304835136 -0.4521799129753502 0.20620273064544486 0.3663796293800787
P 6.868485694196963 3.9004365442807143 10.453338089352558 0.08157004756400792 0.46057070814220685 -0.8745098324688035
P 6.126970092400681 7.7413520824667605 10.200240611380744 1.3220003103882845 1.156673749131911 -0.8989234854264776
P 2.456616417681483 8.36313934276659 5.892971533529098 0.5838147384062332 -0.33218704265876986 1.0681699505625475
P 7.013698526544446 3.8065087663425192 1.67968983589758 -0.49023018287985254 0.45389920965930214 0.026692164579205643
Ni 5.27752920706057 2.8023909287357607 0.5392290691729216 0.44764217300599685 0.327352597384604 0.2873230922665439
Ni 1.732087466236297 1.238192253928075 6.9179438483584965 -0.56488936225664 0.1828720263393044 1.146266437755658
Ni 6.873244846102877 0.841741354192134 9.087810075397588 -0.12268404399549838 -0.19849816291233557 0.2921750210422065
Ni 2.7523250119114793 1.640056124541446 9.321358907960034 0.4293102074660283 -0.16121588152210944 -1.147567930175901
Ni 6.602298290821688 1.7970088003001066 2.507910502739549 -1.3438053220785178 0.436969523783499 1.0334731705113105
Ni 4.137274339128046 6.897717904290794 10.465035488714479 0.06449997945559859 -0.12033456992671533 0.8796278704216592
Ni 8.122273878564346 7.124748414565404 0.11564648824887262 0.4972168986103308 1.674436075993761 1.3493072257333536
Ni 7.591578772486474 3.817363606173469 8.16561467124378 -0.48048107391288863 -0.5480434943438949 -0.32289481872356646
Ni 2.9441179306550027 8.517626651408904 12.386324077495061 0.9528785994866945 -0.49493093078963146 1.056773792910464
Ni -0.1256994064683514 4.952814168956188 10.042942061773894 0.1597585802502926 -0.18064133723657277 0.2666894751765923
Ni 8.629137102517532 2.240115643881821 5.751334838097635 -0.17109046032334405 0.8120456524963112 0.6530943986386624
Ni 3.6919911091908753 2.582467539049302 11.69983221870209 -1.0368243463717306 1.1083267252870912 -1.0087658975726175
Ni 1.0943520801948214 3.4087899635181715 12.632799380718092 -0.20332720886986277 -0.11368029783499133 -0.16317171969689961
Ni 3.0960947189370795 8.28217054582458 8.152662011701741 0.15730523361379362 0.51626208816724 0.13084061166436178
Ni 5.650648522614113 7.600546206722858 3.3939300309542544 -0.05964342269424566 0.6022593182646659 0.6397699136156143
Ni 3.219751392651886 8.431546507258643 3.8217994608531387 -0.26133618128447894 -0.9933246233168828 -0.9420979639314226
Ni 3.431971638930857 4.45420495798594 9.567676174829455 -0.7034828783935433 -0.09716250268562622 -0.6378845236674434
Ni 7.072786061497777 6.259395526078759 11.420274036746363 -0.7646306535474573 -1.016966173995223 -1.2872315394485316
Ni 0.5517166503029028 0.17173313861333253 0.24708667814528965 -0.7429500832502302 -0.11408318970036482 -0.37983472644372
Ni 4.518078736791521 -0.062390946276262 1.5036888126718457 -0.28528780700406997 1.3584865782397764 -0.8662560771004436
Ni 6.080254546272974 5.370969329964762 0.3577952076424456 -0.6193738664577656 0.7483257457398468 0.5866761191144283
Ni 7.800177728605536 8.915390607477141 11.167031165329227 0.5357844744708837 -0.42573328874804744 0.5214325766245859
Ni 0.10175373816906115 4.733008177703842 5.663599376026397 0.19717867276996365 0.09011356625864479 0.5008310983241503
Ni 7.840851770700876 -0.31577740500896484 2.5314109600540924 -0.031248416491320374 0.3640964897728568 0.2876984733280916
P 8.582114514331378 1.4273933764723612 3.794994689150788 -1.3890230562657369 0.20156368921153675 -1.5506292312477297
P 1.5879492810933753 3.1227080408853403 1.6351217780492404 0.9457620430465712 1.5344731903131574 -1.0816330180459888
P 4.846776291006925 1.1310616674766945 8.338245456345629 -1.4494555505201812 -1.6434378278400341 -1.4246711444866496
P 8.507647784509404 1.7861178378740452 12.276475265761556 0.19428592460320088 -1.241989122670964 1.1565930164926468
P 6.3919925420836154 7.5675301547911165 1.3006726036272374 -0.1155363772071236 0.3501199729881067 1.1761763379412131
P 2.007793173423403 3.456065409870104 5.8687179201064845 -0.4595967742647117 -1.6556577669449937 0.30231648035158254
P 6.758049890292897 3.718405756866024 5.917066207533223 -0.01354148612986055 0.808528640481988 0.38883435883916906
P 2.4307707008793376 8.34205277787036 10.30831851288892 -1.0362738731848993 1.5814575294824957 -0.6983427289535006
