# total energy = -381166.1959819603 ev
CRYSTAL
PRIMVEC
9.26867689701714 0.00000000000000 0.00000000000000
0.00000000000000 9.26867689701714 0.00000000000000
0.00000000000000 0.00000000000000 13.56564553101100
PRIMCOORD
 96 1
Ni 0.13856393934440078 3.810186245448067 0.20416392711030454 0.07667286737270668 0.7976204782099167 0.17928508031899446
Ni 5.29387897202414 2.4469029007340466 3.5519340273059568 0.49747529447804006 -1.2979283570407452 -0.1861095594399956
Ni 2.9104201648045054 7.774084228930178 3.748608863465254 0.004828017516262653 0.4570804356007612 -0.5338078103604871
Ni 7.562962306056357 4.249280545835475 12.25923313814702 0.22279585911743566 1.5134189407460192 0.3427491344453323
Ni 7.891583246239486 8.509034696590058 3.5226728142708943 1.3988377283633133 -0.5329009822755016 -0.582970388128067
Ni 4.1957632053019145 9.048796097000848 12.915064325886119 -0.8527919811757378 0.7590282197590154 0.6940831823461981
Ni 3.388433639577162 5.775859440518369 2.0551270497563943 -0.5124959362565883 0.03792531429086372 0.09967652735673156
Ni 6.438588377621009 6.157135734281539 6.6257322333039195 -1.77166285625842 -0.11615447040709674 1.1065403228106296
Ni 6.114286640882397 8.032494941447611 10.05066499572263 0.5120503640787375 -1.4680695660769427 -0.26152670002873024
Ni 7.721818159780758 9.175081820029902 9.295886047528727 1.8974147405459647 0.6640475552160564 -0.8067280969381396
Ni 6.865030934013214 4.265306088229401 10.029556510906016 0.7756159489143675 -0.2659531112312 -0.5745834496159524
Ni 7.321717183193954 2.1781761508051374 11.241402650902055 0.8302269513910281 0.07108380332070338 -1.0908082567873536
Ni 6.359841698512397 2.6408314279220773 -0.31130427109430864 -1.202781599233567 1.0658567290483385 2.3149750065649166
Ni 5.356563034031148 6.167785444062118 10.868049222169725 -0.17454756563400908 -1.8285207457877282 -0.15847457133154644
Ni 1.989855173153443 2.7387457309003476 11.936655375315443 1.3756967714704758 -0.7296189133589628 2.236131613903452
Ni 8.58949608092879 2.5214972125826947 6.135484104997438 1.0563477611166388 0.7116551297916904 -1.0441591894702469
Ni 3.8845210343429675 0.9606983627127731 7.071947658168629 0.8766340779006581 -2.525495390749109 0.2568460067236093
Ni 2.6658475869279794 4.421937459493107 13.725584170206586 -0.213187132383078 -0.3230506275751404 -0.7784253933387045
Ni 2.2084754556551913 2.3231753325347912 9.645879629820678 -0.4274957799651089 -0.4307374268308582 -1.4718997384563102
Ni 5.29768839823808 8.732660064628371 3.4795206351364816 0.4236746064468059 -0.7905954530423351 -0.2800887793016338
Ni 2.855836926425195 2.693088228394577 1.8204283934022794 -0.011218751533954872 0.4188594444463496 -1.3593011037212719
Ni 4.760142211611066 3.8814160275749137 1.2843614876116278 0.6050232541630483 -0.6727170579655962 0.2716625029111515
Ni 7.144509349168817 3.804856756219318 1.8272112111720158 -0.7471584649046229 -1.01499722319431 -1.1461633365188906
Ni 7.868402285263658 2.1698992223159674 8.530417534243492 -0.6011054071658808 0.74173806522 1.8875031378592075
P 4.44440473234613 3.699981676874455 7.241734989451963 2.337829542565587 0.6858852199164381 0.5641121177709832
Ni 9.235532130899296 6.769869428080054 10.107518133079543 0.7595861491450144 0.0038823657735417008 -0.8186261339273062
P 7.733923051837708 5.439285975538254 0.6565217041696088 0.2693045442019362 1.0714175109655677 -1.697579346879444
Ni 2.6536963514864316 8.370041617504281 1.385255670219538 -0.4225777738382013 0.1501349411175995 -0.15224787369554424
P 7.9287877153946145 7.546890420277833 6.390504335497697 0.8977060680796088 0.8724663196762136 -0.23136817416747893
P 4.356945496933127 0.541195264730246 4.998492726671488 0.7551250280498673 1.9687962776127446 -0.5330215670137659
P 3.506108761747942 1.9113309422909 -0.38018815109281384 0.7705390486120924 -0.3719054442943143 0.9593978886624511
Ni 0.6845168159374588 1.7247339385462443 1.0609771051732242 -0.2242387622115493 -1.1173973201297918 0.07217652216424988
Ni 5.922063550247565 7.6916115416999 12.564406179459036 -0.883170593467595 0.35219228213610315 0.5380982102057249
Ni 6.429328969378365 6.770731415033573 4.497051744116943 -0.057095459461411355 0.08129828195985998 -0.1814887728385326
Ni 7.444601301793529 4.262312305584382 7.505994237105643 -1.2392537260176721 -1.4632698306954541 0.3225325502881413
Ni 5.982458249055443 1.929423399637888 6.176547124354181 -1.2002410921999005 0.6608645295023845 1.2608299095265512
Ni 2.2569228299137505 6.707231709457642 9.131239124464983 0.0060413210980734666 0.054134834171190645 -0.2720962480144604
Ni 1.2751289585320504 4.570495813159874 6.143066809585333 0.6026275002373622 -0.2850468946378575 -0.977557333180297
Ni 2.2432144567497154 0.5436004863908728 5.2926091632861585 -0.08480578089248621 -0.5094646056294323 -0.28059400107282645
Ni 5.44297490895224 4.828424554477491 3.377791344738119 0.8088973366753165 1.0837356662112885 -2.6609297924317397
Ni 7.816145484791157 0.5771846103412197 7.024454030765093 -0.5158486547789052 -2.641459342411954 -0.3704373443892201
Ni 1.2853893838820074 0.797433399377735 7.576386130838961 0.32202989962010986 0.41744996569333265 0.35486314410004693
Ni 7.095079495156783 6.824118994090259 2.2723403471017525 0.5790684819704994 -1.6264592910041666 -1.1426018444198773
Ni 4.42421755401532 7.981999189589829 5.974825493612181 -0.009483514010403022 -1.5218063934787662 -1.5060355037977546
Ni 5.222241368112831 5.286065477380947 8.669735943889146 0.03165850744554547 -0.6859803507334057 0.051657576275291675
Ni 0.46458594251928453 7.231495882058922 2.443240846483127 1.3454174037606441 -0.8080126200775181 1.1064076538875074
Ni 8.823057470624875 5.053468030084497 2.9537567906096176 0.1613827461172769 0.019783096164198186 -1.076468957346546
Ni 5.011314087454322 3.1611193381248635 11.469251755012612 -1.097429104537981 0.4398702423700617 -0.33055182104819203
Ni 5.551455503618813 5.334605538408701 13.16170103811263 0.8149931651604093 -0.321888231835923 0.1871212885339616
Ni 3.9805537959065664 8.149178315188 10.567013718234604 -0.022374253930142113 -2.2621712325003234 0.47824087172846025
Ni 0.38072388061876455 8.01557033739249 7.8244604148556975 -0.5440320591916566 -0.3628088813096848 0.5889443463233147
Ni 5.018691954282294 1.077548572637712 1.3230461644708107 -0.7488425374752651 1.1405984408366034 -0.7838532492224952
Ni 0.9180096174243387 5.559065087369775 11.884739662153585 0.7341851925734065 -2.2080477111830423 -2.025184940815119
Ni 7.32328358959336 6.443852986111321 8.833500488910147 -0.4807428122147075 0.19113015258303856 0.5812752598138312
Ni 2.065886129924624 7.1127733993962305 5.804576582218253 -0.32100402945875683 0.0049095214864754155 0.9982660264825581
Ni 7.955592729045993 4.641021175840834 4.985916985827025 -0.7550358107701706 -0.016568445881642434 2.1890827400447654
P 3.7854018033651538 5.130323899101518 11.917066953513636 -0.5772049463991995 -1.3796166753501724 -1.3278107464224744
Ni 2.6896124745497407 2.7378559379160694 7.200698849258287 -1.9210591194377817 1.2139756681771736 -0.37995582540261663
P 1.195631516592953 5.361392014706241 1.4734323012261148 0.846600250542729 0.046139474670539894 0.5777911579199727
Ni 0.6368721091001339 3.1878780083916434 8.115660925711472 -0.37284132584502244 -0.06983887517000875 -0.42434952102664336
P 5.7824031264235805 0.4481711156947374 8.125373572255484 0.2997746877663353 0.13526008088829605 0.7536152762735601
P 6.340989209658004 8.71527202672727 1.5587736439629973 1.6645887508860364 0.37844118853030306 -1.434485302363594
P 0.7332088832666945 9.483710224097534 2.8099467801287434 0.3993807668964477 -0.16376950118189862 0.1713750814432984
Ni 3.5155257374982187 5.642390492876652 7.1766605356673985 -1.0372601483575685 0.12160006690270025 -1.1815206329722618
Ni 5.828079166283191 0.8059420447898945 10.705858498489667 -2.0014127780961855 -0.03348656179321975 -0.7617936983192944
Ni 3.3572445417428303 0.9381384030905551 3.0015618455576507 -0.8947482710028655 -1.314407328532375 1.5033620707306494
Ni 0.9091941788061417 3.004061607722857 3.0318129532877225 -0.3539781703919323 -0.21456910033226914 1.3252733247126016
Ni 5.4894387863500125 4.234172602456587 5.43902367198143 0.3873310348207652 -0.593675433250397 1.8777100630281853
Ni 0.5754031706372796 0.8221974503714252 10.226407451926786 0.08489319839996992 -0.375445853347405 -0.35486545809289205
Ni 4.521686960501452 7.5676059131930575 8.125672023652294 0.4762228128571669 0.7306175298268062 1.7542760282405399
Ni -0.23668400695028557 5.783079739838708 7.390278513235658 1.6579139099690223 0.5291695402575274 -0.3060849462550793
Ni 8.877909500634853 8.719331707218037 1.029521069443609 -1.4964139215475907 1.3970289572893488 -0.9860946812273469
Ni 1.3614944900685446 0.2680974067660707 12.804070066038959 0.36596285355763425 0.8919195433048188 0.7944760190436639
Ni 0.09396770034592027 8.938081751196659 5.42075047543451 0.04240006223276569 0.09417770902568941 -0.24568741900362848
Ni 5.00048827281227 7.110002064997281 1.1921733732342639 -0.07746862380112464 0.8236253869141106 0.2129341358320075
Ni 9.355524422299968 3.1610081140018287 11.051592196869386 -0.28627742461084893 1.6682062930339656 -1.7755629626437743
Ni 6.8441578735903565 0.5315660362785114 12.919798766056632 0.6034605376616187 -1.414200841082945 1.2988768369969437
Ni 7.2973220255416615 0.9636458019731943 4.669471379645435 0.07713335194889297 1.2554218511371025 0.5468265912176582
Ni 8.534681125626491 8.677706079172278 11.488351717540757 0.04812539475231712 0.7528154060800842 0.9804020017179438
Ni 7.245992092761119 1.351271139426266 2.371315913587313 0.7045378020206189 -0.06541117841595831 -1.2889631774276575
Ni 0.4261830334384565 6.752323822671319 13.49038315156343 -0.8286205261358569 1.6234341310245974 2.2641298988885907
Ni 1.9175594931808464 5.10968255560165 3.7123609217682243 -2.9192783518428045 1.2484919567864887 -0.17437890126662872
Ni 4.381192355754705 2.2485995580399822 8.985571671129428 2.0626387147862024 0.4196153487757676 0.1897417568759442
Ni 3.418093405719766 3.5750862553833347 4.13179728527693 -0.8054224907528387 -1.6598615206136964 0.5566044965400285
Ni 2.4092628037636987 4.427025963121948 10.392844156503697 0.4337453604192466 1.361970937243951 -0.5918013561561356
Ni 3.7814348096435806 5.762456933692679 4.651375214827678 1.2726559556272017 1.7781605481676217 1.175368497327937
Ni 3.4782563876046533 0.9348572914610295 10.992513650184087 -1.1289279464772104 2.132979212182978 0.6673401099243991
Ni 7.663536719310542 6.682326774574775 11.847298841737006 0.5865118256224222 -2.31330584639261 0.0724788838960171
P 7.372583682128519 3.0978606181488413 3.7806367765608058 0.19414477103964628 -1.1353022254346705 0.8759025990512721
Ni 3.3705172870916456 6.740598946368071 13.113760660481573 -1.0180372955722146 1.1565783612046276 0.09796854352668934
P 2.385108631711316 8.895260463828276 9.392703866027414 -1.1820258547434546 0.33590177250619574 -0.62016653756239
Ni 1.7913849942748266 7.88088719307431 11.49912284698898 -0.053981082202145744 -1.0897775015299942 -1.3669280241389101
P 1.4932209264493832 2.5169370235382695 5.281255034059693 -0.6146381515449931 1.0633470752526073 -0.1994129614171211
P 9.099746014027689 4.575296987804208 9.381661164345447 -1.233906602773146 2.047771824976699 0.5403702940693532
P 8.960966114511063 1.6217311319391334 12.522650789936401 0.06167048042660346 -0.8010228190232463 1.058941489985744
Ni 0.01976267292789363 6.475913339576092 4.896235121688711 -0.09525371569868757 1.179203297692995 -0.20267286311531546
