# total energy = -381170.5101872774 ev
CRYSTAL
PRIMVEC
9.21039759404984 0.00000000000000 0.00000000000000

0.00000000000000 9.21039759404984 0.00000000000000

0.00000000000000 0.00000000000000 13.48034788014554

PRIMCOORD
 96 1
Ni 1.0754981248623237 8.577247214737628 2.869157658820112 0.5964794783580952 -0.6607997377027202 -0.3016209969464548
Ni 4.750216497448995 6.808224573253885 6.071076850596793 -0.7578095168605659 1.614285117535478 -0.6913169324549707
Ni 6.3496112467893 1.4553717624560691 7.123487271857229 -1.170219606137146 1.4878598613299925 2.0000431514421684
Ni 7.720523663480296 8.23601119497207 0.776918219387036 0.005863657869628611 1.2627741777371155 0.5336643428040874
Ni 1.846233404357092 1.3446904147942507 3.8764629210750186 0.6683163577947393 0.9067265264106642 -0.10694606443495129
Ni 8.541262191411114 0.8693832427245185 6.86470549430461 1.4119578106850392 -0.7590832413666668 -0.1768831557457212
Ni 3.0498389490936133 6.008034442313456 10.266606364473736 -1.8512372135486377 -0.3117074346481793 1.4436597697740103
Ni 6.835091302980899 6.446062530197352 2.3802246245775502 1.194085614121466 0.5197844994982016 -1.7836315985845217
Ni 2.6345973848108954 5.077075086599582 1.0501326899400762 0.5523701467437069 -1.0206179118151972 -0.857345147764059
Ni 2.4220398295692003 7.589763649104425 6.469258916490627 0.9202086200574991 1.1318433203517926 0.25973232713246885
Ni 8.314004841639315 2.1029363951769757 8.817091493835768 -0.5315465251301362 -1.8779977694719336 -0.08727763947174647
Ni 2.607942494228112 4.00997684432589 7.420027995309356 -0.5088423986644011 -0.09128084709386859 -1.0893884936216915
Ni 2.348301386581723 7.25537095473728 1.422351566109029 0.5588637248878504 1.1046526188696135 -0.007775787290676931
Ni 3.861017084341319 3.9558197065834007 2.909180520443618 -0.17519625496160152 -0.06850472973961749 0.0742172067433625
Ni 5.242604351822034 4.944325626347457 0.9155365449741126 -1.000258888542871 0.42548620573424784 -1.3802671644499778
Ni 8.130275830808163 4.264929859606475 9.523960034464215 -0.21770121820334762 1.1848304140717854 3.5949483217891385
Ni 1.7998866837584178 3.115435400624567 1.8812365993020845 -0.4302293768461881 -1.4294202291358609 -0.6631219580779935
Ni 3.4214877016526577 2.7863663160559184 -0.023213886048668326 0.06493758121364944 0.35576225887554863 -0.1473589210343591
Ni 1.517551156486604 7.994440887368328 10.465077537663838 1.3583220276374544 1.4496139304749165 0.7429742516199461
Ni 3.769493363636027 3.696869378755155 9.762319597473226 -0.2790071162016808 -0.7155423806612387 -0.410838373914086
Ni 7.233643626857258 8.328308589073684 7.820596475214938 -1.4095612854284045 0.07436067429976224 0.7455065311234967
Ni 1.0873150649513736 0.6733261147388899 8.699407480897486 0.38178619374313605 -0.023716369780333348 -0.5349560650323174
Ni 3.1587058484331068 8.454951555733416 12.971693685047315 0.1620121521711597 -1.6430022829645121 0.02358138686436584
Ni 6.536508634386339 0.8759014410885252 5.032766626984312 1.5087572736042918 -0.8042816922801762 -1.2615996978130402
P 8.773787888595958 3.8612933962685765 0.8436125503089598 0.43646584467420313 1.200077312928527 -3.941292629784896
Ni 0.10964241481532991 3.960655165310409 7.620966634009869 2.5057164083499686 -1.2374889208077655 -1.7727486331234306
P 3.3711620893014738 8.842810608024907 2.8898764481656447 0.185204531127223 0.5147528506115651 0.012777868490958638
Ni 2.268815655507287 4.08070348730626 11.813718291978114 -1.191453832925574 -0.7882380085537521 -0.5181608478518496
P 5.191855061182388 9.042492027456397 7.910294695120815 -0.22712456839977657 -0.2951382174355885 0.010298296602214523
P 3.899323127856797 6.444487552211983 13.25985018358669 -1.0963867793163955 -0.6218022733936001 0.12586989792264774
P 0.23494803174713552 7.933679894564382 7.148709024577302 -0.45128105531016477 0.1897281300291894 0.7140580828062283
Ni 3.4393742937438 4.973246274733753 5.36400568122169 0.2944028819314607 0.043148510363016014 -0.8187744865797125
Ni 6.820658609980477 5.351526513546979 11.473987251176352 0.13696935026991897 -0.7963431541593898 -0.5101469764084376
Ni 0.08123478557397627 6.424298360727028 1.344070555037436 1.3796552418975918 -0.24880899535174572 1.8151780059322353
Ni 9.209577849869067 0.4171186433085548 11.663978411318919 -0.7244579379833136 -1.5901373166446806 -0.7359780228077712
Ni 1.0378183883819625 3.369670004894283 5.2153176279655895 0.05484600130560232 0.7408361222310209 -0.8889077530616886
Ni -0.04403859496631596 1.4196077886713607 1.6048491467843695 0.5203234027208071 -1.523679956352395 -0.3173144964223116
Ni 2.3548131376674264 0.762140136477542 1.2347569514155428 1.9179334293246064 1.630709067419456 0.7171698889623326
Ni 3.991684994741437 0.13944541928933443 6.099857500939945 0.3396782088294924 0.004508686503630945 -0.3887248298444983
Ni 4.608173746043438 1.2855136103732485 3.968438872301255 -1.539605112223084 -0.8957908533347669 -1.1671952174885252
Ni 2.4681102382406173 1.0987635891374135 12.081262841783829 -0.5320106092507482 1.1452649930743373 -0.5925616313609279
Ni 4.405084479509104 4.764980764762126 11.996309818708724 1.0447307457030008 -0.1859429519551443 0.7158354864216253
Ni 3.299431512985402 8.643258134159469 8.719520226082565 -0.664932786034487 0.07797847355800763 0.1986693983828772
Ni 1.6410349567780245 6.664827893404767 8.302060798063728 0.27691886621408435 -0.5158026320323181 1.423723950082032
Ni 5.199122064869264 0.25553971760612926 13.161834053630603 0.9249898434962264 1.3188355395070577 -1.4291890869616612
Ni 6.238119384140858 3.50940094650845 2.1650384218678784 0.6477058806332393 -0.14044188219955167 0.542769133318833
Ni 0.7181577249364351 8.88570342953286 5.3039778360647345 -0.2753031849875323 -0.13523077031225744 -1.2223302107894563
Ni 7.458128646958905 7.635705112209789 5.7213700281812745 0.3765632547812998 -0.7189154108985297 -1.3989251458707972
Ni 4.085410000467214 0.1701676214413492 10.901571173311694 0.704732177419612 0.6075992424203407 -0.9629213284346771
Ni 2.8121922708569285 7.328575194665393 4.259129151213581 -0.44136328197582053 -0.6565291353518242 -0.10102635651640667
Ni 0.7827870847219872 8.748744817588845 0.4086948136862282 -1.1875732669242451 -1.2893390727098377 -2.078404976481524
Ni 6.271368919387522 5.830236927520767 7.291560448889966 0.9407087968933799 -0.44924885537148435 0.7374826323777556
Ni 0.6613802290837864 2.646184064960564 10.538005465664693 0.6863904416876307 0.2878697087986333 -1.1220636152572097
Ni 4.713420959135858 1.9303335446167296 1.664890807537688 -1.0626809024235182 -0.05255926215395465 -0.5620791465013546
Ni 5.203672001271438 3.243257298173932 4.882244783570978 3.2741656643125676 1.1835281503205939 -0.4519001769514024
Ni 0.714915664989946 2.1506830962070884 12.773303563355874 -0.6418882455101977 2.2820294048768313 3.521269504047748
P 5.312677056574561 5.250617397712505 10.071950137959302 -0.6662188518357623 -0.30525627970619684 -1.5830153608879187
Ni 7.691289861576442 5.912494988265355 13.402687792302991 -0.9459332785171128 -0.7549705047498739 0.9572340482419127
P -0.16608649427575448 7.2044466665437055 12.289332170287103 0.3175775202757111 0.9945710941294743 0.028374180267318878
Ni 6.14926667873239 2.8164566849342707 9.554385661814308 -0.17633268255888987 1.1949986128540389 -1.678742673788915
P 1.675122638204037 4.555186328793007 9.145647559259476 -0.8484948964622807 0.11987408535052903 1.9198458158559712
P 7.064522306580458 4.240264414899947 3.9074135410868993 0.8089744697701552 -0.09606207053259586 1.5342538752134998
P 3.3315758005230354 2.7334617923836637 5.391047408502633 -2.053858397490411 -0.6327955391803103 0.334574826164656
Ni 6.679435583959119 0.7114626869389835 10.4779242002018 0.29530893868549785 -0.7818434178813181 0.22903386960734748
Ni 8.612615141426602 3.293665804103293 2.6818614610080647 0.21872143193774587 0.7104174007298475 4.247372176723337
Ni 1.8295994263361846 1.6129340337759268 6.427834232356168 0.09031051276079931 -1.0692053338055973 1.0073214518166071
Ni 6.899361457261016 1.3315011254664881 2.2722474496438263 0.704181961343097 -1.139765917632979 0.5667986634642109
Ni 8.096602617273037 5.022411376990454 5.77173248212276 -0.22745135561157603 1.2456460026972611 -0.7252554941839445
Ni 4.819791840732457 3.760034285326242 7.169778730070452 2.0569565767997604 0.32559447704291666 0.27075001839921115
Ni 7.932031233398412 2.710122644927972 5.582912884551765 -0.537306567542365 0.8842586843254514 -0.1843838349981405
Ni 8.526461082507682 6.068933591081032 8.128447566889475 0.3093456192842221 1.7010770756200575 -1.6124946012939585
Ni 1.3238380746838774 5.6256924181695425 6.0312556966801845 -1.428422898219598 0.37360700036645333 -0.6460809434353066
Ni 7.016969023899425 7.957930871380024 11.90477872968537 0.2581441567097425 0.4508023159015333 0.2577860020393754
Ni 5.82994219479836 5.874271838328053 4.161666566151766 -1.4021693638397077 -0.7569487115221674 2.9429019047990157
Ni 5.638043561317958 8.246207105087876 4.005200332143363 -0.654797240262382 -0.9423059661771707 0.6067173540360196
Ni 1.8098707547299921 6.276821474752073 12.507753985664962 -0.4150979205213884 0.48425493913302403 0.09825702130138562
Ni 4.174060077129027 6.354299339155103 2.5813649709849615 0.7272588977672184 0.30345187950760644 -0.2852196727702959
Ni 5.059777959953257 2.30237834427151 11.393441403341004 -0.9094588377401627 -0.10502365060125783 2.0638126804896455
Ni 6.798931282100454 3.3767804318223784 13.136626116506891 -0.6318653140565569 1.8970429590288427 0.23222795106461297
Ni 7.119222857779886 6.882349852939524 9.76389641753811 -0.7108686293346531 -0.6293124657277162 -0.40076350617658724
Ni 5.2660908656389305 8.88003903502408 1.8203319242959648 -0.023365414198817824 -0.014337499668594662 1.3148241043548194
Ni 4.990377614223723 7.3551840332603 10.630359964231273 0.2126780539571434 0.30997785355158225 1.136734072785191
Ni 7.524369826320127 1.3116250874990916 13.165622290153303 0.13160371508263144 -1.9179228878016454 0.28442288790061343
Ni 8.137377047338683 8.423249367279395 3.2849988199849793 -1.7182692711286276 0.023398838539914542 0.5467954808694067
Ni 1.4543954603130924 4.950137387217442 3.1957721724349564 0.43112797740105746 0.8868123039852406 0.8583553341961282
Ni 9.03937891307596 4.386645263563447 12.021747094732056 -0.4760523487175737 -0.6520672429257286 1.0109701043127877
Ni 4.275134980119856 6.487748789622947 8.526724499878336 1.140547790104326 -0.2958100466916325 -2.293226302033915
Ni 0.45517692712925883 6.005520003775413 10.390651999017246 -0.6815346562572262 -0.29097071632146015 -0.0412086130278258
P 9.451802095700653 6.560483299274723 3.9010371828455517 -0.14312637101025028 1.224858890748581 0.17675871435271495
Ni 3.7602553348680483 1.8225258409983902 7.966076546995579 0.24122346969500394 -0.670619037785987 0.6982308859659847
P 7.74611014794435 2.5048965661561784 11.303204375176975 -0.19864034491715468 0.08601214249576154 -0.810157948555295
Ni 8.615691414216736 8.603450795839224 9.619643170714491 0.28701584543877023 -0.06907731441363588 0.1165380789987606
P 7.223631924692957 3.8537316598592932 7.697453459633802 -2.19075138599644 -0.6825183603267342 -1.5328402826954244
P 2.597461061787474 1.6675424809996033 9.89001899673484 0.9436848488025683 -0.5874662191158915 0.11357693948790762
P 8.747796146638594 1.4398154009514665 4.015445057366318 0.19798317094913 -1.5654076751084847 -0.2735093263119031
Ni 5.690063886822988 7.213795220082587 0.43194369924568243 0.002981194115510995 -0.454424743145469 -0.9600260091647531
