# total energy = -340893.684413361 ev
CRYSTAL
PRIMVEC
9.08237027772681 0.00000000000000 0.00000000000000

0.00000000000000 9.08237027772681 0.00000000000000

0.00000000000000 0.00000000000000 13.29296696151659

PRIMCOORD
 96 1
Ni 6.6419553669447104 1.9191411166069352 11.597076661410135 0.28349112011496336 0.410618544593796 -0.800964454981485
Ni 4.632190362188455 0.38262026810753064 5.95120752147047 0.015006500711161252 -1.0910728233026499 0.5790959927743253
Ni 2.482384293955112 1.3695578237823687 4.873507117384868 0.28981089168540414 0.31057357815405223 -0.4636637452452337
Ni 3.5530776495633436 4.639701482202434 5.308745188018383 0.026419370533793205 -0.7240154511292562 -0.9187461765793596
Ni 5.220301068676021 4.759688672655498 2.6604141865524795 -1.4412439612436663 -0.07628797322946217 0.38297815716870814
Ni 7.171993399466878 6.199444134391975 2.540100030778372 0.8391671913034515 -0.605040737664545 0.03867504797269468
Ni 5.1152907064007715 4.528478778827351 11.392976733881538 0.45999760924755617 0.5167868503224583 0.40348244776964703
Ni 5.31067065046453 8.025109498660486 12.343889068836365 1.720783295799733 0.22912437243862474 1.5743553712200757
Ni 1.815038991334585 6.574255380748576 0.31556694665746016 0.17580020709418756 -0.19130241649484472 -0.18357625149518061
Ni 2.962096914146614 1.579732948623361 0.640346141235331 -0.28749047108234355 -0.21523990114704866 -0.3747938215857029
Ni 0.3249272372093433 8.876218394077686 4.783447244414348 0.8825255036844284 1.2016148326189757 -0.03730362154646479
Ni 8.725323898415947 2.201848048499489 1.3740272580736375 0.3176240572429304 0.8850570118570307 -0.03760006974096105
Ni 6.87459119286741 0.7783409467448849 4.832484776674902 -0.8181810759700876 -0.12293189834024633 -0.3753944312841793
Ni 0.6097648931106989 7.366492353637824 2.4448559409953012 -0.036737978850981894 0.8999511553600436 0.20753353364172647
Ni 7.487342369243642 3.9142290113963343 3.7124459964621335 0.9916019841988212 -0.49482551556001875 0.4315457816647665
Ni 7.55176361985931 4.046804366709586 12.68368323754617 0.686536737457508 -0.5471932305284576 0.15460223286033373
Ni 7.925984512164025 8.866645576067123 6.7580244229672655 -0.9954717515668726 1.0053671563037139 1.0959021263704931
Ni 6.925761265610771 0.7406491111245521 0.37770125649982644 0.03887096603358467 -0.7889046956034736 -0.44320470605993345
Ni 1.946497215134271 6.29599881017023 9.281149504161444 0.46558744463050783 0.5212963081570378 -0.30805646815915333
Ni 0.1625281034318775 4.877677741702183 1.2987589329323403 -0.8450149083334803 -1.1574700197809615 0.90976916989173
Ni 6.342872921889877 2.0349685815867193 6.924851212133866 0.8874921036610843 0.3373282205400771 0.7718649665123675
Ni 3.488338515996661 4.570439328361312 0.36298600057884745 0.30417898748161804 -0.7771791796364292 0.14830920076277035
Ni 5.80369802511854 5.5540600025015605 4.872430856536432 0.7397158925836487 0.498379037239232 0.7044125892966643
Ni 5.499093499086078 2.7323946937432804 9.557297148419055 -0.7749055531109041 1.1672978045046607 -0.26073017226936385
P 0.24513316708259753 5.46389023285369 12.4836640188716 0.7642509016105353 -0.5173828320352445 -0.694726729467468
P 4.077003247055997 6.311802134020683 12.464163262182344 -0.8164810625598455 -1.1143706174883259 -0.05921147736314964
P 2.45788914198691 8.480753838275149 1.389234778450188 0.42435851988770784 0.1758287463392778 -0.14801326678890636
P 6.230823722842156 7.684111915921837 5.864205682488713 -0.3426480900910937 0.39314841283349067 -0.09735970629809684
P 4.765555883694229 1.0768602848579198 12.685491537418944 -0.25630967460416504 -0.11743205156793969 -0.014228227784240011
P 4.218061535976331 6.158337327640741 8.206439924526391 -1.639471129882802 -0.05741196226056564 -0.45726041282205127
P 4.69355085410435 1.0533369464828206 3.905380966514086 0.2574108780881438 -0.38273878746439244 -1.3377292910877672
P 0.027686696796390898 5.537130464767512 3.4836347565586445 0.5677576849433705 -0.04335805527066081 0.8287843054072307
Ni 1.2966445571895902 0.8019759982713407 2.618249283692866 0.0383909410733726 1.1192063483140724 0.16482056815423227
Ni 1.5909315108691129 6.559551023671631 4.8883022981621025 0.3237193715073909 -0.1782941771606349 -0.6538963257146674
Ni 6.045270903149771 5.6112607689441765 9.26053161595862 0.5949221611733044 0.5095818479335869 0.7567047138321613
Ni 8.796693162103798 2.433820861410071 10.225122908414116 -0.6666461691811679 0.2809516415225613 0.27113336988055886
Ni 2.226688330528792 5.383356857806583 7.088128611093136 0.31056175107951034 -0.0730326995169581 0.04408413480340795
Ni 0.29240508660951503 0.1222632323823303 9.274250535887418 0.5952566616945878 -0.28573260785097243 -0.33939538748175097
Ni 1.5199982009426556 1.1276398156900356 11.31482657273004 -0.3421791208744752 0.17625734923626418 1.008383317422218
Ni 3.957842552275572 6.714577997696561 1.495365905187016 0.5296770760215651 1.3110888056821033 0.5509663244176447
Ni 5.756714924958545 7.87030958388628 8.162851814283233 -0.545410684706738 0.6233624187918684 -0.2791169023066677
Ni 5.247021401301327 2.9521426365948344 4.937287152676488 0.42267804686149135 0.015199333448257692 -0.34947976830094646
Ni 0.6658966646009019 7.6435137218922256 7.10079670080958 0.7595622378856145 -0.5972189276272811 0.3070018016423939
Ni 5.136579781748738 4.33593253421264 7.446002145582662 0.44049167800414457 -0.3197035654797784 -1.0823282443408004
Ni 8.156413322169678 7.112122416235738 9.227697940066797 0.09820405657626312 0.7284482900896293 0.525101797946057
Ni 4.7544027332986225 0.45507124206583327 10.521994704603893 -0.2319019351837619 0.09417333815031524 -0.15109884769276558
Ni 8.014855502897749 7.1136482544006086 4.640774110102858 -0.3961090381237114 -0.3857976288953743 0.4348553056539736
Ni 7.438097758946427 6.249451663771626 7.0616625848286425 -0.9916570058064728 -0.5469291782337936 -0.6935167683197669
Ni 2.124030302091052 5.553051859428342 2.5393816153090785 0.7835112925020441 -0.791350843151121 0.5825482129889838
Ni 2.3535145456136903 5.128006024441365 11.370604131789111 -0.18936123360807386 0.35060514015464134 1.249194639280468
Ni 1.4335794501167602 3.517029722918259 3.805576618739457 -1.1261704383367315 -0.2565960954963323 -0.1561333247928795
Ni 3.8760648925344934 2.7605954526833125 2.818228539939308 -0.3093602745722414 -0.3419886021302239 -0.06486456188386894
Ni 1.0956971202980572 3.4295937466491164 8.128901915114847 0.5578604804343166 -0.47456316576655694 -0.468344952770987
Ni 3.6583968124195794 2.445746013258143 6.939858920369779 0.017849369476595066 0.7217048007182087 0.26258728008276067
Ni 3.8937028551308033 6.978711482879818 5.939550299538254 0.8587535980758113 0.4267676435498328 0.3881980108067508
Ni 0.8401283100521435 7.282462266129555 11.303953159331327 -1.3479993055552075 -1.3650125522837524 0.999733355056704
P 0.23650219084404278 5.723773168863376 7.947067417712334 0.43222892377472016 -0.9826290912762495 0.21368952594079324
P 8.57290356458934 1.7096653342581754 8.081551887205679 -0.3581526134845961 -0.306590168026272 -0.8478120114626431
P 1.6923180075027935 3.3174628062711333 10.324168878291326 1.088209899932558 -0.9227118460953271 0.35991124804691565
P 3.86461202392793 6.191042942115154 3.802851907730758 -0.05415977387185511 0.31645651929739044 -0.37807892009487787
P 7.163337900829244 4.113450797982358 10.40036360517558 -1.0119473806243928 -0.7160630290513991 0.6156084858780624
P 6.41385164366648 7.809021750930617 10.4396176084409 0.11006712656243624 0.686698716956669 -1.0115953966016127
P 2.249648561962094 8.43959253730374 5.807856842354817 0.24176340135887392 0.8937756226769511 0.2898237472012105
P 6.823620932264685 3.8960824360784003 1.638823756269011 1.019993647967637 -0.33689910342245855 -1.7907245008755612
Ni 5.399105687436863 2.976383482202224 0.1357732578004616 -0.37485449962030926 0.42778657173265033 1.1097513735487596
Ni 1.6407664752182132 1.0073074951758698 7.202049686603834 -1.4372006444122278 0.6560848487255541 -0.24467337591681734
Ni 6.868914711599287 0.8775803711037108 9.340861545917077 0.8369020494183587 -1.4322510137164364 -0.7370589145767757
Ni 2.8322099403619445 1.4766934606444035 9.382495130129994 0.3371544139663742 0.2438539653393155 -1.0914466617023009
Ni 6.513121948083405 1.8120327268549874 2.438581839779271 -1.118391822832577 1.3584485259129895 1.2065539217918058
Ni 4.184801896930148 7.109297799156719 10.261983707176796 -0.2937423655293264 -0.35134278965161425 0.049888143079694726
Ni 8.391083598978872 6.994187841409227 0.4016859792723987 -0.5549847015484183 0.9522458509987021 0.00645089783166631
Ni 7.825824135484259 3.914374329316798 8.191830932334751 -0.994804807406835 0.01700604763969329 -0.5693738803905549
Ni 2.8528904969179676 8.300259898688914 12.313753765080154 1.0265507323598644 0.6350899916414416 -0.0837220609100042
Ni 9.186363165827835 4.96154434654993 10.051636017305254 -0.2004663423822999 -0.28834073489778084 0.9097632563544589
Ni 8.666597293808461 2.3771196253190503 5.915755398299288 0.6452947000885855 -0.04432556139025269 -0.3065814262755236
Ni 3.532633234628074 2.721686579479094 11.589592788506241 0.04164235813113474 -0.3425179922711327 -0.01301826663653887
Ni 1.298842490736607 3.334328767414979 12.964284876066001 -0.5022745156388962 -0.4478640592088158 -0.8818703865989328
Ni 2.9845666975983494 8.305709320706312 8.024086823795221 1.2949913858996085 -0.5208054845635482 0.46183157713250145
Ni 5.703210683117731 7.798658766727532 3.6543161035655514 -0.6710455838004443 0.723840873224605 0.03533209964239076
Ni 2.998480888482771 8.363309711430203 3.542482156687517 0.9751770058735787 -0.7337959275547878 0.4058224087567333
Ni 3.475486962405632 4.197026766989177 9.414902842867457 0.5808361153938836 0.14681924648080522 -0.980320497747731
Ni 7.437507404894543 6.250341736034468 11.575063721170858 -0.7209206142540165 -0.40061463930354874 -0.6439183885663492
Ni 0.716455493841313 8.993453626411963 0.16714558035461902 -0.3377763638210893 0.2387811788020984 0.20540954532018818
Ni 4.814310046009878 0.1200625741243046 1.650428300455059 -0.6232953129993588 -0.13657211483150028 -0.12030551646099281
Ni 5.921605352834964 5.678733695889586 0.48412574378859097 0.27159076913295166 0.5577221550842394 -1.316660643342926
Ni 8.274929168678044 8.866245951785848 11.43067492716089 -1.4574385687256577 0.021261223371621448 -0.14823438166077696
Ni 9.052162066279392 4.884843731655061 5.764654732837892 0.6270825479559329 -0.4113757344747947 -0.29079870951997017
Ni 7.982395112414118 9.040309573391552 2.64470259463932 -0.06780281857658645 -1.9143176869488905 -0.7128512069823207
P 8.54478454697957 1.643382197786564 3.7302719641180437 0.6527298162103919 1.227328435334996 -0.017461390009557026
P 2.1274361908519257 3.4451155170286705 1.6999844360442689 -0.6125180198781968 -0.497896955396491 -0.2989938437362528
P 4.840994049155069 1.0234468667173953 8.15628526075227 -0.4963134129594549 -0.3886307274687952 1.1961553521663013
P 8.688367734767965 1.6016032956531832 12.497461955419652 0.0733772273405704 0.8871753437516141 0.33408503101243103
P 6.592928733528191 7.854914966687133 1.3051111425306199 -1.2682184886811383 -0.21440609239184366 -0.05598422867510358
P 1.9191683637170223 3.3527478138337825 5.922282897639127 -0.612292791241268 -0.5256044486140884 1.0194346901403735
P 7.047010905497867 4.029266310183595 5.9540257808904675 -1.4647857531193482 -0.20966497816243243 0.8012778724568459
P 2.1255379755158654 8.315082326576235 10.14820976606057 1.908718338484242 1.8655029794390323 -1.2051902086750599
