# total energy = -381168.8045846756 ev
CRYSTAL
PRIMVEC
9.29456177698738 0.00000000000000 0.00000000000000
0.00000000000000 9.29456177698738 0.00000000000000
0.00000000000000 0.00000000000000 13.60353066932142
PRIMCOORD
 96 1
Ni 7.595060324559318 0.01679620230839973 13.469154490356201 1.0076860342448775 1.8292324271427722 0.8785698614707902
Ni 8.942753170729063 4.895008762285232 9.726075587887026 1.0354606332549845 1.6171441842508278 -1.0045004374280442
Ni 3.4088362424987277 4.791690415287184 11.910081005938132 -1.6083978055167654 -1.8249381706427925 -2.390571867264625
Ni 2.833363459628621 2.2413742407549586 4.612916028667487 -0.49220144767361035 0.04239620557802375 1.7145835947469248
Ni 8.68530310834161 0.3014272807053054 4.08104589328184 2.260358347661301 2.374936988940845 -0.9907566054793906
Ni 5.18880056061748 1.3991010665049541 0.9343255831051648 0.2270911440586799 -0.02825333841873844 1.9963780438857552
Ni 5.518711025415581 -0.08135901570823206 3.50163035737138 -0.0012714105132558748 0.6451954555065598 0.3584040673737698
Ni 3.748673299109883 8.56280078615429 10.403545031092431 -1.0161544767272048 -1.1414677308154342 -0.055661812338678326
Ni 0.5969413613062424 4.763760257610939 11.866019207109511 0.8269390246683759 0.3073987799704964 0.5646494783316921
Ni 2.2913696877235172 6.1676573179132115 13.501027401072799 0.6592185092585291 0.5529370749907704 1.4619683382752113
Ni 7.241207069021116 3.5102120261176286 9.879318743185301 -0.988756030109594 -0.6339797892963984 -0.5017628661098004
Ni 4.977832600905203 5.623683804382471 3.2071684211461338 0.5384188267699372 -0.9574227672139511 0.6196741713070038
Ni 4.94167675619286 7.672130829534833 7.292485165493609 -1.0759457378532244 -0.04045193736745936 0.8438885080385208
Ni 3.594216274063684 3.943952038803026 1.564678105076564 0.5961028117449669 -0.06974374435304118 1.3396139097049895
Ni 1.4840626542981488 5.404109080607564 5.19969099847081 -0.08298286875113452 0.48031600908993416 -0.9579076772701698
Ni 2.0151724945430587 4.4605065955467715 9.3638544385199 0.3781527107556068 -1.515090157800855 1.5597823585019073
Ni 9.264614545161898 7.723641290047893 5.967651364178759 0.700221176923136 0.19442630683580708 0.8562642559950543
Ni 1.6052730324199134 3.81749023336443 0.5208821046352797 -1.0971786790900717 -0.6817529429156195 -1.5045357793237766
Ni 3.0807103335321866 2.1673616465533168 10.24397506769758 0.09634334921844052 0.31079237903307766 1.676517126892506
Ni 8.60374333010233 5.747013342554213 4.864227962559302 -1.1937482853867054 -1.263152901232773 0.7579560697407591
Ni 7.381564244085665 5.6424309351754784 11.286414062141947 -0.5970548912455911 -0.5283521865625546 0.17538008883763345
Ni 2.908984012990992 0.21296443154883585 3.794609811017804 0.5444552627720043 -1.7411040096349562 -0.9342432437736942
Ni 4.209637082788198 5.945164101788773 5.611116627612405 1.131455597995071 -0.9669358489107088 -0.7173496090733065
Ni 2.64731421962683 4.7540846189616985 6.948234121567829 1.743738876154642 0.03934019236051934 0.7926577348880025
P 1.5066205553564664 8.196771654890338 4.634368806348865 -0.3169226603005316 -0.3775916960458142 -0.07167207172400558
Ni 8.013231946526677 0.772994300282809 6.235695367903776 -0.5919643640965611 -0.0657222818984739 0.7455039600203354
P 5.274347705792906 2.1563382964687827 10.491900063334079 0.08482814948998939 0.48481878205629414 -2.0959458135787647
Ni 3.8435707732777544 3.108082817511068 8.206683375404793 0.06439302156408909 -0.4804149965616436 0.3295087244956583
P 8.108845101939497 8.702460869097134 10.969152566256193 0.8277553499220841 0.10855866033770982 1.0602216422497481
P 2.336531962648267 2.5493216564385954 6.783536348525726 0.09870979256808807 -0.03389948096092226 0.05577314110556201
P 4.039695318078564 6.2555652817408065 1.4688279383423644 -1.1358619545928825 0.6247747257583627 -0.722349119170427
Ni 0.5386904847043926 3.974809983390424 7.514345421971541 -0.017470388870621526 -0.06890145095740392 0.6225589490539666
Ni 5.968958179542912 3.9640375864697024 1.2692132856522271 1.9034087533458703 -1.1855662637965454 0.881846989560165
Ni 6.6413639455762645 9.182552860594987 8.230639178531169 0.46716353086837603 0.6295091551195546 -0.03140756777700398
Ni 7.702830766574644 3.5506340746147953 6.690365803907355 -1.1411738537240992 0.3864537744221344 -0.836456477240508
Ni 1.4461873156856044 8.406540616153285 0.9701003507909767 -0.8062393302271791 -0.11419888934262269 0.3599161331429221
Ni 7.31310050317278 1.7512905955126916 2.4612185068169246 -0.36669973172365883 -1.7913053130796954 -1.6420291204179658
Ni 7.484371390194463 2.888740457776729 4.334070814880719 0.04323181410544167 -0.14556146281430415 1.1869400042156204
Ni 3.327360115314049 6.295810733567142 9.028840329934766 2.2190008677604363 0.6757131644794426 -0.00024631168285118866
Ni 0.29138264795964236 2.790580592479286 10.305694674697026 0.6738933376618845 -0.6400409078888138 0.01831705314163297
Ni 5.383921292763037 5.014917901779817 7.615664508764543 0.47838973860149864 0.13097790857317443 -0.24285560598178824
Ni 3.8459315919299235 8.525659717909939 1.294295589647273 -1.0052789674652816 -0.21994913369725994 1.0517341736040275
Ni 2.6523332829030934 1.280149266857508 0.40072201197688145 -1.364583949386766 -1.1013374384534516 1.1006090449278594
Ni 2.3253970778242596 6.572509833075226 11.27417033611635 -0.6471631207558919 0.7878675125882109 -1.7960569688320682
Ni 0.40406526579257035 7.80792437484263 12.452209548986765 -0.43846821981621265 0.32541604248352346 1.811966440973473
Ni 8.670729235717202 3.5850332471804456 1.8364492280122875 0.7641994795473097 -1.032908556257092 -1.7460436130284187
Ni 2.6326659905094383 8.552920667149348 8.298344483215638 -1.545525848582893 -0.839904069469476 -0.24638701617381437
Ni 1.4049938185737523 4.8830652506000485 2.705429395628988 0.46404298296152335 0.22182809588752764 -0.6665230133397425
Ni -0.1126547341480598 8.68475472920587 8.205010354312707 0.6962225972867042 0.81436684443032 -0.267190840293043
Ni 0.2650214122853115 1.1783366388423397 12.015807573852623 0.9629503819003996 -1.737656417405988 1.2492339771588357
Ni 4.643841823554732 3.2173775676325187 5.893580214238893 -0.4669583568361055 0.8856730481744746 0.9791498744783974
Ni 6.189518126849826 3.1187715633771855 12.22156128449456 -0.9530225812637264 1.7394543898466752 0.7784899280280528
Ni 7.684594836670887 5.266596041399565 2.7518176232317724 -1.4521778345473506 1.932071925608518 0.42241476589777577
Ni 9.372264157876126 5.844476115729953 0.5502138822042288 -0.8881711320059802 0.34473402608584497 0.5024215827397218
Ni 4.660014360778248 7.142917079860955 12.085920169997376 0.24310320321622003 -0.5567510494202218 -0.2979798006494417
Ni 7.662566725625063 7.225945398836625 9.215466762213328 -2.0440483533785248 -0.042703709516113554 1.0168170500118683
P 8.059648987270492 8.313632178172673 2.1092408938141847 0.09610655061728608 0.2976604696368099 -0.8780548695075845
Ni 7.053577753543465 7.189269058673411 13.050995880775114 0.04112993727109045 -1.60811524127934 0.3127343332507969
P 6.054152131376674 1.6991202211244187 5.744784506677087 1.1529510488646852 -0.6024776049230592 -0.6507055866915117
Ni 8.390804923326037 2.9486903802432103 12.61251285329365 0.6568505232469849 1.160462269640066 1.2323518566915164
P 7.562101809045188 4.788251427486782 13.504497060926555 -0.5667223017003208 0.45665928890294255 -0.09492410027341072
P 2.1086850790291467 2.5641929550349314 12.26427630134405 -2.316657793583978 0.4428321532118632 -1.157981155089425
P 0.06672008115246339 3.7982133125589286 3.8979012037871454 0.4419811180654775 0.5078574090433124 0.7439121900531833
Ni 5.0523935742425845 0.9417156890513818 12.28133553974637 -0.44420923606504786 -0.8426579780655294 -1.0288264157679186
Ni 5.8943972062055305 7.384808046091989 2.164893010986325 1.4513339984898166 0.5657241994531095 -1.3835216668315335
Ni 7.951311576996181 5.601841584569102 7.725689811429538 0.7935740760546849 -2.108220002960427 -0.5983011049478663
Ni 0.4648424042434728 2.5285854894583286 5.672413332058016 -1.280366179787266 1.0679758322738704 -1.599087326749117
Ni 7.130815560628186 7.348475604708816 6.867034972319506 -0.11200676678731034 0.9048881876503447 -2.1826344133162605
Ni 2.8080822520148487 6.945128808529681 3.38948310628792 1.0582542341107322 -0.5018345998880002 -0.032673321863305016
Ni 3.9739920619676257 2.794623726785165 13.047091235437414 1.3059064901502153 1.9091019470759056 -0.05385972613293304
Ni 1.2126800440382544 6.192287906213394 8.197337693693159 -1.7634330121494597 1.8609757809926402 -0.7092874008904623
Ni 3.317916840705376 4.301718304784389 4.096961900604569 -0.8168029646756384 1.6872609956725715 -0.14748876174400405
Ni 0.4808885354289198 7.053958830569996 2.9376140511574262 -0.8851873667873077 0.7538775287960113 -0.2060824030174967
Ni 2.6558094489499866 7.241588146047647 6.3382794445336295 -1.8591914353987076 1.486203813783808 0.24778723895545066
Ni 5.951410047199235 8.724563336635939 10.604822480856871 1.2270731247910802 -0.7060601522024162 -0.49880275504021193
Ni 4.408615058007181 0.5305112704764077 8.715496491772985 1.2082125404411512 1.9006363328070555 -0.5554999506219401
Ni 1.5941567367191518 1.4317249778006673 8.604722976897362 -0.1826920491180144 0.4581615844800819 -1.271242363109127
Ni 1.339634461242854 0.5838880789633082 6.231368749468404 0.8433138664819734 -1.9349968125647965 0.17117196429355683
Ni 4.834008554355385 5.1264154630058485 13.400538318632705 1.6970198748315484 1.1665912653559394 0.6868928352453461
Ni 1.3446535245191173 2.0450452155984498 2.6291136090572382 -0.9088769970947639 0.38946170801052277 0.28509908803203154
Ni 6.068465756275648 2.246681435441526 7.879641212323462 -0.03308238437626561 0.2789178989219842 0.5392035274547617
Ni 0.308031066738241 7.309336205715583 10.344410241680263 0.6828538892892819 -1.128014690634322 -1.8080419091080862
Ni 4.949809497612732 4.447364085412259 9.9119947040261 -0.4214889116493967 -0.4827449302464009 0.8089063355363811
Ni 1.5750471180228593 0.03965152933864428 10.496973964523916 -0.2715470603792097 -0.017512812072782744 -0.6390191514925188
Ni 7.289417960158115 1.4241034372700447 11.050991181344155 0.9388971976059378 -0.8145146828620939 -0.5403854635780048
Ni 2.7170791991668928 8.54102362827228 12.420472338869857 -0.09886688697124263 0.8003689874893313 1.7646740836454125
Ni 6.264543828268343 4.8953991338733855 4.9635338473048245 0.7242890165056172 0.15895665317428753 0.8106107198219974
Ni 4.568128324576134 0.13364557211678868 5.6964379149403985 -0.6333362421751286 0.1078688333595368 0.6383385804857264
P 5.42326517211197 8.579122036363769 13.571262685430971 1.2469143278867234 -0.21388955776674132 -0.21922922481209986
Ni 7.674101276598847 7.77027210570903 4.12683462165996 -2.9515084155211038 -2.755323731233293 0.6347207812274811
P 3.466406757189795 1.875270752998024 2.520857061469045 1.761636325260353 0.15923793186013221 -1.2204011120875435
Ni 8.545782443823107 2.0737747055742473 8.228258841299592 0.1145084501632415 -1.002342510544777 0.9280003481877761
P -0.08029107057778266 1.6175604428851362 1.0638992077750442 -0.6784141083503735 -0.67733115969884 -1.380077931257307
P 5.617140433000083 6.513554428702374 9.939406225163797 -0.18239200137909234 0.4491346983911233 -0.06836126218321775
P 5.65900313854877 7.416818516320604 5.049004777074944 0.24278335798295606 0.6811646745123172 -0.09723140825034866
Ni 5.1966916434351615 3.012023523140358 3.5305513153166053 0.3196788828894301 -0.915219908593656 -0.8319614175836317
