# total energy = -340887.17153516645 ev
CRYSTAL
PRIMVEC
9.08605207266461 0.00000000000000 0.00000000000000
0.00000000000000 9.08605207266461 0.00000000000000
0.00000000000000 0.00000000000000 13.29835564056091
PRIMCOORD
 96 1
Ni 6.596919000502548 2.1661693236046196 11.700185539910853 -0.5099929673290765 -1.5971353452290689 -0.9695815140636722
Ni 4.633623046936617 0.34729162425223176 5.93695815331179 0.34005179011882725 -1.544896185418694 0.021947450805368654
Ni 2.9651513100947757 1.5742675492495304 4.650381361326593 -0.3497008831728171 0.6763991348028737 -0.12850810687644318
Ni 3.768894387855994 4.24573039912572 5.1274472497130335 -0.6920561246138404 0.679428665657817 -0.3180290059908329
Ni 4.583767879371127 4.681969929862803 2.4197419554436896 1.2810428941393164 -0.7828461481142195 -0.6082713287867009
Ni 7.334869975413078 6.098594476148734 2.603764493306669 -0.28531506069757956 -1.4573874037727481 -0.5393765626975162
Ni 5.316803300125847 4.677063461759037 11.51856989723433 -0.6774610004084849 -0.2134748388268259 -0.2789639216685712
Ni 5.781173247991189 8.281963696272665 12.302321843288315 -0.7414516443278327 -0.45142709396972575 0.6540264235346285
Ni 1.9121778247663204 6.716300638308815 0.5372600745728122 -1.0513803898090346 -1.289935568643256 -0.4828639723227684
Ni 2.7623869726806136 1.8110682376205598 0.3293003325998845 0.1671319898962283 -2.643789018986395 1.6633096270632968
Ni 0.6797947901976303 9.306116224517517 4.465215798116477 -0.7951162237308241 -0.5650505704248526 1.3642615330503407
Ni 8.640917268323387 2.157991876765009 1.335819559642922 -0.26562992356382636 1.8361224693943863 -0.06392353812683829
Ni 6.93148560886714 0.5316621579084967 4.8476095672303385 -1.1318934568634378 -0.27325555842988425 0.11607142377498719
Ni 0.8255068982222392 7.710532797172736 2.321813395118537 -0.3861516698006834 -1.606915307433968 0.716580849228082
Ni 7.667964643346542 3.8844417116996888 3.9378822354017475 -0.7077671075911939 -0.44988906005864454 -1.4264207801879047
Ni 7.665820335064154 3.978718587708353 12.643890163358023 1.4139409025533392 0.5412143872372035 0.6833603966120554
Ni 7.859680341475186 8.758499867824941 7.409391957067652 -0.517215967440077 -0.8776985146094304 -1.5171763509059226
Ni 7.175200782843663 0.43232616812172714 0.6200421861405971 -1.4478203289096034 0.8492001500594215 -1.7516020809528028
Ni 1.9120869642458802 6.4305170433685195 9.47957350106372 0.04959426598835975 0.08775612177006177 -0.6126841131424158
Ni 0.14308169595786763 4.633959230862247 1.7476966590343967 -0.8650029214196329 -0.42128168073459704 -1.7678092868402846
Ni 6.442283480765515 1.8782050761737612 6.990320521667729 -0.22937891165159205 0.5238985216665752 0.04637447349948143
Ni 3.2816366748917867 4.071805190899251 0.3162763855999983 -0.1501881629530381 2.2474208136640264 0.9657567410009431
Ni 5.946575739400376 5.489665440263167 4.665408782802184 -0.5527270158624932 1.0136062563840544 0.23880046207580807
Ni 5.149047521237262 2.7268332510323963 9.139401707193176 1.6231816486941595 1.070384698825679 1.9285546564838782
P 0.15217955986953635 5.714163614166604 12.760663195622456 0.178214472962635 -1.519052484882713 0.020964260956492925
P 3.6680482962195096 6.251976120703692 12.806981163127215 2.337854482266251 -1.5280228067021233 -1.101112466926839
P 2.63202938400518 8.690063723829446 1.3322823595821882 -0.5604346689193961 0.8252865766666174 -0.1417012085279495
P 6.3550210369348274 7.390876400212365 6.074835358658848 -1.1698763638651142 1.2440804579823541 -0.6507001873748729
P 4.765870534437207 1.1209462406697057 12.514510233882527 0.21725950268023875 -0.1537671385535481 0.3632878778286324
P 3.8002140092517016 6.064812534649099 8.376541320603987 1.4599312532405244 1.0315080763651396 -0.07934038690254078
P 4.873967295604811 0.6905454069761048 3.751918008216963 0.2973912751358233 0.8321789329110765 -0.0301721527080061
P 0.007032604282064945 5.571121896837731 3.659029480960624 1.701346270121044 1.1288001626500945 1.4987045173539801
Ni 1.179923804487385 0.9725346665828212 2.4179202020088653 1.2075006019757915 0.7901048865591619 -0.46169068067926294
Ni 1.4815171299842604 6.939199667052506 4.787235477213495 -0.28177490875480504 -1.8479824540567658 -0.7814492677666929
Ni 6.400705706612118 5.873096836520455 8.971269765749968 -1.7262052381462527 0.49850399285287056 2.976735822629325
Ni 8.636655909914746 2.4276931595874043 10.223403151646727 0.7560971621551494 0.06960053390695756 0.01895185851215446
Ni 2.339631143176844 5.221563302600519 7.0052416363344046 -1.5346385122464279 -0.08715911161601118 0.7744018740016082
Ni 0.6225117750861594 0.05399840729756069 8.870721696620528 0.944126050105045 0.8919393407991607 0.8910456253402976
Ni 1.6251221825398632 1.127288304996426 11.436679127372063 -0.6602052986518306 0.008752035161017184 -1.00858643457196
Ni 4.164782761465621 7.096333851101642 1.58862169426866 0.38473782017229224 -1.2286962622168 0.12142960276310699
Ni 5.2865285747152 7.830068897863752 8.136399690896376 0.43009490815085283 0.6690825465368025 -0.2973431955067073
Ni 5.4421817322811625 2.8566093323770136 4.579262106162502 0.9116211354988043 -0.8756010086504534 0.23734881723094609
Ni 0.9917607527079495 7.310228602269719 7.044684188257459 -0.7806645670818685 0.20359846025337838 0.6839882600040414
Ni 5.159787234753284 4.820223297764483 7.092079761534636 0.3922577826984212 0.17992142835141273 0.02736322250430126
Ni 8.476777738148318 7.2542130914183875 9.411299088794607 -0.34376472019404025 -0.3008455522330109 -0.12008028782406416
Ni 4.6964530968209575 0.3630413868653214 10.136737661435332 -0.6518479278260709 -0.5408266648804815 0.7859098746412078
Ni 8.015433445613631 7.4706701092628744 4.630194879500412 0.9886038208024459 -1.3091802758054807 0.9193622128968036
Ni 7.742252204858381 6.272347049386367 7.225528425115443 0.4559476075478986 -0.6012768997467387 -1.4925760358587392
Ni 2.1637160895527363 5.079302985747429 2.799782437078152 0.6799112617211903 0.6279780631870087 0.5709941896027972
Ni 2.1268176322020054 5.090497001865652 11.667883716289188 0.46662385631482217 1.4473673005325847 0.6421823797118489
Ni 0.8786793833889993 3.185851514243817 3.956713078262961 0.6980565651716494 -0.6340114138652823 -0.363884887982683
Ni 4.172705798848 2.322031460367594 2.446166011998084 -2.2635228614322114 1.6038603226577282 0.2859534656125268
Ni 1.0144758828179785 3.320842989461696 8.170855817457676 -0.2685568674026343 0.05258780139904492 0.13562672019909547
Ni 3.614077147078081 3.131089878574559 7.4997536532505515 -1.170143758593888 -0.20398309728630676 -1.6092596392964287
Ni 3.7996415879729293 6.772661419137819 6.141447023403906 1.2259343832009468 0.8927055295412237 -0.9019548160536337
Ni 0.6687879467515148 7.420951232478044 11.467903345221309 1.688537034171518 -0.790595195932019 0.26929425978929106
P 0.2643714046933779 5.458327646763371 8.349066916433305 0.6327114641069362 -0.005392374660164907 -1.0028600736111437
P 8.518319168093539 1.6625203727530147 7.8621608336832 0.1339686157703822 0.41227690613282547 1.336061930687673
P 1.8381719308678461 3.2710877684686888 10.454754934606962 -2.1057604856763414 -1.2984001544708412 -0.19245092827699115
P 3.908719642761288 6.070009756418274 3.809380018553701 -0.46709925328934393 1.2780925532617409 0.7010637274290894
P 6.999649171301315 3.9754385229204647 10.417293142029502 -0.22640568795588104 0.4080006473549747 -0.037340902542303434
P 6.500497816211497 7.838982314918927 10.275798779363722 -1.1944321988276076 0.16610380574203004 -1.6957883164172922
P 2.508468162258667 8.62029193018348 5.697228121761771 -0.616637441363209 0.7471039575176036 1.0518563010041884
P 6.786272325099748 3.9058121061072044 1.6827604622862549 0.7347310377745475 0.23797256685787405 0.16328356268441557
Ni 5.348313728614479 3.0811711086447593 0.2694741315212948 0.1802854965590508 -1.1255960538905003 0.33521863039624206
Ni 1.3705219182146153 1.283595658309557 6.609362348776821 1.0719906098602183 0.04360590961540877 1.1345044121237235
Ni 6.926515538399067 0.8117188142454517 9.414903525640467 0.4199195102797478 -0.11676459318726988 -0.5035562105647973
Ni 2.851439368763971 1.640577557066727 9.209044478900116 -1.0797059762266048 -0.3255024315497426 0.46371311042593044
Ni 6.415352422507064 1.8321751365187984 2.4377750429354395 1.3312465115769008 0.5515479079527276 0.49974532145913936
Ni 4.308415072177357 6.946504852895892 10.539891242259351 -0.32699624248644976 -0.34215058162938494 0.036125027857331335
Ni 8.298963699647013 7.443693620744204 0.39530595767360643 0.576220213888427 -1.1242076581834057 -0.3812089810834273
Ni 7.318914868023794 3.9603829346835377 8.249528307685955 1.5242985637730007 -1.6859276215731287 -0.7181361095303439
Ni 3.210202133721767 8.410158804561625 12.482807181090562 0.4745135434755441 0.4852838946181707 -0.4375734759160851
Ni 0.06871781160885941 4.963901038736438 10.489862531099817 -0.7628247106869701 -0.9310908141876417 -0.10986015275795273
Ni 8.460868061019255 2.1150784529611424 5.717003005430358 0.04597595250948212 1.3386281487529528 -0.3933533297554451
Ni 3.5414341609862086 2.634727941462251 11.639585207198111 1.2115614023087262 1.12439200628007 -1.4802080012116896
Ni 1.1512663963405723 3.3369343876316404 12.877795126942626 -2.0311244462280054 -0.2901721316795648 -0.1270351218753425
Ni 2.90076754531091 8.495040702756782 7.98164605248277 0.4735941169850682 0.3308549541109076 0.08057965862628058
Ni 5.824922588583105 7.695059250541784 3.564039349866505 -1.9617959350355119 0.6278798470462477 0.2711832492818878
Ni 2.759933738628731 8.392459175179892 3.4561097720565095 2.4223257626374544 -0.24594915730544742 0.29203438169928414
Ni 3.422434137365789 4.480286832641879 9.769357684718994 1.5325824010483478 -0.2569923024934864 -0.6570415562118684
Ni 7.343783392468253 6.3493876846675406 11.585899360090867 -0.22921256127705686 -0.885048012995966 0.2856012244794307
Ni 0.8730214987811933 9.068833975388156 0.07403042623899297 0.13687216257042234 -0.2198087514646537 0.7439361013125834
Ni 4.762872137262683 0.3408087261188295 1.5021688176750945 0.05165449095149814 -1.252808067663339 -1.1860362614544282
Ni 5.980194131963219 5.453257629722812 0.3977392024109927 -0.7139827494836026 1.78035292783325 0.3651817524172356
Ni 8.059182786205547 8.840892187760039 11.442237974012592 -0.38332577031611403 0.8981814650541305 -0.361513559537029
Ni 0.06647628256960177 4.616659387770448 5.792644388696755 0.0327900499468274 1.0724894038735078 0.672626812244635
Ni 7.848695304553975 8.610551682392302 2.5753860269576077 0.37017123521202694 1.214941888745185 1.2777850493236511
P 8.302534518100309 1.6361980799815132 3.543759281704271 0.14273762021226385 -0.5152760701048869 -0.20977013628172902
P 1.9257978167802936 3.008737101749899 2.0397414524382205 0.8548565770142503 0.6817195185745227 -1.554545021362368
P 4.600613419860724 1.138518665322824 7.899901568058412 -0.3342051015300631 -0.8765690289906775 1.1113261742350473
P 8.56124167794945 1.419731976084982 12.591122007507224 0.6667988927089483 2.5823702495592817 -1.0174017188707447
P 6.404285611117459 7.53808861542944 1.2957982262046641 -1.977234381077769 0.36986758792867913 -0.2876295677633692
P 1.930804231456544 3.4516730528434185 5.872913298269165 0.09293278087499479 -2.0522131485775046 0.40873212620436056
P 6.958089569252007 4.107894989618066 5.991041969498564 -0.30777261837014736 -1.1629492977279776 0.822900335822628
P 2.3976183273217258 8.363120313129778 10.288658268821614 0.07467074934101334 1.6338481272690701 0.18232206737310536
