# total energy = -381176.43287055625 ev
CRYSTAL
PRIMVEC
9.10776790917224 0.00000000000000 0.00000000000000

0.00000000000000 9.10776790917224 0.00000000000000

0.00000000000000 0.00000000000000 13.33013896236637

PRIMCOORD
 96 1
Ni 7.0265336332342825 8.491253972928964 11.785922520109192 1.426247487834834 2.159825128731229 -0.04346861270659611
Ni 7.054667528243746 7.9375563318783655 6.4623183418253385 0.19941553252028238 -0.6731032376604215 -0.7131350567713266
Ni 6.38315180177961 3.8796814265639563 7.426153343351218 1.4623897420833458 0.16697052461769954 -1.0032354546726916
Ni 3.9363681739057816 6.357076262313086 12.813262344018685 -0.33587863257774414 -0.28150365737128935 -0.5217465083205788
Ni 4.555486911703864 1.7062036975065644 3.578355479836671 0.00021211601080608632 -0.07989960184012046 -0.011681035882354076
Ni 1.539076156741382 4.941847533327832 12.796213513307059 1.7566815523582393 0.7584065270146164 1.430152222205879
Ni 6.815697914369258 7.6173545362008985 0.7853400556582981 0.3072702248124321 0.1086404214182387 1.017030965794887
Ni 4.363868583084862 0.5387117197658567 6.02600889954391 -0.8838568209013423 -0.5105902345934432 -0.415917073988574
Ni 2.0347937474099025 7.959997871957134 5.7302532636576045 0.26959919262421955 0.12366234874836768 -0.387228704914946
Ni 6.6403096281286516 3.222792775329732 0.07645242521477354 1.6947549900567715 0.817899540173927 -0.24146849582627444
Ni 3.03466272181226 3.3712767152259047 3.2085509586815295 -1.7639048095795555 0.6725455653847385 -0.24559897305488024
Ni 1.834696086886139 7.130981515386605 0.6219293949686618 0.17585060071614875 0.4737239576947132 1.707423843773692
Ni 6.5823113622107945 5.500053519483541 9.177400417730167 -0.3893123269168521 -0.1284446006283594 -2.599060822841085
Ni 1.9537710442683733 0.974412763152293 6.969769469865399 0.10952308113350816 0.3877588663868031 -1.1556507071840356
Ni 1.4263310980420798 4.353285356797715 4.788972738532318 0.6874618203749386 0.11860344616822156 1.2958912720060587
Ni 5.284864287567521 7.5582177992969015 8.135770506002661 -0.44282675389522447 0.26913922226866555 -0.05308171031632793
Ni 2.9345410294072654 7.572425917203915 7.750396255641084 0.10759783908633727 0.08317287327475353 1.4270800110384583
Ni 3.6820884022096982 8.636896289243735 3.9062906812287825 0.9091307649767827 -1.3328336535583627 -0.7553546275621701
Ni 4.780694688297906 7.413905217093942 5.928726098389951 -1.358727490605989 -0.547650115560218 -1.1657317455691212
Ni 5.145123804844895 3.8268745883428923 2.396159010838994 0.24245682788147277 -1.1368816541066484 -0.7662249946177707
Ni 5.951625759193542 0.0005364475286686239 2.342278366783804 -0.09982925088451194 0.891578100805 0.13200583561705653
Ni 1.5047398717994345 1.4610043703959246 11.412984926800195 0.04535297421350254 1.0471069592446611 -0.05975140902701967
Ni 0.2433805058631845 2.216566578940775 5.245836591385893 0.15994884188422775 1.883423568473195 0.39454914983575917
Ni 5.916661038267245 5.433275365320581 5.270044127658361 1.4124267799016579 1.7156035513710066 1.926743828527385
P 5.3838748322900445 7.327773056166621 3.7988099123693866 0.4217917876017962 -0.7236899494690375 -0.6974937506896439
Ni 7.372255394537039 0.8521163882676804 0.4406319889216008 -0.36221701336195683 0.37755235816744653 0.7572523588055153
P 2.8480445577643807 7.289565969871801 9.944297243413018 0.8454280846114989 0.5384568790967242 -0.012874799080139119
Ni 4.212989300233854 7.660224799654942 1.5974842722142493 -0.7836763573249987 -0.3125139897098747 0.4747899370653823
P 6.985976742824072 2.4172471366094417 1.9396549148170403 0.042359695913133495 -0.6721056496338426 2.5512902403250255
P 8.26033562586845 2.1234487600425065 12.115843214901128 -0.3253481653600655 -0.27570453419100904 -1.5160085558500664
P 1.0036669136121168 2.742931808556153 8.774204087163179 0.7615299031349466 0.6979809747387076 0.8787606373253576
Ni 8.340502198828403 0.9385099421334183 10.18783895676784 -0.7727561108680692 0.13919129762190222 0.4893243832361315
Ni 8.147308226364586 5.159860173289475 1.1478173775466507 -0.5452690169225511 0.37950896767318515 0.4665130417685707
Ni 8.120513173234823 3.1995588594446103 9.808969474232665 -0.3865756447119794 0.4061412255487328 0.10827815298281353
Ni 6.462589753308434 0.718397961673334 7.576783984138854 -0.7592236235992731 -0.5323687639211154 -1.5448769021449844
Ni 0.8082898091852795 1.101110922257713 1.5397647039937987 1.6811481979066145 -0.07847546779908421 -0.351760079694691
Ni 0.25846114793397407 0.24127114682006642 12.747745615708368 -0.7185680548614398 -1.2155790081085518 0.3123635801749395
Ni 0.3865327584370718 8.132407918098 10.040794044198146 -0.17070967994515762 -2.007166135640195 -0.04322821456101588
Ni 4.600770733648523 2.505310144329253 6.921501032383479 1.390722812565663 0.18230124143749896 -0.2948821355607244
Ni 7.633994428134303 6.531726819354674 10.880272493742895 0.7576380242797081 -0.42035865469969536 -0.2764948913027883
Ni 8.943509295230648 8.180597117999286 1.8976389599909946 0.2440496262898894 -1.2385286749261897 -2.3607290728715795
Ni 3.9869162856903464 0.7565595091287082 8.519238500545047 0.4959485734208685 -1.8149224382780036 -0.9729373179097824
Ni 7.54471097951735 7.76471822064671 3.5767698174471776 -0.10999590700486861 -0.8537926545261103 1.5278096622500525
Ni 8.566037855066453 0.8591321018726624 3.2294132118083265 -1.8442566684657462 0.2918045250766652 1.105111560783903
Ni 5.998476117215127 1.8608809195673324 11.455961751138544 0.20829792261157673 -0.36128344580409394 0.2587841042865866
Ni 2.395934959748922 5.339246769633402 9.232214607993992 0.4265609268556654 -0.14885093219885331 -0.6708679205719994
Ni 5.8906765764796125 0.017724627088998454 9.911544799306986 -1.5580370936760264 0.8251310249253596 0.8435720052393666
Ni 3.57217585932391 0.12239200644744823 10.983247649827549 0.8040307526116346 -0.24346135788658713 -1.1038085257017636
Ni 8.607177642621567 1.707415030635816 7.753395443606967 -0.14827474798040916 -2.0002814927052195 -0.2525869743369392
Ni 0.21731680649491622 3.0197624135456747 2.9702352825414793 -0.1074865103194536 1.6468777067595186 -0.48664272263891023
Ni 3.094928821934506 2.484899636489756 9.78217624265648 1.2342537016999195 1.4074388397687632 0.7325319732406997
Ni 1.3698629371295932 3.789186644817752 10.884205227917414 -1.1361465757128368 -0.32776603077293875 -1.4708651265442088
Ni 9.035206302338215 3.896576335998257 7.112908971564243 -1.0927576672042407 -1.3571087240556432 0.4323410238725522
Ni 5.681070406279617 5.670441641153025 1.1465468439261195 -0.5502680127990395 -0.03386502817856103 -1.6461894224432425
Ni 8.722928264724274 6.992142701685 13.077985993153211 0.9870364763153259 -0.2866908579991837 -0.9861106220669469
Ni 3.6178877463593566 4.6161719691490095 11.144382279321697 -0.11062788416191272 -0.4513479039923582 -0.3147498210189289
P 2.7467024244622453 5.886441464411177 5.937697249760724 1.1257122677533904 -0.05906955246864666 -0.9202600421207248
Ni 1.1111203591678454 5.629848319671259 7.213711014230554 1.6719341355075144 1.8876653744686844 0.15123074528493957
P 0.5231702246398782 5.858808496635613 11.243745294661528 0.49026052189715563 1.4219097796914284 -0.7298140600889045
Ni 4.94821386308232 8.523805135364647 12.815035626426695 -0.5475629551630504 0.5965147024714049 -0.05880601439461485
P 3.7894780933902035 2.06360161724316 11.956361645278854 0.029826596443129277 1.1574545931619937 0.44891615462241397
P 6.098761749442127 6.671858936096532 12.31810123796819 -0.9378841829603912 -1.7690213048705146 1.4123733009559032
P 3.0495083834715104 0.9247116737814155 1.9480796001144678 0.9127861023411828 -0.8964639681423915 2.2188203763185137
Ni 7.3839133374351 8.020027170114263 8.85567762481522 2.4518394558258545 -1.4012995596402449 -0.3222024206422322
Ni 4.256014395742013 4.160820005765028 5.1224791615421985 -1.2905451772027967 -0.31169277936016 -0.2708281799353142
Ni 3.1021968207100166 6.104700014105827 3.5199828846585715 -0.03306798619856241 0.7691223707702237 2.2149130708443083
Ni 8.899409483111574 6.613642083749335 5.586874227663278 0.2785394325366429 1.4898578655966277 -0.6508230861059824
Ni 6.461943101788306 0.6441031666714908 4.577156113065636 0.20062343678545447 -0.4033037560999376 0.9852891546069159
Ni 0.21678673440377 3.1486919757839265 0.3777683533973805 -0.7561264727311882 -1.4810058145226366 0.14990328472276762
Ni 2.7349807271889595 3.381905480352497 7.523703912881116 -2.2932954647089536 1.2457650447736286 -0.1765378565911605
Ni 6.557520018016635 5.464505901412342 3.1870493402489166 1.5231569939693899 0.8435385808982698 -0.35568024068470355
Ni 5.964212694416293 4.465219824154888 11.080051382390542 0.16995480405700408 -0.34951396397299167 1.1261591254828218
Ni 2.6868006350555635 0.5788450989692233 -0.08789633556744123 0.2653306471558527 -1.0362443054985442 -0.017096036250338297
Ni 2.4831054062156013 2.7512380928710223 1.038479534814665 0.715811060941593 1.4516525581714999 -1.1467204945739413
Ni 8.197728829398702 4.417112594164604 12.070867235511122 0.05600171217660033 0.09802819312003118 -0.7808203759334423
Ni -0.1001544803693954 5.344939124564096 9.227494962673855 -0.12437582987562452 0.4335047051633502 -0.3097032597339569
Ni 4.393414182117138 5.304673682726337 7.336695025590794 -0.2747691668609332 0.41141275836031727 0.3769612615506669
Ni 3.2981868779157906 5.23898846071007 1.5380178341126673 -0.8253310567513077 -0.7883930460743777 -1.5447151797561396
Ni 4.6137310873547275 3.9398746645430895 13.194078156551761 -2.2816859054944834 -0.1515513618491519 -0.40964795315041064
Ni 9.331910056861776 5.773532465889869 3.3958257927942137 -0.26336889544379155 -0.055390303844846535 -1.4899877063062725
Ni 4.966939433862331 1.5422638755025708 0.5437045981226672 -0.8499051465462459 0.31732143840084703 0.898478170358943
Ni 8.917543048978795 9.198663412644088 5.442096238521184 0.012570637576158996 -1.8788140947256415 0.20403426223921636
Ni 1.8003689097120805 0.6892776954014802 9.294705735811547 -1.4145062881385058 -1.1455966653821432 -1.0298623132316005
Ni 8.059035739983324 4.568274217820176 5.096818936291418 0.8475685279932694 -0.620022555785358 -0.014004541809208139
Ni 6.572748205927228 3.1726454053322883 4.165281901253903 -0.30121039177159736 -1.1308254206102395 -0.4259222648304019
Ni 1.8515090264094374 7.859621162051244 11.796613218057429 0.21952695855817678 -1.0597912395805489 0.14370255522869446
Ni 0.4285778581203627 8.083909054088487 7.541473168032772 -0.34822044197254864 0.37852269250051584 0.4897077347174792
Ni 1.9596273390210712 0.8936596499402814 4.09216565141691 -0.9028063654206515 2.420503878937367 -0.2631261833053662
P 2.894457742927289 2.559902105056583 5.25228762338175 -0.6922571848810529 -1.5622596163978062 1.1990905235352252
Ni 1.3011630439420305 7.8877914881322635 3.647472508793555 -0.9673379694451341 -0.9388216071729961 -0.9161349642087577
P 4.681210539645149 4.073877253495576 9.142542257688174 -0.018792450116154734 0.053633983275372145 0.20906025469889802
Ni 5.769607017929663 2.0867808865209465 9.068840378375914 0.23090434715718297 3.296677472261839 1.469903791072204
P 1.089380117216538 4.7226599913084915 1.586539467541905 1.2031819199957794 0.42512033775439684 1.5833583460496343
P 7.65195494641163 5.9976746336408855 7.2754434649829465 0.19936153935389536 -0.8148592106857064 0.3210829623258083
P 7.280959129216591 2.0891033673326698 5.99152415798537 -0.14552649581131066 0.38687954910564337 0.36363651941730274
Ni 5.165661821434839 6.901474872348903 10.38888382515207 -1.846900790956813 0.24517654080548099 0.7379140634882195
