# total energy = -381173.124910105 ev
CRYSTAL
PRIMVEC
9.12415577583137 0.00000000000000 0.00000000000000
0.00000000000000 9.12415577583137 0.00000000000000
0.00000000000000 0.00000000000000 13.35412426173606
PRIMCOORD
 96 1
Ni 7.25953433824062 4.85292870915127 9.171091548843087 -0.1974249844528148 1.8481637168296365 1.8487864380152998
Ni 8.260499869815478 1.63526773101474 4.023758260825219 -0.636412309997291 0.03354312606276804 -0.3612960442095842
Ni 2.6134958658922307 0.63951847941255 4.450128244849528 0.06498694639434614 -0.19540923957436668 -0.6824209155169215
Ni 2.003108079270885 0.9402533976967371 12.53370069367853 -0.1273451969165936 -0.3120689317526561 -0.6276530757474224
Ni 0.4024281987378361 5.03970018202249 6.435646776225877 0.08565475915634281 -0.9142107506028513 0.6407083662694836
Ni 8.317708327798016 2.0795228855872736 12.392507117164593 0.0862977920569804 -1.9528302412017917 0.8753107311035441
Ni 6.72932051019863 7.919457167666942 6.0597279002667435 0.1072409699675508 1.528118194629407 -1.9450868498109468
Ni 0.5138578660356902 3.0565101352517456 10.680148479875488 -2.4502751966625285 -0.027445497805462408 -2.5158735513886286
Ni 8.295427138899553 2.4026731178628005 8.353846372380382 -0.893725743275622 0.3001858071618249 0.1466079018009475
Ni 2.2533471811256045 3.092185585126024 11.702325849268176 3.0031094275268475 1.8080506508588348 2.158973836474527
Ni 3.4681920529825465 8.268182409149018 11.088223618748154 0.9743491106556446 0.8119561781062985 -0.49510859401807633
Ni 5.584631273657117 7.633004290735237 8.440581511523572 0.49283933836792543 -0.9809519606841427 0.529304780283811
Ni 6.292236942224865 1.104031997503206 0.826285390205782 -0.979726572917474 1.2657168053052075 -1.5735871255954836
Ni 6.638526034060794 3.6878378598427766 4.019271000915201 1.6501759178948163 -0.5716030268313897 0.013990143631504939
Ni 8.973470542098335 3.881625808661138 3.244451324919356 0.6996820165902143 0.5045759100785633 1.0075122276711743
Ni 6.2801839321778266 1.3323913733224986 5.592507245097392 0.49099534318065113 0.3460488882425266 0.4056347182259595
Ni 2.0639570754886756 5.415487670135539 4.865041026212165 -0.5726839186003944 0.26628324087710914 -1.0300785430074646
Ni 5.956540995479483 7.919356801951183 11.569225399106793 -0.8862978262426672 0.09250726330180198 -1.871535044565725
Ni 7.338467411606958 8.722090920746355 13.002310045387743 1.3667241356582205 -0.6792682288205527 0.16460330993710362
Ni 4.4560826690408195 4.426575148607721 11.330427076432983 0.08130856637250514 1.414676495167783 -0.6325829089488718
Ni 7.735368196653276 8.92634427647157 2.3486562896413936 0.5923747121611024 1.1481549130276225 0.463340300467544
Ni 4.943239605022268 5.287703865662581 4.495505409775294 -0.525291802469676 0.505511020298323 -0.140322583012868
Ni 2.661644036988539 5.947060997418261 11.044354676805565 -0.600929800819965 0.1916662275921667 -1.8972856711672683
Ni 4.154483693185509 1.937934233119486 12.667896042557281 0.7156953612993351 0.4742065537580865 0.239262232203575
P 0.24341514559871635 8.762027351462395 12.323893464209458 -0.2217872153472632 -0.4954937452716369 -1.2644505369982741
Ni 7.4211961338601755 7.367783324764517 9.712441409256318 1.0830296412831992 0.3839364073169194 0.41923251151505214
P 5.533663738363583 1.7575587935888963 7.795550217069069 1.2489984641092617 0.39288744586262014 -0.5182341242919462
Ni 4.552251273049744 8.941463002927243 6.962560397050597 0.45241928267966597 -0.26118397197733084 -0.2601411325351133
P 1.4793906502852854 5.194865578585655 12.579011252265655 -1.2514232715006706 -0.496029563170449 0.9661074394721426
P 3.094658231396082 3.650848531507655 5.005272916686012 0.2519431701053532 -0.6508577959986598 -0.7617687586186299
P 3.682153510668435 7.341533128015591 1.231057584614386 0.6395302868009825 0.9357776781403496 0.21282846349207865
Ni 2.1064482698785763 5.874478336612666 1.2766665031019957 0.25100034657610965 0.2089036745163757 -0.028632319024711982
Ni 1.9634909940140777 7.500594539181395 12.67192891949959 -0.3123440397909137 -0.20195064023731024 1.1043500000275304
Ni 0.05420296100335985 0.8423867882602932 0.7114195657665844 0.8484033651897389 0.507324676468294 1.5259718377103655
Ni 0.5552614610330047 6.435741667448048 3.3731986402635994 -0.17677234119946975 -0.6486060238500055 0.37623775312108104
Ni 1.243421728380277 1.9696954200791696 2.8068367310676665 -0.035268593394307005 -1.1254631278570617 -0.5676052185259064
Ni 4.111600160088551 0.4636631467534993 2.5754499602948484 1.3455721841709536 0.35673207898798565 0.440864487962531
Ni 5.0444447431310895 3.6228373726549616 6.08412589335212 1.2466860139260012 0.5789023887062804 1.5363022731020959
Ni 8.163482719300593 0.7507154807329631 10.214369441350673 -0.8337627324584286 -0.5903605099445509 0.758681635052874
Ni 4.913275876790266 4.354786289372218 8.968950435226795 0.7145242238093694 -0.18012017462578012 -1.0391373107756234
Ni 4.76280942055581 2.623714920587676 3.9337247392959536 -2.518890740948397 -0.9132082774802659 -0.5911614085792916
Ni 5.479101285614687 0.40534427898842923 9.772241127536628 0.7517203732436925 -0.7058608917074166 -0.6883647918051822
Ni 9.055168234726029 5.334173192058922 1.4327908484584564 -1.1482029926567388 -0.7992420729737397 0.0545760354736673
Ni -0.24242517467509508 5.733564871687256 10.743566838416706 2.043448515010997 -0.46608623864379733 -0.5092303781314391
Ni 1.1404647523236644 8.186001136254484 10.235869602497413 -0.7309255479855282 -0.4640031308625234 0.8759483646875429
Ni 1.223905158743172 2.3885306760967824 5.201217815977592 -0.2820554161097013 0.8506607937653479 -1.1504547648053929
Ni 2.6007402958348798 4.2241101274542086 9.409543153589729 -0.9372892296888696 -0.283794253177679 -0.17133188691018883
Ni 4.581603682831215 8.90224738053347 13.196265878676103 -0.9934752899621341 -0.27270045725736264 0.3656890310709573
Ni 3.734279813771185 6.296251570855219 8.240269791180886 0.06505456640748797 1.642733602684158 1.4623468046605526
Ni 3.8128296725864432 1.7710716685924275 5.98318170610427 0.006262693080260182 0.7271043744672252 -0.14074964324795758
Ni 1.0460571104185095 1.2229927431453642 8.99321521563489 0.7232868004933479 -0.44984972218027686 0.3167686512211706
Ni 5.774687442680445 7.412181467753836 3.7337068167757614 -1.0185435457846717 0.24471117113328822 1.9026654474219429
Ni 3.7407305920476843 4.414084179073734 0.21651987102214096 -0.9485159516426244 0.49464193879430296 -1.0437786662023765
Ni 5.899460275680639 3.6644252756030324 12.934030336541408 2.5143419452354507 -0.1998341081149397 -1.8475880468318246
Ni 4.499084816165493 5.450652167275045 2.186697958952551 0.669283349693699 0.4398170205346232 -0.15953052339988655
Ni 6.921648594060501 5.59272440000967 2.709832354371151 0.3749293187223027 0.17658979287501847 -0.21522833118282286
P 0.16904141297462333 4.296683664103828 8.870116665256676 1.068880603476327 0.22507488495959946 -0.381274287103724
Ni 8.503430522731758 4.2747856897564445 12.781031927023037 -0.2930096011283599 0.9155906616695134 -0.8076863470863509
P 4.784762139839062 6.463424356685532 10.251600559819213 0.3982983324655463 -0.2897144753168559 -0.057472383184855855
Ni 4.351830062835321 6.559036387179793 12.684401640721623 0.4590123625161514 -0.40051436628025855 0.24032024115444417
P 2.805814825598122 1.4528302322331055 10.423334511222967 0.4677898515984653 -0.9133766847373301 -0.20592505150402599
P 3.336922820925963 2.6350471223124465 1.1379099886498032 -1.4361007264798298 -2.517622415758935 1.3988199877515006
P 8.160280140552288 3.3443955046720077 5.578404949617677 1.1079158630019177 -0.6702765668449037 -0.8989543386644132
Ni 2.1785655987292913 0.6525952197603289 6.906339172744886 -1.6311155588292556 -1.1233226844752913 -0.3001549539238895
Ni 0.1018009454941903 7.381068095868596 5.807642069242061 -0.2495656710121121 0.44321293359004954 -1.3843912139206804
Ni 3.5239588943205487 2.2027354879152155 8.409666133823057 -0.1935577881879247 0.3812388058800983 -0.04038148914084013
Ni 1.3635959867675196 6.172181297865338 8.571785962072711 -0.39345334566841916 -0.509989882005283 -0.0405979760270204
Ni 2.3220703239524747 9.095688611424665 1.3000316417306534 0.12783602051008305 0.35518453199520766 -0.01980777875454653
Ni 7.762494312376097 5.606903338399601 4.929421070793471 -0.6342898643376496 -0.059954011956129004 0.5461341931363239
Ni 1.3184040422081078 2.9368285812873194 7.3223605390588595 0.2439544954729218 0.5478565751440694 1.6929197366202458
Ni 8.637473498205676 6.646956754184536 12.951684665943388 -0.27863250647108145 0.7403252440328734 -0.8834248755702463
Ni 2.4317609271209077 3.9181589291973555 2.598699222142584 0.3980494496795338 0.7744178148412082 1.3242060597903518
Ni 6.414965964285969 5.882297738285877 0.5295541515647748 0.2916811121249234 0.006510547425008143 0.042553814201810584
Ni 3.07930227688498 6.91714126100733 3.36244855969023 0.03186522413971286 1.3895578457232844 0.5452211944037513
Ni 3.0988918397699097 4.762517447564511 6.886308000710617 -0.9915945279996536 -1.0567506529820123 0.0739061032608469
Ni 6.787386638843108 5.723418810239635 11.656495213790299 -1.261277281476615 -0.8130118730643223 -1.3047078418564242
Ni 7.948034024190277 6.568863103168181 7.418603048731207 0.09472458266809493 -0.38772287094254515 2.46569873030645
Ni 5.369520172317991 3.231630060938963 1.5963787534049836 0.20753739029646837 0.21740708400169653 2.475399502533982
Ni 9.060277762073751 0.5528718445823465 6.005750305916042 -0.6380580731308302 0.41899237047978805 0.8217430822897331
Ni 5.810198657747119 6.047216857589605 6.698175203767467 -1.8754726890572346 -1.7593876384354927 0.09530873730633908
Ni 4.909069640884372 2.4101640499208012 10.508360695951463 -0.5146312374320363 0.685533235893658 -0.5573182347776015
Ni 7.338996612653686 3.2318946614623276 10.817976155249111 -1.8800891047833235 0.8562061490636091 -0.999097264134602
Ni 3.066008381624923 8.937138152993635 8.853450481947121 0.18665694730303337 -1.017040993097216 0.315711670711566
Ni 7.916875031525146 2.73975593631685 1.3631753631769303 -0.4883329658571397 0.930753742563197 1.2786682232595525
Ni 7.02708734054315 4.0994011635458625 7.207047630976737 -0.0540705565921585 -0.654763301700653 -1.7475757334022288
Ni 2.2513489909664055 7.285802783301501 6.278054354172543 1.6428436458994609 -0.1114848328455693 1.4291376648984355
Ni 0.9947519813537865 3.101182002920407 0.7076923480495403 1.4453937217459818 0.5343942789915763 -0.5247446717169544
Ni 7.239433822620919 0.2661534547116802 7.801853184018724 0.04210721358269522 0.1292912648993709 0.6522274226526766
P 6.213486351978089 1.488314074831844 2.8126187087109735 0.7722310916025346 0.3638730609081411 1.9911561333651837
Ni 0.9735474428607374 8.763268236675414 3.352099029564298 -1.213909847936245 0.36770374750814094 1.186266118077047
P 6.335220841037583 1.349435296689545 11.782237032155365 -0.23630443512683175 -0.3849121409666274 -0.40260647292259694
Ni 5.839770047272063 8.049248286455077 1.6294967023586069 -1.2105453023393862 -1.771397518412175 -1.59603414174509
P 0.8000862887303338 8.181694534632832 8.082236672393812 -0.39066344162810784 1.0201265740010754 -1.300353164432154
P 3.824125377687302 8.174650686217758 5.106924226022162 1.0253009191131632 -0.6247806392956338 -0.9570576705650485
P 7.944375237643069 7.649455143963709 4.015598528134025 0.25197530889486924 -0.04827888961104589 0.6750107390957795
Ni 0.4557917373912129 7.808334072009951 1.4113572936503576 -0.7618795731648814 -1.8306028251277378 -0.9232301804926422
