# total energy = -340854.0675036754 ev
CRYSTAL
PRIMVEC
9.42582713798052 0.00000000000000 0.00000000000000

0.00000000000000 9.42582713798052 0.00000000000000

0.00000000000000 0.00000000000000 13.79565079363918

PRIMCOORD
 96 1
Ni 6.782627313847031 5.4919299431070545 4.328744220204204 0.7843361023961847 -0.5074455183168743 0.6668217755270838
Ni 1.7202040389585707 0.8709332375197528 5.809279636004336 -1.4245359044603658 0.5735496090347992 -2.2553971470012835
Ni 5.494842523713185 6.6322193891479255 12.982700803159156 -2.5694766814260652 1.8981017393106598 0.0651404412530749
Ni 6.397176961981361 1.430642627242302 6.9805989052017825 0.29131832946886604 0.9023965315767426 -0.4239697690897214
Ni 5.70795105097533 0.6712536862755814 2.918966604061352 0.5752179978761577 -1.577281029507303 1.2077772526759458
Ni 8.307971227010992 3.865871066265088 6.880276998518196 -0.427468012050967 -0.44068271096902817 0.6497362807997068
Ni 1.3612685390186128 2.064067641198844 0.9487283597677689 1.1950122397007934 1.0174456847348026 -0.02398427872973934
Ni 4.207887206373318 8.185454325009427 1.9065865757656282 -1.129259104564384 0.8352079495453875 -2.5508950617691357
Ni 8.574411084595098 1.3903660675983043 4.998123109448848 -0.22448198857060692 0.8967704436392169 -1.8967043447425014
Ni 2.258880637857432 4.693703766310433 0.7657589149913904 -4.589920765122089 -2.296821218474025 -2.7516745645164806
Ni 4.354119489620914 7.1411197999083855 7.899913971178515 1.1310712180724583 0.44467332018566 0.21105697341395266
Ni 0.6453628241107948 5.143607924599144 8.528388540687356 0.819151410303157 0.5511743266633927 -1.3951484524371844
Ni 5.851694915840991 0.9119299303621597 0.6269871739760009 -1.0605417445933285 0.369783255744989 -2.036012370447926
Ni 6.590406419669626 5.539869700268152 0.7447402629085093 1.8137340743968573 0.1385680622156065 0.9824439718486371
Ni 9.015436113657353 9.022712852259078 6.324726283758187 -0.051153382945363514 -0.4085038122436384 0.42945058969863464
Ni 5.374154232189255 3.2449446991814557 5.860323318063813 2.215995505275209 -0.8184263592116744 -1.163541422786022
Ni 6.734499040141847 8.420807804473734 7.065567081952275 0.8163177975091038 -1.8657775732566577 0.0632095427789492
Ni 4.563514240964564 2.879938966521925 8.221683434451895 -0.4853808252073511 -2.706807014579829 0.39358524326059313
Ni 0.11584247375819558 6.674418817541603 2.0941247189879335 1.0527438458154643 0.3966170881083815 -1.0901171442576
Ni 4.0997823941671365 2.8328381079820097 10.715040949843635 1.2879751024827755 -0.3534287256463655 -1.6233577692607077
Ni 2.1641699261085696 7.14811376369398 0.7281602328561357 -1.1220242773788418 2.1179241176220684 -0.41996476169538643
Ni 2.6764919121441926 7.50179907788114 12.216835376320358 0.5467972806416196 -0.516914119928942 -0.6819992545984706
Ni 3.1026335600508492 8.549017906106698 6.156929593032579 -1.0025039758233056 -1.881156369705573 1.710973508798163
Ni 9.189512290466471 1.1674452542164764 2.453749246896526 -0.6327626290598457 -0.6857283826235997 1.8657467200187223
P 3.5169175173344898 5.497293238786304 13.209528621917169 0.5124889942780528 0.7673513949127301 -1.4426652670712252
P 7.139074395405053 9.086733070630721 1.725366564518369 1.8075192038353969 -0.4434227356080105 0.22317149728929953
P 4.070967640403574 8.869222682064166 13.462734618106431 -1.06423616272578 -0.6511156776457367 1.6428187061987967
P 2.489474074583565 4.338001325101552 6.01793917282605 0.585173823537289 -0.48383096422172805 0.5797408254471758
P 9.223426416747563 5.74617278028879 3.969546682267966 -1.655654424510884 0.36572194119142176 1.576982781540594
P 5.1265283257049425 9.261949772531558 6.279586939859488 -0.5654398354434713 -1.804868396476111 -1.758662330233694
P 9.10393520527858 4.2812861228132455 1.3382902574599564 0.6991950496514668 0.472256114899935 -1.190886133347562
P 5.565055510558056 4.954657792461634 2.5856910335196757 -0.2064657544988444 -0.4076129249982528 -0.3915751548090998
Ni 0.6642512392455028 6.606637694115441 10.742603953754465 0.5827289615412222 1.8163805108807685 0.131057098550542
Ni 7.44947631107004 8.94797546835614 13.281583415397762 -0.4444568332994797 -2.2444347344525086 -0.5854481602445981
Ni 5.111965422674291 3.895637828576285 0.36235896038056165 -1.990441366686346 -0.27160362464875804 0.8914678004793809
Ni 0.5984325730432776 4.0601279391186225 5.262447811408309 -0.636488414650865 0.12979494400866678 -0.8042976331197762
Ni 5.602268676360656 4.794729782286181 9.149730586750698 0.9076775774700239 0.7360240455543582 0.2857331220716047
Ni 3.816215808552806 9.422320796585614 4.268953370499132 0.8892617939669974 -0.2573926232556986 0.15217588280702823
Ni 7.770727353847184 0.12437190479537173 8.802646179354713 3.54318224496044 0.6002800830511081 -0.9160691439678288
Ni 3.559277184790639 5.913424658201989 1.847292467154223 3.5025138207068003 0.10631408727790723 2.7847003846231977
Ni 4.462610760742472 4.761852496997562 7.036196204383658 -2.189667666013958 3.364926634347224 -0.5358623788966707
Ni 1.5137501457026645 -0.14757829137237216 8.024488531258779 0.9365623788251741 1.100348335067305 1.0745452579612722
Ni 4.468973194105378 5.270385300497055 11.245621705756719 -2.381587147267511 1.6142108126541166 -1.3169612053024804
Ni 7.786072600535793 1.6870251271994148 11.886056707405103 -0.10948734279956628 0.15672159319618173 -0.6321445358598726
Ni 8.550280966952077 2.528864606470358 9.412082463076297 -0.7335555294092077 -0.602613102059659 -0.7562169755624654
Ni 7.362051763750106 3.4333292816867074 -0.018336061660535714 0.28781263030845267 -1.3927696677923627 1.3842426041579579
Ni 3.2573019586463 3.494436919452221 2.3155449406788358 0.7666584826107635 -1.7477996764875772 0.44645432334548274
Ni 6.153217702279524 4.341460603685532 12.035781259631895 2.425961045397196 -0.3412416966618704 -0.46385657798233015
Ni 1.2911498104457833 2.6015660116971673 7.245282731177727 -0.6074817430058699 0.8200785501031166 -0.364808685348533
Ni 5.749057083413307 0.5857011082384219 9.1146212655801 -3.3912385327688757 -1.0012852729248563 0.7261813484323235
Ni 0.3294505698621695 6.124525484269617 13.341263982924547 -0.36455286058398506 1.2236440445048733 0.17056312706496432
Ni 1.832786119086797 6.573543614801124 5.163242865248433 -0.21500875897284907 -1.9027958023522198 -1.1096387592302954
Ni 2.8645842940061113 6.6425029666278235 9.487076229479193 -1.2925586080883997 -1.2086187747406345 0.28610078982366854
Ni 8.976639408884433 8.52382266998959 3.8733909912086832 0.5326829527274246 -0.45411878186927596 -0.07247168480716551
Ni 8.958325026626465 4.19495497144901 12.578501538401405 1.7697309293430297 -0.9560567401043599 -2.3329249061751174
Ni 6.6946654943764505 2.560761605729728 1.992767856477315 -0.20786520594953234 1.09809861980118 1.0233779910588376
P 7.315874636276212 6.739051714681526 12.147208675927594 2.4706707295997448 0.002045312564802929 -0.4695757398542945
P 6.538093078685731 5.19769332109745 6.739064910839612 0.844052801530527 0.23623347267958025 -0.7068026867953957
P 0.7919466907131127 9.32112511572019 1.04625927901616 0.8723848157060009 -1.0597187344714007 -0.7918079852931976
P 5.346282061146124 2.391831930574163 12.460107493219002 0.6556482754087677 -0.4954104415292114 0.6922967798697368
P 3.378244747504746 7.043298565182102 3.78253261503822 0.2759798993395828 1.010624548047911 -0.4302157499994333
P 6.2495402304803225 2.464401374220112 9.500995348511792 1.8558196907129976 2.6236467397105656 0.871973439200195
P 6.669668200630632 2.121282412328979 4.252082082386145 0.807064654341952 0.5426020116133494 0.08587895935200694
P 1.1458506840914122 7.577479044504511 6.790453578174766 -1.2997065319870904 0.01296350213920348 1.6790249809160247
Ni 1.5013457571017985 4.936927811490335 2.950958804175486 0.19310141737679648 -0.5698256232159928 0.9680226542169844
Ni 3.723079209947062 1.9335576377280284 0.1308012615314286 -0.36894147656998394 -0.20647141092579924 0.11187692607766538
Ni 1.777673307423222 9.03014040409607 3.015673706012087 -0.7662910719690157 -0.9423697295355706 0.16421301647722042
Ni 5.517521063966744 7.280065918727055 3.2824406398001837 -1.4047895750713741 -1.4370507490979252 1.6378323087277988
Ni 7.709713974353714 8.624405672086736 10.913270808863784 0.03723394465079394 -0.8051466113836326 0.230492456430745
Ni 3.5183031139335226 0.8157836651300812 2.1780569973286728 -0.6492135755270174 2.954125798539293 -1.5896094691656688
Ni 4.825165778328883 6.910045645994834 5.648353430727946 0.8825738404238607 -0.2024782306060061 -0.801088125043543
Ni 2.1694389635157765 4.837777535128245 11.00012792138602 -1.3697336119085055 1.931718913144473 -2.125138633092637
Ni 8.56633315068101 3.2769830858488906 3.253194183150664 0.1763851330633801 1.1625366356705915 0.8020497176258639
Ni 8.294916456333029 6.774539954105737 5.9765795856362764 0.03466027038634676 -1.6068926817261486 -2.0013207326030114
Ni 8.551496898661432 7.247066097684781 8.16190672348763 1.0996235410861386 -0.08332482547158553 1.5035135087068494
Ni 2.683419895139357 3.3687906428188272 12.323930682432959 -0.8296520527241646 -2.3289312116346923 3.3952178291315978
Ni 6.815382063381993 8.483480129555161 4.5861711018155535 0.017231533386938065 1.0485796871354458 1.216924980613485
Ni 1.6945186598268378 2.6848149175655944 9.5771060754384 0.9723549630437511 -0.07069608096398147 0.655517149147542
Ni 4.130727384878871 8.515254593060876 9.84403890378529 -0.038068524736947336 -0.26105618815021486 1.2781234064996763
Ni 7.387275277348827 7.0497741084714605 2.3287194193622938 0.8916722031807031 0.3405269299830329 -0.37641875878363557
Ni 3.960789146212446 4.781976638078755 4.493892253485401 0.05206766722951678 0.5304034126646285 -0.6678643578589852
Ni 8.077198699567976 5.9230390019503805 10.164925167049628 -2.1686365563752714 -0.44939617958262607 0.13286921205861635
Ni 2.989287987919074 0.6520372523541637 11.93296245132189 -0.8527958378304797 0.3075923840385412 -0.8143318774273266
Ni 0.4601113865682539 9.11173036437654 12.31370837282989 0.4014793012966892 0.0787840001784385 -0.4200745478003733
Ni 4.571196290136073 2.4451726867233283 3.8833512628154727 -0.9047326359090869 -0.02145971253567272 -0.10089857268929074
Ni 3.906524658997258 1.3766420631888354 6.415832559184123 -1.1269939626792913 2.2108478996359993 0.07112879762602589
Ni 8.666407158109122 1.204573587574236 14.020106402682313 -0.24200868460046063 0.908163515967507 -0.30106203911919116
Ni 5.38013963246399 0.18577739870054108 12.05057038251545 1.3338708365736252 0.2917860131339039 -1.4515391725220874
P 8.52913883653282 1.6137864498219603 7.051536738158665 1.679977317526965 0.9260949036349471 2.3210916609856156
P 3.2722324689379207 1.0263217693136126 9.588501900528405 -0.22483808635844504 -0.38381427991675837 -0.23341245829101734
P 6.313975185248956 7.323716924510195 8.921881950906458 -0.04591038937886933 -0.21951076060826066 1.098708742581353
P 2.104268794225207 2.008031098469247 3.5711556122335053 0.03617773547213769 -0.7935211113295625 0.08883161422242766
P 0.7837641301170549 2.0242435212606527 11.795488646712531 -0.3681444345899853 -0.5441122776102887 0.3785959689406125
P 3.1575578551703383 4.43359806460762 8.752623314381465 -1.1377853968678404 1.1645791200219169 1.5693250078850198
P 0.14258260295409017 4.169241314835665 10.238111059794738 -0.74565308400369 0.7229348164705679 2.175951859089762
P 0.2716627084380126 8.638638671165237 9.68225683339875 -0.5492603974701314 -0.8094138713004189 1.5137004765421802
