# total energy = -340853.50313617266 ev
CRYSTAL
PRIMVEC
9.40884154996431 0.00000000000000 0.00000000000000

0.00000000000000 9.40884154996431 0.00000000000000

0.00000000000000 0.00000000000000 13.77079066864769

PRIMCOORD
 96 1
Ni 7.031669598742069 0.3219376311477239 11.651493658616296 0.3288538645204788 -0.9883315409776655 0.21491568503841052
Ni 3.8914592811121542 0.0391464266699756 0.5040147125757312 0.4301064781150786 -0.15606699033131832 -0.39936354050526707
Ni 7.959362570141928 5.725327203002812 10.786164371601846 -1.5205851194771554 -2.477287206474998 -1.0936446977948844
Ni 7.162396044964402 2.7289780745725145 11.115809725849134 -2.8824763525231067 -0.17750510560043622 1.3267308830947344
Ni 1.7764928053609486 9.404927596135387 11.255293921901881 -0.13743600549369234 -1.2058867205214523 -1.6851562906247428
Ni 4.102113837357427 5.006237660363236 12.507981457109434 -2.8192166732325123 -2.2404083869019353 0.15539258997211303
Ni 5.487895083352561 6.378799483806017 11.665511891826796 2.7411132440608665 1.566832323370153 -0.4976303319986656
Ni 2.3623907852595334 9.062323444250124 3.6918939856641777 -0.1406483417834029 0.7850133309688674 0.6575899725161707
Ni 9.26104758925242 3.8587541474523848 1.6266607652348386 -0.9610423662444094 1.1868896105936593 -2.2912288119879123
Ni 5.653669464811558 2.081734446957677 5.32980584377311 -1.8161216007924272 0.5040300648774222 1.965833595439995
Ni 7.820525702396372 6.568237102075808 8.29508415434246 0.38824506199460235 0.40319551265684755 -0.13119696656251598
Ni 5.633082919228252 7.934984261363891 9.129152564894142 -0.9100147102436327 -0.029712696573084313 0.9531583355106422
Ni 4.827629618860532 3.850897764654368 9.945086374002834 -1.0951984154352492 -0.9009675124397 0.10841339300909716
Ni 4.117901873686855 8.301552732993523 11.241771534647617 0.5521405472314039 0.6592570758059485 0.04179276766606996
Ni 6.520506048262227 7.225153018931796 1.5575180104231168 -0.13748562778470516 0.34550098615885655 1.1685607303774843
Ni 8.264754753205446 2.9491449697504764 8.1147966346009 -0.3713685979542378 0.2764475830046207 1.8490476620964866
Ni 7.782015313423578 7.433286005608364 5.3505579849698846 -0.45369943494367027 -0.44260563902335387 0.49657489415095774
Ni 7.8328324673063205 4.289142792158604 12.674402225991454 -1.5646661689567698 0.24032949712582477 1.8382523712531953
Ni 5.130923630230686 2.955288943363776 0.9957188967048449 1.6603402600223276 -0.6818377893199419 1.9138885698312718
Ni 4.81991436868763 6.3615342593337285 0.46441195708455335 -0.4165953310025212 1.247057024112175 -0.17523970660502722
Ni 9.281031968968573 9.28031689700133 13.015063452070978 0.36035604889381806 -0.8474255746575018 0.01686823651024837
Ni 1.6512140784680185 5.144030146682947 3.838194887509933 0.09913865257539055 -1.4282277514896564 -0.7299277028486332
Ni 9.11044026057235 3.734246945576745 10.700468641632579 -0.6053798661715186 -1.1113662834443636 -0.8852174486942948
Ni 4.772945431049664 3.4539575521001855 3.335918928875608 -0.3812470334102144 -3.00327397812917 1.0979325265369608
P 3.641287589834939 1.4505799386058449 4.713410985355709 -0.6179124514208907 -0.02281082724692846 0.08019013649734577
P 6.1025088480410234 8.394850807035603 13.164201119681527 -0.6542313404565829 -1.0800132230543786 0.6963051296981815
P 7.534007655731445 2.048935224881165 1.1062313874741727 0.059842426078929194 -0.10743817358002142 -0.5605148873380282
P 3.4609577303058434 8.966052176238975 9.191355358086922 -0.4910354523899672 -1.6667201954067423 0.12135015567542327
P 2.130867418180725 3.891468689953828 12.637936378314478 0.1809213303708368 -1.2043188618137 3.521501931773529
P 4.869696549986202 2.196418818125377 11.48409625196849 3.8126500542131176 -1.0562009511261294 -2.169222253675412
P 2.3752808983532856 7.400279789015019 6.349463656349806 0.9889630039140774 0.7128090408904756 0.547361894895838
P 6.9482037642496035 8.668883320798772 7.697183315120008 1.3639121201307223 0.7790175183967487 -1.0365978321832212
Ni 4.5411492075623014 5.087567687795642 5.496542749735385 1.325166623931408 0.22665379941094516 -1.913485163745266
Ni 2.708447982039253 5.588409738958807 1.0801162065230636 -0.3936464355158317 -1.8929132531311852 2.131073253409517
Ni -0.129822256537436 7.257368892824503 11.303629964235116 2.3140890044155373 3.251243508298755 0.3185260002319095
Ni 2.801906006389795 2.3411644384423758 11.069058132453845 -0.4364810141828548 0.8626891856847917 -2.352514655381587
Ni 7.618282650607899 6.7206885637240354 13.22713403898823 -0.661049648929997 0.573802862696186 -0.14173771819283976
Ni 2.932086739795021 6.894262874931003 4.3699534515305904 1.7730414817735012 -0.2250825982690833 0.9380590179753586
Ni 5.745226903143898 1.0416528617586402 13.575383495878055 1.63683934868691 1.1343434610658272 -0.7856509645528663
Ni 6.1260121345433545 6.32642987104702 3.879314348279004 0.10561757543151487 0.37625369396068103 -0.05744641504292687
Ni 0.2867711445059653 1.450862203856073 1.7441122767389419 -0.5655282813922196 -0.7198564346555603 -0.1817307136460096
Ni 4.624916124988344 1.2612364087527974 9.013685378099144 1.516517891386317 1.4915123704809152 1.557612347433782
Ni 5.983073011827816 5.025215294020241 7.798206048176665 -0.6903782226907853 -0.5172730459302576 -0.5317090188499294
Ni 6.595607422506265 4.622488643836382 2.231405595891157 0.7743442812907954 -0.0015753149069198675 -0.6705799570179354
Ni 2.5478578723427803 7.455142744817699 0.28757936400578527 -1.1308117937634847 3.3458981569608635 -1.9946479485685262
Ni 8.931173600152448 2.216243247533068 12.640814542982637 -2.0751134502144457 0.1826650525348209 0.3019652676597509
Ni 8.500973132279714 7.501537743113533 2.6804849045833166 1.334402283597063 0.664562547179262 0.6117441178266497
Ni 2.7643176839010795 1.5746261072394454 2.2917623743474436 0.23063566687682863 -2.3795906856627727 1.9977690106960109
Ni 0.8858923104935714 8.001871716826289 7.738881419652046 -1.1116840717950984 0.5056457461039743 -0.5274808397011949
Ni 7.263428186862734 1.2403017360275423 9.565659779341141 -0.30475774280322354 -1.1529014265736726 -2.7637512931753565
Ni 2.4663302592352148 3.347637641180913 5.527760345526452 -0.4529396739595103 -2.213163949363685 -1.927689994490738
Ni 4.039027553931434 7.972083324085544 2.39066435449072 0.9304053580848428 -0.46858200848245746 -0.299734064336387
Ni 3.5825670089458077 6.917766161433335 8.185068450413535 0.38425779521208014 0.8940209059185377 -0.8248890841178826
Ni 2.9423329683783033 3.42689772344498 1.4309088733174447 -0.7985812994612892 2.205432385047382 -1.0334191773449233
Ni 7.016446092913097 0.29237222795465934 4.806666719610254 0.8244913344588317 -2.372285153140295 2.358402738731248
Ni 5.776944108427868 7.1978485603930595 6.634161092150761 -0.44243260378059934 -0.6271432259905392 0.1299147574159827
P 1.5934908347963606 7.18033870603724 2.7200613153178064 -0.8626200230097532 -0.20590679667158088 -1.0509571862286866
P 4.271303628344184 5.334502737536907 3.1269193878808386 -0.7666762232225763 2.7820531768083376 -0.4031811144791444
P 8.244469290555715 5.216252415374658 5.947866067166859 -2.350462657948565 -1.2046711029467962 2.67704880948079
P 2.6739457596196976 4.522943098922585 9.22125195250692 1.667776918806031 -1.7302675811410846 -3.118549645475739
P 8.795808594984699 5.955533332247223 1.1851772144263184 -0.881649014616746 0.33660265522796223 -0.2849661619985931
P 5.80225389253166 4.5814849118199055 13.672963533766096 2.068013863055187 0.27147455527006153 -0.1472177674708045
P 1.8751256926323407 0.17879527745202117 0.8550087285819415 -1.4321052321671917 -0.5660846681163219 -0.20742606152958468
P 0.733229149907673 1.8628941984557874 10.619800055769876 -0.9367570113344835 -0.8788963915722734 -0.16712453369706057
Ni 2.913156150346386 5.06994492733973 6.815770554147557 -2.028777286152067 1.5373024322318363 2.5852072047874444
Ni 8.718543187155579 8.736664616220226 9.594716164199626 0.14108080133513123 0.39304299760387795 -0.8094331545741286
Ni 1.5238559975650743 1.5096392377952494 12.906205976552155 1.8807329090149096 0.7153454341590841 1.8288295352773989
Ni 7.711345503608122 9.117186400052804 0.9390757880573933 -0.5375677916235516 1.2739345652293093 0.27961852453343455
Ni 0.6797492938311116 4.993695674411431 8.927452403270273 -1.952716855552379 0.9963364135600131 -0.9327386342037097
Ni 8.08647602116134 2.510994030662983 5.920048826756874 0.3066253921395816 -0.6497997870477906 -0.9455013331860168
Ni 2.2268564209416466 0.3740842543590409 6.6736829316035395 0.48952158684860214 -0.07426811458595596 -1.002473893916319
Ni 6.714262324860507 4.158359892886224 4.898008695468253 -0.4492889645808004 0.7519810831042469 -0.015739008001811605
Ni 1.5585652145014632 4.790925727489197 10.989890256838187 0.7171554907846295 2.149833821846472 0.07352352311044756
Ni 4.914247415313879 8.188608997535564 4.693484940457935 0.023333789629934005 1.3764822434862487 0.0638003822854127
Ni 4.970851006826299 0.20762961364699478 6.96715223049742 0.21378594230934148 -0.37018974715478825 -0.7269164268261351
Ni 8.69456004972786 0.35699403434189353 6.889926339803331 -0.18849040096734634 -0.07981989764212061 1.0538915862666625
Ni 1.5932650225961777 7.021310464058695 9.60190451923877 -0.6423464160935388 0.5171396056761868 0.4513371053590807
Ni 0.5676965756797056 6.313859658570193 5.968673720529511 1.615813381254546 0.8937028604574866 0.4230040627423425
Ni 6.898318085692614 1.9397738437762628 3.434986504632351 -1.1992121367147541 1.0707513381364784 -3.5460266563877707
Ni 3.781564010356658 2.514512937449161 13.076467434605611 -1.0595084182328074 0.0015256926159070497 3.044120065611254
Ni 3.5825105558957624 2.824035602007683 7.538254806863212 0.7483905375395111 0.4983841794455546 0.24920083147352567
Ni 8.83534454769999 5.639706743766938 4.08776253115166 -0.725980288165111 0.07251642200217188 -3.1639779530118672
Ni 0.3325423365987958 8.612119778977888 5.136394871664275 1.04070619792464 0.7525824641336716 -1.1169584328201603
Ni 8.575255937298092 3.307922920473812 3.736290545988397 0.9800767571680412 0.23395830349215835 0.707907232713484
Ni 0.22039741179898173 5.671649761251091 12.78816264890674 2.212787796971189 -1.2398916167119873 2.1067871271686425
Ni 3.566120353699181 5.934212897013323 10.367877379057077 1.4932344953783443 1.5003407674058225 0.710458538380428
Ni 2.2203455025030503 1.34804238203963 8.95850534433204 -1.246717381384569 -0.1379635958623882 -0.5226289109255322
Ni 0.5506496363342597 4.159677130720623 6.902168183705726 -0.07332040596070598 -0.946029180665029 -1.3736362893970215
P 6.860419271428646 4.213665064247595 9.619709811223162 1.9726827571513448 1.3383239872489725 -0.33006485410944447
P 0.7945032904272011 2.0218377608592624 6.983209359698733 0.22679983807050616 0.199416818071863 0.48938017617473134
P 1.1617849522557437 3.0917736006907637 3.0567576555157934 2.7147023581675054 -0.2124191438688019 0.6100502750639946
P 2.3026070052612093 7.279432626550671 11.60991975079436 -1.1019084804655732 -0.37147272763226996 2.1992684223285157
P 6.040805664341149 2.7569317431867764 7.779766600263426 -0.6004256074900369 -1.1023548239743726 -0.8893800647124166
P 6.049697019723336 9.26388905943805 2.962454717182901 -0.49059013732243256 -1.6772833156345697 -0.9425450787711702
P 7.130782336938849 7.627700901123845 10.684949698175036 -0.06578501681560929 1.4505356709582373 0.05993729978558065
P 8.971960928810418 1.0760327692364295 4.04072208631697 0.003058070100033443 -0.6885792218088335 0.6287517081282398
