# total energy = -340890.2047437714 ev
CRYSTAL
PRIMVEC
9.05289853013960 0.00000000000000 0.00000000000000

0.00000000000000 9.05289853013960 0.00000000000000

0.00000000000000 0.00000000000000 13.24983207986920

PRIMCOORD
 96 1
Ni 6.486012545558564 2.0501827788060014 11.202613434784947 0.8014920453501809 1.0666794820599501 0.8798772674283041
Ni 4.619024222067987 0.4060315534370481 5.793780846379626 -0.2239875654326917 -1.0862864576576001 1.0185954820685297
Ni 2.8362278552108084 1.697038258772428 4.625980469323589 -0.4492629964388714 -0.48580659989086017 -0.32865074737073724
Ni 3.726743381029532 4.1756041975668605 4.6797347704093735 -1.0511307356920736 0.4982065162171097 0.030356757914986432
Ni 3.8721510377441173 2.4071566749316102 2.366472948790697 1.3278107464224744 0.5618564889675871 1.962038647173937
Ni 5.273811322211758 4.38622893552736 2.8311980647693553 0.15281197372913038 0.24268539895251104 -1.1565786183149436
Ni 5.189293461230101 4.474883971152185 11.414120830355314 1.5914817464877173 0.8829350804180214 -0.2502177027738142
Ni 5.732422110501148 8.113352538296526 12.169361608820715 0.3196889101917591 -1.1208757655966954 0.1432027327741405
Ni 2.0982989346669165 6.694365005979819 0.2849472245808084 0.17317073989114046 -0.5246346285016513 -0.5698197096787219
Ni 3.193346597713421 1.9955304301827943 0.27607719456904456 -0.2901603046050229 -1.7114219091894913 -1.7200333050075862
Ni 8.105023871618814 8.681684457166217 6.724793608628869 -0.38664917826239215 1.786669614079897 1.0101936311580795
Ni 8.70884315285441 2.4231440937933932 1.189698433389426 0.07121235847876767 0.978183139689754 0.06268786594752429
Ni 7.0146746629263665 0.5449917357952564 4.478324072606022 0.40321376748929266 -0.030933970574695106 0.20162231036361408
Ni 1.0145583419252633 7.629493215915679 2.207395415246388 0.7271244290718832 -0.9615673855099439 0.8723025404048396
Ni 7.64096323839466 3.750679244829392 3.4921257460082265 1.491050086132516 0.8781080913430231 1.9356642709454663
Ni 7.612328920240741 4.432597881965668 12.564471745431685 0.47867204572860783 -1.4495144287825745 -0.4087359828591025
Ni 8.460549303974386 7.297559637214585 9.058631763390778 -0.5339163109138934 -0.05299300725726358 0.3132300419402928
Ni 7.009777044803929 0.805201009763546 13.453614851828299 -0.7075624477795557 -0.054405571334074046 -0.7474477140102675
Ni 1.8707090647998592 6.485179678890793 9.325470474976555 -0.11548341248200111 0.05076848880211902 -1.528835789521722
Ni -0.014102605381022353 5.1293813785419475 1.2825187076429632 0.9390424649345505 -1.055782632641788 0.5180436055476949
Ni 6.424878321564442 2.125892169486121 6.69082079619251 0.6495573320196812 -1.4504138006683924 2.295603286906524
Ni 3.8457165739409427 4.4605260740316925 0.5850698230223228 -0.4304764598599876 0.17720042987582385 0.18828471271444347
Ni 6.012491633336357 5.621732319774635 4.8178638966795235 0.32353245230756533 0.6733246096426081 -0.6857872608859931
Ni 5.289681053392226 2.977960035108925 9.31199523546593 0.026548439912489764 0.026422455857586753 -1.0542975634558294
P 0.4634803424262827 5.6355289371842385 12.55808492549568 0.0752577321927349 0.22708137386666696 -1.7668062994970668
P 4.275122711466962 6.0965930609841275 12.494551683382433 0.24679325047329756 1.6218325908654327 0.5679397190471897
P 2.726434301442007 8.658807782498194 1.149409413625848 -1.5549905935402188 0.5657673939862191 -0.7523685483506527
P 6.441915876659502 7.839846366919297 5.703814045753061 -1.2793544506933 -0.5277472059887041 -0.1286168645401656
P 4.985223021829019 1.1197168116299465 12.42138615719844 -0.8220284747406358 0.2249869532314835 -0.11983654724437427
P 4.028512701719607 6.188624827772851 8.064245090042991 -0.5127715585154782 1.106095007743095 -0.033516386589890666
P 4.921916102179841 0.8742574252899143 3.692304344317191 0.24628211516483392 -0.03179117636866783 -1.5237830575891629
P 0.2875508382074498 5.535367667486182 3.6627964214519686 -0.6361593134462205 0.11515405416704039 -1.0081899704644894
Ni 0.7350347088733868 9.019891694571283 4.284426375319881 0.6146368659934124 -1.0646693936084568 1.077866609025021
Ni 1.8861623626464412 6.607710660937357 4.628670085486577 1.1206762479913797 0.36100036734603635 -0.12331499271127795
Ni 5.809489435965677 5.769575206202596 9.048588477725284 1.5218022797137083 -0.15193265644797058 1.045080929953568
Ni 8.657902492641922 2.379029319097205 9.972088239457317 0.36275360259171724 0.9274269921828092 -0.1830013528283171
Ni 2.422374597415561 5.5218607428305875 6.892920419576485 -0.8873887453140007 -0.48857619221619725 -0.11316916252652769
Ni 0.49934158950282903 0.23135949682857854 9.045077763662658 0.9993901127846725 0.8112144148442674 -0.6589158904164458
Ni 1.6568343362553397 1.3777425264649055 11.21365072871263 -0.4279968879712435 -0.6429413693650605 0.0037646092487548066
Ni 4.258537801300039 7.089342970271772 1.4788670245700357 0.07004250654038259 -1.8051638162293426 0.45561490679882827
Ni 5.482000830458882 7.8935391082948545 7.758611086956487 -0.47304261535697245 0.8418131135667308 0.06294471915333676
Ni 5.5245494537037185 2.5418366468493594 4.777836505684409 -0.7677416883726133 1.9411137240958116 -1.8069126805996494
Ni 1.021628655702756 7.544866720151271 6.773578773693571 -0.8988170417556003 -0.6179618166015873 1.5184755293333203
Ni 5.207363046761313 4.58505774666062 6.9741683735972835 -0.6127656171126286 -0.17301133149514075 0.1561559505006988
Ni 0.6159393018313792 7.456637170758894 11.2370108281639 0.3166637502121901 0.007568042155245031 0.5846973981215027
Ni 4.880824995603605 0.3509356127842672 10.201589176210966 -1.4881154289842244 -0.2156607907345512 0.12740073274487734
Ni 8.33924046323379 7.029376570192242 4.968806495575363 0.46029714276584593 0.5552829495151275 -1.5450820761772552
Ni 7.232424032055736 6.166372803105658 6.9145840058371 -0.7196432902034897 0.8109562760868744 0.845206455518996
Ni 2.1321567752915307 5.370070792629277 2.4087264475423877 1.2548837192454452 -0.13149958540459933 0.7729512575980108
Ni 2.4872929330089053 5.281841243236901 11.464496589697486 -0.07658390720332617 -0.36881549251508094 0.010528153224833482
Ni 1.1104285377045846 3.331176978331001 3.7213080207324682 0.17049113617644832 0.6176584264285556 0.180441819631257
Ni 1.5616250020710973 1.2885081053320662 2.2390760337666653 0.6574691306675903 -0.39723440997740617 0.09286233264837555
Ni 1.2869510067792764 3.7728588463080834 8.253996559787403 -1.2122818254145187 0.36634234838424 -0.7739133644009638
Ni 3.8334680021855676 2.7470386985707833 6.5594885861632575 0.0779825873230657 -0.6383941163140102 1.726745426920439
Ni 4.1347122547590045 6.841058174290311 5.861527307483967 0.22829596300005844 1.017148722319674 -0.389572008336142
Ni 0.8629331544777942 0.1935473501117637 -0.08757593011614714 0.45395114594316016 -0.4752028562330849 0.23460467882690564
P 0.11900668863609291 5.806275656975908 7.857455159913665 1.4614826568880441 -1.5618443832372586 0.5660602426362896
P 8.540504504080426 1.7604809719000467 7.627782218087323 0.01025304518657589 -0.2984338574677247 0.7942415344353547
P 1.7587337624774397 3.324767526148587 10.30485830598561 0.8083471205988014 0.3511684688572791 0.6714358772603275
P 4.1209971134364665 6.099381353741449 3.7114367401396664 -0.8442610608865913 0.5659897944096703 -1.0940049093477804
P 7.067181474590206 4.022175672725695 10.065725085161214 -0.02921415967011098 1.100608530707227 1.1409311415856735
P 6.545408613028643 8.00068921568334 9.65838538788185 -0.6556613880348902 -1.26544632525264 1.7073865627778533
P 2.4098815973989924 8.600217423000199 5.742490744282617 1.7312821384485282 1.3727194340097069 -1.1813326853311719
P 7.118303192773949 4.093259032240259 1.4836496708807265 -1.213884136904632 0.35508143075844006 -0.7253048593646412
Ni 5.689810116966373 2.9608138452311126 0.2617183921586969 -0.3672206372241353 0.1268075792455687 -0.01263388671392663
Ni 1.6056039832888447 1.665896287716633 6.829824432463819 -0.53155423843962 -0.4342577812792908 0.2128983974980656
Ni 6.80806941192772 1.0433737180504359 8.980908102780452 0.6025948472272138 -0.16142825464323166 -1.946311209136351
Ni 2.928938589391737 1.9400723735875043 9.024314940809033 0.19181278047235997 0.6626583881780136 0.1595562344314994
Ni 6.446804441883376 2.076653454203427 2.532109307343705 0.0163028509250816 -1.1216414401181263 -1.084866437381622
Ni 3.9506125095873066 6.899920120745189 10.427736919336983 1.0583781612831062 0.5532286380892601 -0.22507102830485756
Ni 8.292717617519916 7.306594429980191 0.13801415445840293 0.2272099290247313 0.4794996838362258 -0.7579954076191269
Ni 7.509850108510626 3.977988474841005 7.835911071914078 1.312505740634288 -0.6514890018247554 1.7340329617207877
Ni 3.256626358666911 8.510620885924851 12.271292720187787 0.1615195288054573 0.5475436718893408 -0.3172967558104987
Ni 0.2141997276029219 4.843961592656164 10.482750478612841 -0.7669896406979372 0.15425436260261177 -0.5141131601450372
Ni 8.669490202802217 2.0803379839184584 5.41841327095426 0.0704140309471884 1.0980657096807156 0.6117212350085143
Ni 3.737507277420619 2.7999891022641967 11.26385448298211 -0.5704218620390951 -0.8961762616986437 0.29693336166279827
Ni 1.434974951178491 3.531236983668793 12.71879198078128 -1.1693770556311927 -0.2732874401090842 0.07288383264391964
Ni 2.788591502973718 8.977904351037337 8.024787126367473 1.0023785059890349 -1.950217743279609 -0.5620156402532708
Ni 5.859624388206081 7.688581484834625 3.559183281531944 -1.8843645922302257 0.4384985588335158 -0.29223467063554837
Ni 3.2491124528598445 8.708734518071656 3.1710954783360847 -0.46391288514156237 -0.8628928170551654 1.8746453080599326
Ni 3.513819206834099 4.4918581559573045 9.238260281962344 -0.44652348602052133 -0.19349788148426675 0.18727889715774843
Ni 7.303362545193296 6.279859939488054 11.056852715026416 -0.41915332153768453 0.44875031846851104 0.022109173194213533
Ni 8.460748467742766 0.0035704631931411063 1.8165781631338656 -0.7438173163465319 0.6721856109421585 1.3975922859919867
Ni 4.824325855673601 0.3153115516500644 1.3530860519394512 0.5680173663626604 0.7205413765377269 -0.24569410387184784
Ni 6.263628092365077 6.017425463053044 0.5422559498495991 -1.2892467701063475 -0.6963238987512588 -1.3645407548536563
Ni 7.949866243152167 9.224360461509125 10.823204645441178 0.7061380566282033 -0.9640533851565913 1.7016144361807664
Ni -0.07940025742414478 4.888691964454618 5.89552637332616 1.384610786130654 -1.284005833422382 -1.064777637051547
Ni 7.491889157762168 6.321747701137811 2.5013828643319393 0.7040132969757166 -0.45794304071137265 1.729562841764576
P 8.738509501444478 1.513354946934616 3.362051888879195 -1.208461423227164 1.2724111866062473 -0.7595817782696402
P 2.0905587063957816 3.3244325689017664 1.6067011945946479 -0.8314618522393938 0.9343252619645392 -0.2877429534127819
P 4.790884448382872 1.1103923261103337 8.033863562466466 -0.3532922000685012 0.8954782071903546 -0.6517301713012841
P 8.586719551243167 1.7885630632416383 12.34180755767261 0.5124964504772206 0.2189127220129456 -1.036349463617841
P 6.613278193553437 8.018052675126656 1.4567000971493327 -0.9530752888785328 -0.19055268281301374 -0.4585907015977005
P 1.8883260054029338 3.6787901773427456 5.934519923305411 0.10283795580384869 -1.6697335283117694 -0.809336223984948
P 6.944125424427003 4.02736298360214 5.777099070198082 0.37371318692701444 -0.5880765990063808 -0.8040284386187895
P 2.3367884944035024 8.510439827953595 10.205325307447806 -0.06018284013748345 0.32632775566451544 -0.20291146148868278
