# total energy = -340870.4189506371 ev
CRYSTAL
PRIMVEC
9.25859700519195 0.00000000000000 0.00000000000000

0.00000000000000 9.25859700519195 0.00000000000000

0.00000000000000 0.00000000000000 13.55089259042534

PRIMCOORD
 96 1
Ni 6.025004320936927 6.7860332310480045 4.40349805698465 0.9558487378586119 -1.609449129599415 -0.3572406431932879
Ni 0.6563234349179896 0.5923307889818272 3.1048751842549547 0.09955054330182855 -1.1389853307132125 -0.23684308123912112
Ni 0.4596828675837058 2.107228936026262 9.026521155884426 0.9019021084388273 0.9004993145540299 0.5473256423412638
Ni 0.7745316481976975 1.440119235426077 11.964598083145741 0.9483138629341473 0.78872960347819 0.7026578113890867
Ni 4.484540409576402 6.366942830958246 10.070291883405444 1.5883977082457548 1.1868222476908334 0.722929160043613
Ni 6.772524937803092 3.6820885358068347 6.745580568371053 -0.7611138986434505 1.4437842111670167 -0.007356954585703459
Ni 1.404168102684477 8.103133486114142 6.259238496147594 0.020400160922906804 0.15947035958591246 -1.4583559383336044
Ni 7.1354897219568265 5.518633125494333 8.839003084324105 0.5511118488565735 0.7233899017301155 -0.26271532102019274
Ni 3.7475283004778706 7.913795174353719 6.971257022234035 -0.5014147387417622 0.0630835587240462 -0.2196370017734798
Ni 3.5189613125840036 5.172278264631463 2.426612577525352 1.3254952109154203 -0.39387114993212813 -0.035465539896461507
Ni 7.696801432899976 4.653037619147451 4.251145063267717 0.1206731842130567 -0.378276895038297 0.7909518079404895
Ni -0.09333869546945502 6.157365225823335 13.355001429444195 0.8483046348283454 -0.12353919290694207 -0.711296203790375
Ni 3.1232025773175347 6.590417590418458 4.820120115073658 1.7435074768701264 -0.3568284953565338 -1.547519224863838
Ni 2.0780736135943023 4.707709635330595 0.07751019777822667 -1.2890652502231605 0.24377066159688984 1.157881139176451
Ni 5.009752850223519 4.51280690668176 8.309448361612654 0.14701902119643712 -0.46425201364853597 1.0066341959415954
Ni 3.3734161653530084 0.28925894394530544 13.155761973889316 1.2176333195344191 0.668673484023842 -0.8368156603521395
Ni 3.2204456232060297 1.6152363419608766 3.9702216343384453 -1.7976433394825815 -0.5699163831575862 1.4737434765332684
Ni 6.526412908305997 5.514059378501195 11.293056292088847 0.30577615676540887 -0.15914048705031947 -0.0328548417464918
Ni 8.459200615389564 1.6674363127044103 4.685153840948651 -0.6958873254344725 0.004811819566346552 0.2820351043947272
Ni 6.337028303559813 8.092569426763598 6.458951991876659 0.9801276650106345 -1.1450299942453956 1.1290518736495847
Ni 5.490320335403214 2.471739905904397 11.970330080642608 -1.87208063265655 -0.3294310771801875 1.8453095352102928
Ni 6.999119844503562 7.057689730087739 0.1657205562851341 0.22836024057909057 -0.9377070339525787 0.8284845147786248
Ni 7.74520537881115 1.39152085897471 2.355050102557634 -0.38521630247060756 -0.2733033809486841 0.35151145401899464
Ni 6.327982654142214 1.2127928995505919 6.536720504515429 2.260202795920043 -1.027430049641024 -1.255804945508134
P 1.7540227132708397 7.323142969035567 13.539794695862652 0.9334639424055085 -0.12174533423131291 -1.2635840752329206
P 8.05062798166459 8.811656891775666 1.118434832534691 1.8669425400990365 0.3096716351650732 -0.674377990607787
P 4.673573187630805 7.169172498396161 2.7128615515365095 -1.5584595259254255 0.5573269765283498 0.1590777521331841
P 0.40017323438858987 7.439190225739976 3.3461357088443493 -0.23546394150340738 1.2239973140792342 -0.015026555315819283
P 7.903703303457932 3.535154599003025 8.671338222637031 -0.14530075295374975 -0.20101604423818284 0.6610139105960552
P 0.32392405754247905 3.652979506360636 12.44160286014131 0.5651184475483106 -0.7634350905774594 1.7004872645548585
P 6.277856609160749 1.293555642508351 4.187930139492329 0.7357106280789975 -1.2659407483905551 -0.848827340101035
P 2.5006174704217936 0.3136396078259276 5.571408980980727 2.5284701571067165 2.028224756082707 -1.005731481621668
Ni 1.6882959320880893 2.33086109163806 6.227881479312865 0.5282071763442581 -0.8015884617187291 -1.3686462923815979
Ni 0.4814220536968341 2.3373050752559204 1.0140932202096815 0.029581056091226472 1.2926881916877284 -0.567112595160204
Ni 7.352076085135877 3.2428421697169574 11.013108719299408 -0.5409022553134233 -2.2300779515102045 -1.0776259537691248
Ni 0.9847351345000909 9.412104692880739 0.3206789192406684 -0.7289859077606542 -1.6068443449867165 0.7940309610864453
Ni 2.6787713968224813 2.4554910679024635 12.765171387553147 -0.0695506545056286 0.2968937666741145 0.6286398651407238
Ni 2.2624493172812006 0.7977725787688962 7.864301491557744 0.8680216536412986 0.3983744371191204 -0.26584332512621317
Ni 5.027214564452377 0.1804130241057999 8.462966086851322 1.2051876375718986 -1.0356917754291841 0.3882926274030861
Ni 2.756413992539983 4.05647842884626 4.508476660793724 -0.04160044914960578 -0.6803930864536153 0.1946808460487744
Ni 6.232563551892682 0.011214012870622233 13.729086714637315 -2.026714747196084 1.017897941780873 -0.020572681945029085
Ni 4.844107288575317 0.3792617668608592 2.7002865248845294 0.34217577844036556 0.4022889416821781 -1.4342140509800783
Ni 1.294972207872622 6.4570567570396245 10.485139068420397 -0.36676709462648444 1.0138127159679056 0.07226471100268199
Ni 2.015254031917311 4.265806051858064 11.240898910892215 1.1581853006804312 -0.6876615950905706 -0.4124766808484574
Ni 2.019938882076273 5.8942173775663775 6.552574926278684 -0.3449913935122897 -1.4533188901303293 1.4703444781540485
Ni 2.0380209223143226 6.758035233260057 2.0213869266708615 -1.0360501872098673 0.5792687709067637 -0.6194993362920362
Ni 8.979024552494158 4.574904317780888 10.645947013056627 0.7313497800071405 1.9901462040434308 -1.6009624322846427
Ni 5.310583188889517 2.2085920576474414 9.666285589795887 -0.3829146509206244 0.6500450702893773 0.16578935982540483
Ni 0.566616887111303 3.3021249672818467 3.2294894209042 -0.8656595811670252 -0.5909845166817951 -0.38015662855951304
Ni 4.751669454608761 2.988082610479803 2.923862203053699 0.2823243535003718 -0.05664063131217987 -2.0928630608883827
Ni 5.149983562689209 5.797474295924095 6.24693474639217 -0.17800081428993217 -0.7302393205517811 1.1091430505407995
Ni 2.65525456005615 8.421629228146346 3.538788598385224 -0.2799327133397437 0.9072818846935019 -0.14383496704150067
Ni 4.289637680927568 7.739594668936978 0.5410057556691669 -0.09994417919582141 -1.9069949280352316 1.1020452631537536
Ni 8.760512401107471 2.4361498584517287 6.880370929150171 -0.017941672080085232 0.23370942070614587 -0.0404550226912529
Ni 0.6289133580492006 8.948008252034628 9.268891786272356 -0.5739237045447665 -0.5861906948375776 0.42299532099159404
Ni 4.736966802331228 8.679897795704147 4.838671566187319 -0.5146800883921007 1.0205760028336681 0.1960882679192623
P 5.6391800604146605 5.328563384558893 13.278493011877824 -0.39927355189462205 0.7858078018457048 0.2807726927425358
P 2.3757282534371313 3.3057080443797093 2.226967595415212 1.1770721102826052 -0.5574753291807562 -1.0931908980869172
P 8.623077784981716 0.21500314306604154 6.745472242784373 -0.892334005134418 0.21993422129892445 0.05163752167063365
P 0.43742427417034474 3.73570507191464 5.232961887945465 -0.7894078604921372 0.3747989637920255 1.9414687934423853
P 7.715559350730128 5.855377562513323 6.1997362698302 -1.1249964726332882 0.4691054850860953 0.05879187332722778
P 4.8815120210697955 4.668675389737345 4.300998905492908 0.4079502537330136 0.8951763596792196 0.02416477017166161
P 4.586403495443794 4.190107761542504 10.687981969986872 -0.09113969353031401 0.2474095439010578 -0.4297735202556921
P 2.0895264982714488 3.342825760362474 8.827702040640252 1.2300846579238944 -0.41790042296718993 -0.7649106466817213
Ni 2.835019482361303 5.237171772070525 9.232372175665617 -0.9637872759793983 -0.055579022816884927 -1.7586389331949261
Ni 2.626025168846974 1.009724088213606 1.811483418916196 0.4107319302432087 1.075201146377716 -0.9424507192851511
Ni 8.314312828556368 5.859942050909308 2.189892468979347 0.6456510549867398 1.2041324568345069 -0.06257165208463417
Ni 8.22787456554437 8.357087547399065 4.832858093035516 0.03672178090106579 -0.3204550989338223 -0.3136676436983437
Ni 9.03518720281879 7.320754250970326 7.336656817438771 -4.230440948185636 -1.5990225349494525 0.778328462749524
Ni 0.5068396804584914 4.711468625774347 8.01565085334339 -0.37490386480100596 -0.297726546988055 0.45261288674771083
Ni 7.627908211491208 1.288398603894632 8.690919229754005 -1.817818528878876 -1.1215324253440877 -0.14136619378603396
Ni 5.066748774291839 2.6279602156517625 5.14471819848881 -0.9520316781053669 1.5005888788608865 2.230250472532327
Ni 6.493443043847374 2.656513729268836 0.7578189544784437 -0.9565529630144881 -0.04408567746530472 1.4818229111072931
Ni 6.604870260572884 8.092726822915184 2.6274232170169407 1.6070713733958584 0.3494573997034433 -0.7812227535781835
Ni 7.257388412061362 8.006807041343706 8.982832613502817 -0.07127612183716757 0.07596787088588207 0.8321035995884507
Ni 2.075629343946148 8.47475505860509 11.60100093680652 -0.13635177129057807 -0.024838142089602385 0.22164657600434085
Ni 5.6186815263199135 7.6686367803632915 11.974585331893712 -1.448443564315899 -0.06306530389160107 -0.5497720469992274
Ni 3.1384237110355855 8.492077893876667 9.380483806027174 -0.3651462711936099 -1.234418509412558 1.1362044255339658
Ni 0.9753376583907104 5.546612606087975 4.134052510944836 -0.1352513391375477 0.761300817843276 0.09772634560889622
Ni 3.664487942620695 5.820842995135994 12.247988002356333 0.4908053386570321 0.30649632276088506 0.34414704323412343
Ni 6.608879233139742 0.2843352219798192 11.114903291547876 0.9792239222494427 0.5893109856341141 -0.6932997672129544
Ni 8.820887713136308 8.433091371420645 12.148700658216653 -0.8939761687235313 -0.3109980672859805 -0.5176962495106051
Ni 4.261760044902598 3.7432045356078403 0.3101213409081299 0.46180715165246916 0.9020265498318336 0.653385704626836
Ni 3.3631113467227225 3.668015468135645 6.838431335770593 0.7973559116946204 0.4028322157801578 1.0667167630557888
Ni 7.61869590732487 4.2498997819507585 13.311326774958312 1.1124222355127036 1.0048030562701276 -0.18753035104692217
Ni 7.797905313800897 1.4835698318608774 12.94944987596995 1.889603729141978 0.23457331136833795 -0.9411839367575854
Ni 6.06736240290778 4.869290672829025 1.9382521311227348 -0.06723229078509711 0.7469712885944814 0.17343787750959808
Ni 2.6053136870177283 1.7853445474363903 10.420921438573439 0.5668482857552237 -0.7132692683563459 -0.6880768282511182
P 4.6861926555491165 1.7016097947928075 0.8421499607786217 -1.7518730752260026 -1.6382940788555655 -0.07348624211460893
P 5.314342179333269 7.098122023850955 8.269608618067172 0.48225976307986623 -0.28810573606883927 -0.29033822494378386
P 4.483938600761515 0.5241069641471559 11.039383692157351 -1.0458820856986246 -0.49457329033989667 -0.2742909416729341
P 4.7891760316719125 2.0338267778044217 7.571439101600842 -1.4805790113978632 2.7403573397314482 -0.31047099113791693
P 8.334950241608396 6.681966599058412 10.74541119640191 -0.23374155949566194 0.9684646268504093 -0.5213073639006313
P 7.963856409155118 3.7059849750564022 2.184214171345965 -0.2583174490628132 -0.5063599985621795 -0.8768346239472383
P 1.5721746066064646 7.17736635687577 8.343501481938075 1.9529605961320688 -1.1545813853792568 0.9176426591025357
P 8.659825157078396 1.0771359340780382 10.57663437719687 -2.4749690998647824 -1.4917509688542827 0.3595253254624066
