# total energy = -340885.57952444575 ev
CRYSTAL
PRIMVEC
9.07750273902399 0.00000000000000 0.00000000000000
0.00000000000000 9.07750273902399 0.00000000000000
0.00000000000000 0.00000000000000 13.28584282659619
PRIMCOORD
 96 1
Ni 0.27021819134430447 2.655523549785893 2.805837008533443 -0.5094304099573872 1.3957896855656091 -0.32725849500890086
Ni 2.853104472618882 6.055674642528236 6.440232149590267 -0.022936811301831464 -2.743899805667068 -0.18755503363727052
Ni 2.0919558748266316 8.53864394430658 1.751180070829738 1.4174836255992749 1.0069720388969885 -0.781307599982506
Ni 5.275944396797038 2.474309364243535 8.707209537646628 0.5713623715754934 -0.41097952747764055 -1.130588107788453
Ni 7.3554005504649345 7.89943343970626 7.355228077914451 -1.7778185914471702 0.9014323678912604 -2.410198897466933
Ni 2.337493244196728 8.413546880190005 6.3683029262862005 0.8741385651723139 0.7885861359217903 -0.5938142728211064
Ni 1.0965078559536923 4.312213172207773 9.58885744445967 0.28227267432683 0.5761351103737884 0.5251707035107794
Ni 2.849019596423217 3.3867526988205614 3.1792618663368892 -0.4061648796978166 0.6708452948641801 -0.593723512879513
Ni 7.05621514039177 4.104683306462675 8.994927338613163 -0.9913731560174669 -0.011036717430135831 -1.9295072502051351
Ni 8.317761072152988 5.736582269128197 12.92134574014675 0.38880479115281424 1.881400110285263 0.8586751794293922
Ni 5.058338503102633 7.526266382978274 3.227091227836798 1.1213992422003334 0.8982915082694336 -0.9224333956229597
Ni 5.835163947983581 0.059582911940235815 0.9592487537772215 -0.20038869506682908 -1.0531963599718506 0.5760515495210465
Ni 3.722166421997945 1.5546312600488537 1.8010291766708368 0.9029495758667352 -0.030927799927108025 0.05462874308847366
Ni 0.6590366781535474 8.496097689353066 12.69346683669538 0.3768103377950994 -0.40759801259991735 0.33489467139792
Ni 6.002607561995219 6.342823284078173 1.0572086237005975 -0.01638666888813952 0.9621541112513493 -0.6843991222892148
Ni 4.604572300282848 7.304493915564291 7.206160960281712 1.0690739504340554 1.8095953696381348 0.04021436743535655
Ni 5.91949394766742 8.956790026700167 5.165735344788262 0.41043111117333825 0.09565017980615785 1.372321684350656
Ni 6.63863186316292 3.9140557506649745 -0.08257713392076711 1.085540323520195 -0.20054501813903527 -0.16509207664806405
Ni 3.0127323568428146 5.593430052226781 10.76911887867848 -0.08049686910448717 -0.3794542031758497 -0.6457770390416427
Ni 0.3716120805228361 2.938405765087025 7.646002274025608 -0.2473702060226901 -0.7676871809855941 -0.8887298327229275
Ni 7.835273650926347 4.536527340365725 6.51468673413352 0.6097137176601822 0.5648037445213692 -0.6022289792473627
Ni 5.102791033614126 2.62854521188919 4.195323985993686 0.39690710854497446 -0.2049441756479954 -0.8654459224943224
Ni 0.5830243941543468 6.940304508964112 6.404799025718803 -1.595394451278562 -0.6486672161052441 0.5865820167387253
Ni 1.6160496430263416 2.1475737336062752 5.056392286532965 1.070952398403691 -0.7918246974637461 0.15662234861415608
P 7.823954005113027 7.848009387154166 0.45880512454470473 0.8807645551292638 0.43215873265841703 0.8637351104508028
P 1.4083200722227895 5.285112674480642 2.8538923998495123 -1.7563722486479365 -1.072670152425746 -0.05572866102087177
P 8.238913884073995 8.073058833027337 9.18544596437898 -2.3396015468643445 1.0141958103389372 3.6646218750258757
P 4.139150584051432 7.074960183378544 9.35921205899124 0.3276287338641261 1.509189218935388 1.3524678828495222
P 1.124738889217066 4.940594216138253 7.526549601061173 -0.15645162736424667 1.5237018107292661 -1.0417204981217671
P 5.5459184033198685 0.37507424003622863 12.097330897703214 0.5612281113549689 0.427088003003729 -1.9930674914552833
P 3.8969537356591237 3.7416558202025962 9.78110351898112 -2.287513310809538 -1.299225478585614 0.43688082072443474
P 8.052107956894906 8.016033961335854 5.079682435100116 -0.7940993524305356 1.133277224584842 1.4142023837448419
Ni 7.16658849519864 3.8357078252321193 3.9314400760034593 -0.023325304989501763 -0.2397502275835871 0.3800702394932938
Ni 2.1782829250950195 6.831546949630194 8.58729118879589 -0.026303413781219216 -1.6933853634027547 -0.08076812048800283
Ni 1.7700676306082272 1.908590321154557 9.542689265945997 -0.05906132493853055 -0.13335849299020905 0.8545814689759927
Ni 6.890233004307915 2.149688791725364 10.874037562138737 -0.5768128531671034 -0.28084879739610985 0.12950775178555116
Ni 7.758123955844222 7.66057711229174 2.726520513567083 -1.9537229282193904 1.1204217087784125 -1.0826565742144967
Ni 8.386913487394269 6.1301101643159095 8.497638141553963 1.2931322212036827 -2.6455934191849857 -1.5782616482530174
Ni 5.399171495366267 4.044118208734949 1.9424430518134315 -2.137765320717712 1.0926512235333634 0.19713702089875082
Ni 4.9559987381472395 2.294910679232584 12.954772735931009 -0.046472432529926416 0.30305901494456194 0.5360233299545671
Ni 4.299740683557009 1.7497521796617868 6.322148364026513 -0.6830449222541657 -1.7976916762220136 0.4419235253546647
Ni 7.692448224120585 1.184260074139234 8.617490224635308 -0.22013836688993055 -0.9028469888505999 -1.292837058560767
Ni 0.5998704235852693 6.895643195891507 1.5178946067958397 -0.43886622658557967 -1.2519891713064697 -0.3086992439494748
Ni 0.0944759244036065 0.8008218231548148 6.2442797307339495 -1.0278162293358493 -1.2407205403711858 0.5583479615936965
Ni 0.6895416258325081 3.0113798089469164 11.754795873691387 -3.199386157307832 -1.9775526836491362 -0.2566729714808548
Ni 4.37228808479202 1.609622771145162 10.666033850754943 -1.0804544243568555 0.19967007173324966 1.2149310901119075
Ni 1.1165328268151078 4.318322331495957 0.7190643877239778 0.1364697849256811 0.602961229427697 0.3452654731092828
Ni 4.6037825575516855 5.2435014023008 4.178464340308778 -1.6820876790017483 -0.7934532342061045 0.0990131827411198
Ni 4.28838472773306 5.236956522885079 12.835200239931503 0.9907820594006871 -0.11220705572357449 0.765793563507307
Ni 6.5818520840431765 2.1815599035542084 1.9454722144500838 0.6171043536972984 -0.06696566738727178 -1.0619607364280421
Ni 6.126933038385947 6.503531391118292 5.4438210076854165 0.8681342679597629 -0.023791960213275155 -0.060380557970586335
Ni 0.43283075844186936 6.684536794099538 10.448212820247566 0.26363217640750725 0.32850316604927937 1.4217508855160612
Ni 0.6737358782060816 8.618190100090166 3.9366614555317847 0.8715924017116925 0.41919471629858124 -0.18687986194711687
Ni 6.5248725998649775 6.499609909970454 9.791758691599945 -1.359433515534078 -0.49465530853074163 0.2259194923480819
Ni 2.97516965084801 3.0538262113712045 7.741155380127428 -0.6044342144287977 1.480890886211327 0.09679174960976877
Ni 1.9204273846193285 6.6606266521009125 4.4993831072434105 -1.6185631760855417 -0.4294433906097829 -0.671596828318224
P 4.111781913540476 7.712772752569682 0.9187440291712728 0.1822192232466539 -1.0684376024016373 1.2607862007728092
P 6.371952990104593 5.704938094865779 3.11784166785887 1.1608075687946267 0.19392082795429827 0.3122921035070557
P 1.7769756101302299 1.2221223377217203 2.8730105281954903 1.1580035236869282 -0.09317703567531695 0.7433084950309135
P 1.1442010549137456 5.119920281127948 11.885554576215156 -0.3276374756148745 0.7507783210453973 -0.40115277119520587
P 5.693464131507289 0.5630239325501052 7.468862071675726 0.36105358918147495 -0.49746860960982064 0.5115811377518028
P 3.395566953900541 3.4800421936268933 5.370098069856319 -0.780365804894527 1.0013341238849207 -1.0780280743035497
P 2.0432459955689906 1.0506483125303594 11.657064756834968 -2.048125608771692 1.1517115200306294 -1.2733748360710972
P 5.6954521045891795 0.6187561678632273 3.1503654521287547 -1.3004346684023669 0.7026423847701189 -0.2618588865571684
Ni 3.422808539374298 0.06734054571093656 12.749054739716255 1.1057378815139924 0.763342530863653 1.5468047152953166
Ni 0.6150679785336747 4.223689366296384 4.623035032936988 0.3350229694456682 0.9085108720045966 0.6746075901200898
Ni 4.497421458919226 7.388469892644507 11.569072892579282 1.9855426438331483 -0.2279583771549816 -0.4217627341360736
Ni 5.895574728166138 8.887682998972172 9.548150291544466 -0.14222802756569697 -0.3487696296077994 0.2629487771872374
Ni 2.386148658438427 8.064771073101467 10.677645792153818 -0.4425529314085475 0.9111804484169597 0.5158597105224987
Ni 7.143921971064028 7.939537846445035 11.639726726760037 0.2851055157899348 -0.2334489679559076 -0.11743796510521064
Ni 3.6894601799246542 0.6062954799659177 4.294329584223152 -0.7618770020617202 -0.8026474991108629 -0.7812191540337577
Ni 1.56039547423607 1.9074465558197709 0.6086302136493067 0.2686455704616986 -0.08657829941187668 -0.738696964400831
Ni 8.033163208849675 4.5727556534699465 10.99566883574086 0.07351246736685403 -0.021038565837854087 -0.2695742529235551
Ni 9.0547907453855 0.5129987231574598 10.6634966887623 -0.2440192872725862 0.4102835298518805 -0.030029456482554735
Ni 4.159774670088211 5.158436124901741 8.253417917819403 0.6931593849803481 0.6593745752204192 0.8474929375603275
Ni 7.742819286364463 1.0941840152734916 3.617775141442061 0.2430281270039105 -0.7818246488282407 2.284795654768059
Ni 5.143403780501693 4.040060565047255 6.399152819066128 0.7300495731384782 1.154321961070283 -0.0601391313837416
Ni 6.690019605704387 2.354894816790261 6.5135175517912955 0.37928785280131455 -0.9572515317434094 0.3621951589850859
Ni 0.9436699437172208 8.653583282949938 8.568557946562569 1.3212942854601955 1.9537956904388545 -1.2941313518921584
Ni 8.05839866623623 4.913089383087442 1.8871075033664217 0.1200005836260643 -0.38917503000803944 0.4169097769191465
Ni 3.5031716703970144 0.29328412559582634 8.962403554343277 0.3495964963844689 -0.9526402582236433 -2.0615691358711072
Ni 2.5470292380290296 6.769711001530482 13.098924385874966 -1.515869716279357 -0.11205330375452958 -0.33528085109274514
Ni 7.656374228561534 0.9720280620177932 12.813185480487666 0.11053095357273222 -0.05961025546346507 0.4415265470265622
Ni 8.979075295723185 0.4753125631265199 1.6424751610112316 -0.7167217456813205 -0.0863301879568126 -0.4833141724863096
Ni 8.421616780052107 6.17310121689962 4.230663611587782 0.4135542301833523 -1.9706595560737286 0.3381545730961144
Ni 3.0386123169180164 6.5549009786544445 2.5221042312333477 1.0379985691854898 -0.6505153250575765 -1.400096540471079
Ni 2.795898050874258 3.4181971680245247 12.021974009395851 1.867719784584693 -0.43475194730688993 -2.182298627243396
Ni 5.5621399005679875 4.1551723762410955 10.924802587997931 -0.2571008030468927 -0.8262530543449448 0.12340858086634875
P 6.237578718272528 5.709195443611928 7.5106467241563175 0.6031193522721161 -0.0017802318288743532 0.14106640315742802
P 8.390626185980995 2.629434807149579 0.7471238561871338 0.7251207683782931 0.6339324809982307 -0.18515336617431336
P 6.26970400017577 5.790656952456145 12.035140019249612 0.612940452127596 0.9090538889922601 -0.18980089224865376
P 8.557815629918235 2.731792727110288 9.697177468165517 1.9279100809213445 0.1716234500086786 1.0549038295812607
P 8.348406721123132 2.5787369548100476 5.2826771805177595 1.3873143011047462 0.27105366568255895 -0.34055521211780704
P 3.7987079244020507 7.48772330669651 4.920464853996282 0.7046025938202833 -0.05665657215177985 1.0100298518867055
P 3.285647474226524 3.7180906233049376 0.6732348000594134 1.4701454747693647 -1.3230634615454762 3.330333983974019
P 2.0785030158889084 1.1789769675928405 7.305087584238061 -0.5449118906934487 0.4035215285376985 0.6216305237024262
