# total energy = -340866.423988051 ev
CRYSTAL
PRIMVEC
9.29112333208302 0.00000000000000 0.00000000000000
0.00000000000000 9.29112333208302 0.00000000000000
0.00000000000000 0.00000000000000 13.59849815764217
PRIMCOORD
 96 1
Ni 1.6260951880802852 5.427920529279854 5.2568932530073615 -0.5359593094858511 0.7527565278176906 1.3536382490085397
Ni 2.393588405908209 5.010108017779293 9.516174469448528 -0.5016862472355941 -0.34698425557260243 -1.2272155639062152
Ni 8.162697555066728 1.5480776280040054 13.022370212543166 -0.9105584985622448 0.024186881658848667 2.5361179034599615
Ni 0.06585919648025491 2.5550030862946813 1.4750289605237477 0.6325361148713364 0.0890820396703369 -0.09248438048366653
Ni 8.880576175918668 6.664569004467757 5.851623612780936 0.947985275950135 1.5274260536583888 0.7115219466479359
Ni 9.055973996464102 5.135491723058487 1.3738291193772851 -0.2425301043215694 -1.318241871787117 1.0122386866125663
Ni 1.8042245987963068 5.213546447626883 13.617671976383038 -0.17976253417604524 -0.09558487378586118 0.3915322173863063
Ni 2.418572235733756 7.436568416964848 10.06806903560823 -1.1358233880454631 0.5466077903386328 -1.4677486924024141
Ni 7.95016311577354 8.821094406285663 0.8103903328537884 0.3864239496254635 0.7475207333400482 0.11240888732173544
Ni 8.330959793125727 7.412467243827076 8.76999787518652 -0.768636946493373 -0.2739662113436636 -2.94878973103836
Ni -0.25371641300785974 1.3663432615526503 11.092090160272654 2.2392215656826853 -1.6436543147262144 -1.537264122794733
Ni 6.365599247633826 8.178157983787333 9.725264689434786 -1.5505150742673686 1.2599652475334109 1.6791777044438048
Ni 4.330295127978027 3.6858628346719944 6.238229100250986 0.026835889245921524 0.2028186446645604 -0.141224268891531
Ni 0.6582351856782274 0.8295941550428634 3.3689872255361686 0.4463411948063861 -0.8021011396890895 -0.4153933402746201
Ni 0.14357665328269106 6.242036602468356 10.112033700670152 1.7629972101636218 -1.8650568930405493 1.8685150267924786
Ni 3.6615665479506094 1.2384230796864817 7.308988290201549 0.0950940501923717 -0.06848261825243045 0.45256557844954315
Ni 7.816296615168677 2.507283878416657 8.721328185422609 -1.7865819394620974 3.0269276129923672 -1.5585903950763351
Ni 4.947736708884203 5.820888577800307 8.12934521072877 -0.04423788677245284 0.17137842387740806 -0.914673806282199
Ni 2.142347148075331 0.9210346005594433 10.674548949564544 0.4894583377108344 -1.0815358303464924 -0.05921044892188512
Ni 5.783259529532005 8.559289141568573 5.3963056249483605 1.7229237391815038 0.07225854035509492 -0.16865562562960631
Ni 1.2817661686177482 6.5498143439339795 7.824820291435675 -0.3855921977527876 -1.2159567031629446 -0.6097628257305627
Ni 6.726029783305984 3.283891687936236 11.788769225708844 -1.5602359010995581 -0.26948632119543914 0.644531853780632
Ni 5.22476083312314 0.582970585355503 2.9262475600605375 -0.051210718545860186 1.2281997821963557 -0.7917956439980234
Ni 7.442198837520549 5.320793880753059 7.3488453497722555 0.3822657044827159 -0.6315269568805317 -0.6823576663791538
P 5.208826557128044 6.352182865979646 10.200790869855895 -1.7548005332854424 0.8156431400395823 1.4764207662551154
P 1.2708676813044844 4.352064229235467 2.668569412193023 1.0573970283167595 -0.7128041557944691 -0.004233578465373354
P 7.074930035298893 1.39117843340973 10.421888937245106 -0.6954636076334926 0.30363108539794803 0.8617705305252642
P 0.44945714742574955 8.620331819870486 9.944309418634543 1.2165380295877113 0.3026234700690401 0.342478654392765
P 8.158451511842378 0.9397970944046308 4.777233451950557 0.39905552234654496 1.6239342105894679 0.14343078962454653
P 6.524691147262995 7.895076047333352 7.657749175349019 -1.2997913783914132 -1.080374205938223 -1.2050567684209892
P 8.487013495524346 4.68832855390865 5.314347699595392 -0.5501093757339881 -0.5832706929773052 -0.6728767234719122
P 3.9951829025604666 9.17637765979964 9.445870399711099 -1.3692456165284934 -0.3636702008687156 -1.1832234745959818
Ni 3.612788152047255 6.684182565182421 3.7654645312247546 0.770696400125563 -1.5051312468159304 -1.4139275328169005
Ni 8.912825663953058 6.765795789871004 13.494197596886345 0.4886499828769261 1.0214488923569247 -0.27928325268120285
Ni 3.634306392982906 8.790638104995912 4.501238784143258 -0.589186801351424 0.44900408635052996 -0.41890906673736245
Ni 4.135088633134317 8.13736066256607 11.36513489651818 1.299511642367465 0.09203392320980923 0.511037863653823
Ni 6.8948123242546195 5.102545400796907 0.012805954871160678 0.2888076472318703 -0.6174874480683301 0.9190328545818431
Ni 0.8541589552197927 2.27049960801723 9.027036793789625 -0.359438165065239 1.0602116149474192 1.5813248605593735
Ni 5.976886533460751 6.858205299519531 12.25164832946259 0.04437981166695582 -1.5009583463851632 -0.07138693638341899
Ni 2.5188420354649947 8.990174263171234 2.0416917667383805 0.06510238892628788 1.025150252467912 -0.19948289542310804
Ni 2.7699067619603177 6.787945827172642 1.5315580112580693 -0.714049598165796 -0.5754172583711574 0.9426070423573573
Ni 7.189712569201758 4.5415845567853 3.1160141023706456 0.1817029457318677 -0.7788838210323619 -0.5145224797683139
Ni 9.020333248524052 2.7543998776245657 6.312667719736414 0.04218228979500477 -0.36163363005466104 1.0066753335921759
Ni 2.8900874383431536 5.575370651753424 11.652484245779478 0.22766141473985307 0.4647551785371996 -0.9018995373356662
Ni 4.488810977979385 4.607068391895175 13.015665738165287 1.4426922636544186 0.6869612265894363 -1.0410085596564072
Ni 9.14777958311573 4.06409516206812 12.956199763441433 -0.97300853746735 -1.402883102077281 -0.1007309367631749
Ni 5.218693729785066 1.5699210582456793 9.440620915199593 0.5117855404531251 0.9886398162467039 -0.2019357278389748
Ni 4.30190145600076 8.09796630092222 7.128006504715559 -0.12044872690707643 0.9879900984778469 2.299032110082415
Ni 1.9896382499672294 2.566774939172691 13.206697731431973 -1.8994680235305674 1.744354912472086 -1.2748503921753593
Ni 8.226546152523461 8.304127029817368 4.0172548944286595 -0.4225587476748077 -0.3260847864157739 -0.5771239566496189
Ni 2.52477906308066 2.371261837269017 1.781947273109169 -0.9762586689735315 -1.417081762175166 1.785767413980602
Ni 8.567892721493621 3.5803063859371353 10.589911464329953 1.7844821195102751 2.0218576762140987 -0.3396645819827376
Ni 6.836417616016033 6.271600955947304 4.700986779923646 0.4655591624957337 0.4125430153100186 -0.6839792611429769
Ni 5.5882946038870545 7.795242930384487 1.0029451411849621 -1.3937207188517224 0.9027428591725679 -0.8192118312274471
Ni 1.0577107367683398 9.094978130940728 5.677345372560523 -1.2284473794307877 1.7238529358639922 -0.06741098245480649
Ni 7.379762490764256 1.59614989855714 2.6119316553192595 1.0537123803763206 -0.9992705564876727 1.5658007967818455
P 1.3446206159103564 3.7580084049938134 11.468075894120316 1.8338398440077965 0.4604341825643425 -1.1430661856508058
P 3.702921336553625 6.934253141513618 13.32085683097958 0.6970651477926576 0.008827368483642862 -1.238465940009054
P 9.335999153441472 4.367831265016037 8.501168521459347 -0.502194040109948 0.7890887865898216 0.43889553716161833
P 8.16595873924998 5.562530319727055 11.792208799454258 -1.4171290704733337 0.7824555975440202 -0.5289301705532117
P 2.5883024712313714 7.694898801669014 5.963621597111946 -1.1959676616355275 -1.7326869892158547 0.6942829570618301
P 5.688062682974716 3.728713494082713 7.920132347918527 0.9005306820125973 -0.7371157359566402 1.1940362489407694
P 1.545178797618892 1.8358701638337973 7.228743647935167 1.4152696486670915 -1.545517878163093 -2.0897702808956717
P 7.253607622273638 3.0943249047712564 1.1305169059375353 -0.10909499245715405 1.327921560968726 -1.0714234245028387
Ni 1.476062133404596 7.640257707134228 3.8939570462695223 0.9456311738956615 1.050249618638701 0.3658278706416668
Ni 4.863168907072331 4.2478457022168135 10.075507508705416 -0.3026075292294402 -0.665152615354777 0.3154162509583342
Ni 5.261042668552206 2.8749614900515996 2.731639413539909 -0.4220427272703377 1.3626301680945048 0.17624706482361904
Ni 8.251864462778059 8.085785638630924 11.580181655478466 0.4300157181734852 -0.06455782927672753 -0.7636749745024073
Ni 3.829392103227237 2.488748087973382 11.539222668716494 0.23883568618911774 0.4469610877785722 -0.8223436919882094
Ni 9.281144363077015 6.171442649692415 3.3987541254971525 -1.4540213155139927 -2.2003976508369525 0.813478785398412
Ni 6.232726897193088 1.7952029183349434 7.02291739946907 -0.2285456171170193 -0.4237442833424767 0.6525714362556567
Ni 1.809093147263613 8.838087870306088 7.890732447317196 0.5214117506889795 0.8810206370041278 1.1867826527021497
Ni 4.705814447449623 1.3730793257488279 5.253956329017828 0.029048323516208036 1.5774260397255995 -0.8511503318072567
Ni 3.565672867166129 4.270460295669912 1.4193704880172628 -2.294925801223525 0.5657175145848902 1.2273554319181894
Ni 0.011311942288063648 2.987699976888038 3.961867722714627 -0.3933800692283225 1.3046646473233143 -0.341986802358011
Ni 4.7877435703212 6.362588923772361 5.6572059342824055 -0.7978508490531678 -1.43152621973527 1.3702776573374336
Ni 7.928013078471902 8.842965709896424 6.499388631917546 1.4130199334009665 0.8224938444128286 -0.668211456785759
Ni 5.931341448371561 1.3588267430220191 0.7671540918373579 -0.8032774193853778 -0.4699207818985391 -1.6905088131859078
Ni 8.210017244654496 0.41265222177013844 8.733716968869757 0.533317758097946 -1.0029716594883435 0.25074503603219395
Ni 6.949509165527581 2.7523186660660226 5.052616763862536 -0.6299835236528118 0.51185161780437 -1.1154085718345372
Ni 2.0703781090910676 2.57972676467541 5.206715613975808 -0.10138399696614152 -1.6567335165076758 0.4098065902154619
Ni 3.255906825372255 2.8409931442568066 9.048127643065934 -0.7441338191456862 -0.24302427034916854 -0.4197868413566254
Ni 6.9465638795273215 5.347338619247513 9.636330988911489 1.9879188573748083 -0.4250303491437518 0.859836803837661
Ni 7.4416320790157675 6.943971656202171 2.0189824038303845 0.1357123379343663 -1.1373130852171123 1.0418485390591994
Ni 1.7852242522015715 7.830158970728259 12.334503777300181 -0.4658227005697655 0.27138045289435847 0.8783950264558228
Ni 3.1135761116877805 4.234522231792926 4.156748099140012 0.34790805293845245 -0.483761030215741 -2.59719497327694
Ni 5.183220222059541 5.5533135256820785 1.8544403314322802 1.752440774804014 1.2395105792234848 0.9253983917885547
Ni 3.2465227911127523 0.4579678161205063 13.098141179070982 0.662497180009801 0.0266440849500896 0.6937317125440504
P 3.2988318137672064 1.321467137321564 3.401664105229901 -0.9044233321987843 0.9128107849315313 1.547953227077463
P 2.980294951833758 5.22534617387398 7.179136483857607 -0.20632460093528984 -0.16559884108115352 0.18239457248225363
P 5.728525523766927 8.015795608851882 3.260240205153078 0.9625652306468391 -3.949475422706005 0.3532387211227465
P 4.019209746714005 2.6077487917315088 13.67342521834442 2.59373683952501 -1.1752340286326017 0.6045954225970104
P 5.113936317630719 4.754843703674767 4.096874244115174 1.5314881395429045 0.2229598954991257 -0.3881854124012605
P 6.512547649463817 8.853892070578777 12.642877079751978 -0.17559580439286535 1.7206223447418367 1.313467590326925
P 1.0958879612953651 0.7232312368290686 13.092035053016184 -1.579498605983912 -1.8739310556017277 -0.5123702093120014
P 0.5634805965771282 7.712616973285718 1.9150760585455129 -0.6767223224702474 0.6590449597951423 -0.8658470145874829
