# total energy = -381170.40840962675 ev
CRYSTAL
PRIMVEC
9.15917913041205 0.00000000000000 0.00000000000000

0.00000000000000 9.15917913041205 0.00000000000000

0.00000000000000 0.00000000000000 13.40538448136954

PRIMCOORD
 96 1
Ni 1.9279247558209613 1.8284285938830014 12.03424168018233 0.6039194795759083 -1.0770793372370353 -0.7863685594451811
Ni 4.25646284377894 6.505801510556993 0.7829458588232419 -1.7202798738007532 1.903604157186128 0.5717020143030993
Ni 6.266508798894363 7.977278578798258 7.506760560373577 2.2864208490763076 1.5493801893319765 -0.09491895806708815
Ni 6.098126451378258 7.747190842073276 12.52506651446199 -0.1404915044905645 -2.3662420322700086 -1.486531629436872
Ni 3.2609241961196687 5.017673054816583 7.3860718899672335 -0.27533429533578385 1.6914986879030032 -1.4771625295171462
Ni 4.819450101980227 4.856251683372726 2.367538788238567 0.5306402112657829 -1.173574895762624 -0.16726671570187968
Ni 0.48186440942244924 6.274724582495427 3.199905745338974 1.3744096772279362 0.11596215189063254 0.148684324714002
Ni 7.0933078910548755 2.9562257869150192 9.34427689170248 -0.3552976605343042 1.602926240879233 0.4868499535537099
Ni 1.7398043774684107 7.389103578230279 7.4195450256957125 -0.24924274045505462 -0.4214385180274355 0.42445416492530774
Ni 7.517533586763287 2.2636453044423344 4.162237789379901 -1.178847457015473 1.2847532531113681 0.43895210143116664
Ni 5.791541251290868 1.3773115485060028 6.130080995221501 0.5287877314380763 0.5220802375109138 -0.31045145075389113
Ni 8.571654343577967 4.620934055414514 10.043957569768859 -0.4289122006966613 0.8573366631236267 0.23136534595400154
Ni 0.3096654319993616 8.626197254775661 2.250294885070083 0.149114213162569 -0.9561865808140049 -0.8455720663885309
Ni 7.655388390530961 0.5982784909696889 2.8807101875459598 -1.9314923989559636 -0.3363198338802208 -0.5710165582003005
Ni 1.7825136293432802 3.519515298024706 6.336791759276481 -1.6239221264046095 -0.049413003215489096 -0.756598013050968
Ni 1.8948967561939445 6.62433044654513 13.261424209085893 0.12707600241560693 -1.8424874923804655 0.6878706257775831
Ni 0.2726705919290667 5.09409724474665 1.0750861176428101 0.6565612741413402 0.9193023061931458 2.083792466045682
Ni 4.595389105065165 2.88777924193091 10.156321462343536 -0.44006281799684216 0.5776572034452696 1.6680319722396304
Ni 7.32182024898456 4.247276187199379 0.5542869540288786 2.021492579565196 -2.7053345437993603 -2.2405855359097475
Ni 1.5048347983138104 4.131311821343123 3.133119759515258 1.4175666722313844 1.6023929940835822 -2.048819292404607
Ni 6.690065874532679 6.731071519105655 10.292345346220626 1.1408565795939964 -0.43751691164653683 0.7174457683315386
Ni 7.437070198875506 3.9573515337901752 6.8469479568431035 -1.46903604375527 -1.812738800363123 -0.1899243052003955
Ni 2.9080301867937313 7.093335368592002 9.859351568414892 -0.5678309613834673 1.270780850091676 -2.028471067765558
Ni 0.20849039254292362 3.129196883131384 8.165956751154493 -0.050276379657048904 -0.7562087480323493 1.0252718656474407
P 7.696696288012338 8.855112616583213 9.946366517071727 -0.6124989937148032 -1.2260703945581788 -1.0465510867411911
Ni 8.728459488784436 2.0615388596919875 5.964913519549291 1.4630546293608544 0.9140426004561033 1.5644041735446348
P 1.227961975040075 1.5003376414039755 9.626419906597233 0.3183424234661937 -0.013445069761312328 -0.04982026595623678
Ni 5.342475862019374 5.015190917296082 13.181849261565228 0.3186879797310705 -1.7867048381932067 -2.0148431925694785
P 2.741864360605895 4.809365845854507 1.1649404118028 -0.2942324177918675 0.40908719555093415 0.7845410193181392
P 4.1955909398629245 8.303867425914326 7.661243853692789 -0.9009163474867904 0.628582272429911 0.5779711351412626
P 8.242198673421617 2.115184171343523 12.898352520008004 0.5252252108977987 0.7935668769658333 2.630644254074321
Ni 5.1804041888635055 8.648591447534413 0.9105258955411124 -2.093946266650233 1.1060713535940112 0.3878002611476999
Ni 2.944666902963467 2.7043941591432974 4.398199307624797 1.465616990771392 0.13508293188048348 -0.08636566918043835
Ni 0.45785636931642143 7.717945583390785 5.2600579053239365 0.5071758095952555 0.17884002236177585 -0.5169714555294388
Ni 8.410132221164645 6.686695296645063 8.619997406481838 0.1477510142664552 0.8106413159496166 -0.5193533254980539
Ni 1.0117229170272524 8.52959539341511 9.477070333131305 -0.6260435651684573 -0.5243332952111486 -0.3877629801518612
Ni 1.9689212412148953 5.757359195104503 5.292700303513267 -0.998839382487525 0.18263342796593707 0.2377835907755195
Ni 3.828720023318233 6.534359830811302 11.836686431498167 1.4521361826761379 -0.11250890323470947 0.1809382996517013
Ni 2.9906826184726554 4.175046901270745 12.498724715535952 0.22101331329571614 0.0845826091380866 -0.599582028542819
Ni 3.480112509784155 0.9830272090873069 6.404516560952046 2.773268488637172 0.4608501870558386 1.2626175975545932
Ni 5.90455636149546 2.7322472226113392 1.2624114792544776 -0.9329826318937158 -1.4973847701012921 0.9251484805612777
Ni 6.836566943316409 3.728857494218576 11.710394175353663 0.015846480113953353 -0.08556965564170424 -0.4023784160721908
Ni 5.022619011499496 8.28066722539984 9.915144707551878 -0.35951092728470346 -0.4504647300564565 -1.043405342023358
Ni 1.6731713499347038 3.4023693980719756 10.45004717505535 0.45421391268624356 1.4161173413793677 -0.8509315309282314
Ni 7.423551250608873 8.27324829037547 1.1188037951302516 1.02625814082011 -0.4980545640202778 -1.039240669122707
Ni 9.12860570279029 0.04602304285242203 11.438961904431132 -0.7811322507469063 1.0569866802522183 1.930209161368166
Ni 0.7753620585761064 0.7469182280598279 0.3650070236095559 -0.5946038586019372 -0.4672288368886727 -0.47176940507150367
Ni 5.409282913954888 4.157589506015865 7.931697924293586 -0.07132085903217394 -2.014794341609414 1.6156578295132886
Ni 3.5165568831939997 1.1409497741369528 0.18513357006681286 -1.6809011148928148 0.4985356174217543 2.1033019968335194
Ni 7.800259125445138 7.494892096170392 3.412568143935726 0.13111057749629676 1.1029850013592035 1.3439565029444016
Ni 6.090734993891014 0.9844835185550538 10.507260902861818 1.266783813117141 0.6379282324211852 2.5173473077206774
Ni 2.0864243491502803 8.317487125150425 11.774752978731133 1.2270561555102157 1.5451702650156873 0.32087830251416993
Ni 3.970265976240007 4.952358949064986 4.4472897595385295 -0.05630535945994819 -0.8254686107704364 1.34970394695114
Ni 4.891084041271102 2.510228722622741 12.551005309510163 0.2895285845582949 0.3857042978506196 -0.8425381646582136
Ni 5.077409220531336 6.381429018339783 8.463502757444907 -0.9517709682448126 -0.8692210732660386 0.9816037353355287
Ni 3.486780392127047 2.846425548554321 1.939611868279107 0.34693694727443475 0.10314674529351912 0.04534268980085739
P 5.649885388220585 4.8416427928000445 10.239876989076043 0.13960344545865633 -0.16803187600267835 -0.38264391375774104
Ni 3.29709379415824 6.591403197887581 2.97784511312678 -1.4659124105246237 0.5327626569254243 0.38698882098999804
P 8.80099102762147 8.396274383273441 7.205299920960427 0.19434763107907177 0.2712588397148296 0.2197190199643248
Ni 6.6472467125093 0.7203053174341318 12.88280206582976 0.3352692811285194 1.363534167966013 0.12466405054000465
P 5.407799126950012 0.9297849013136382 2.477851024707737 0.2227801753881518 0.5298107733859521 0.8768541643312641
P 1.8895386364541207 5.554263559017574 11.067887840623868 -0.4482327554021442 0.021223171044834416 0.2974704651131909
P 6.733929182966894 5.819266086252315 3.7754923702310323 -1.5931714754853143 -0.5773653832364637 1.9161318573394939
Ni 3.710685682998387 9.135502564609242 3.723921612632608 2.5134428304599488 1.2217483701440572 0.29538607178033643
Ni 0.03530955112648706 2.3293532548927556 2.2957528065755866 -2.060548150805761 0.5898956544929905 -0.20069157101922858
Ni 0.18195441902118403 6.964731335657188 11.136094415117064 -0.4140753927941449 -2.076233936972134 -0.6297608661190445
Ni 8.831188840924375 4.313451255780964 4.625045610886662 -0.2468927521656393 1.2206857332074976 1.2210711415713744
Ni 5.487886988497055 7.878808244913052 5.324565087401894 0.8928420551190881 0.23934733571821362 -0.5112026713664616
Ni 1.511557635730957 0.7462267100421242 7.612502366500572 -1.3289682570656856 0.43363788830710476 -0.42884586623510007
Ni 7.574201427498826 6.243913104196679 6.25894698067693 -0.04177374150267644 1.64774828228993 -1.1915448499774834
Ni 1.316631987349878 3.053276448048649 0.5192659170422282 0.6230307464840625 0.06989441099829252 0.10271608551400375
Ni 2.637110829897578 8.471425447316612 1.4012646335377759 0.5485643998443714 -1.3125422502991784 -0.9480017310103673
Ni 1.7050636113604585 0.9885776715870218 5.230820889902583 -1.8279008528155423 -3.3471315151473324 -0.760697122821006
Ni 7.792144092813542 6.115006818353464 12.828336091736022 -0.8294520208982167 1.7851614049654867 -0.44438972750697014
Ni 3.260090710826807 7.94318811440232 5.7473308099709435 -1.0778992620351695 -1.3339651960596446 -0.729407311568789
Ni 5.396643246876328 1.6219165840132432 8.586470231597007 -2.343564645277151 -1.2168979840302914 -3.4478796783016876
Ni 1.904935216424452 1.1371853515505124 2.559114924843828 0.9240547332764666 1.2740196687439478 0.6836103078393323
Ni 3.1849213284255518 2.767363515060031 7.982719131149465 0.014435715809355784 -0.7391620769627075 1.9093716557975242
Ni 3.2975517531103615 0.7674741735847624 9.802633352194619 -0.5571878798473242 0.0017799747185582248 -0.1427427624185864
Ni 0.054408271265770296 4.494702249851689 12.34547424771585 1.4377552313641173 -1.3787419860547028 -1.9741811960737419
Ni 7.757247620661869 0.15539737938764686 5.496810776638099 -0.8376972916261444 -1.8924856786754636 -0.24880925246206184
Ni 1.2861868762128275 5.343510849251168 8.732535323458318 -0.07671709034708078 0.0289688764285243 -0.23354589854508812
Ni 5.5419994182797545 7.535824467311028 2.9085797375362774 -1.1434852754660954 0.5874955296919301 0.8280348288357159
Ni 6.584570450321925 6.059190781268872 1.4956389825552068 0.47311640601770133 1.8831260918374344 0.00966991898959625
Ni 5.325238287061513 5.558980536224427 6.2126583216322775 0.2913934056811756 0.6810345766923561 -1.4855309560864998
Ni 3.4603744789477098 4.858514000596207 9.677789162256722 0.8748422761075578 -0.44579920625998704 0.5541789178176715
Ni 5.145342851489068 2.758589021537379 4.085438073109093 1.615964819230746 -0.10877823254768362 -1.2001125370418364
Ni 7.367616144196729 4.183885509046694 2.6974716516230264 0.4606365283831357 -1.0109515923700267 1.4456456898557877
P 4.3197894076783285 3.1898856034665513 6.151972349050824 0.37981055807400393 0.31526147054802484 -0.26866176841161477
Ni 7.466462004422676 1.2901344823801166 7.939808377335662 2.1705497142375845 -1.990920106094978 -0.9480613806037091
P 0.8794836059304955 2.55609789126725 4.279467953779822 -2.3347539889640565 -0.2402431080596056 -0.19129727428852214
Ni 8.774090518773841 2.2592214209648387 10.971972001773596 -0.12099894298359162 1.250630857506362 -2.2130629050094464
P 0.07860957004959347 7.663869790324254 13.324174660623513 -0.5386926492566142 1.2393732823146721 0.3230182316753082
P 9.162659530470059 5.000298092173085 6.838542578235863 2.8767610473058842 0.4870561560272451 0.6144897988925869
P 1.8917002027081349 8.260626941654996 3.5374801117985357 -0.9168268480694597 -1.59838181604166 1.2129991631965171
Ni 4.374011747609537 0.03291808947850756 11.96411808951555 -0.18527009425783575 -0.28026310009596894 -0.8100191089845857
