# total energy = -340870.69998572796 ev
CRYSTAL
PRIMVEC
9.23012969898521 0.00000000000000 0.00000000000000
0.00000000000000 9.23012969898521 0.00000000000000
0.00000000000000 0.00000000000000 13.50922781027304
PRIMCOORD
 96 1
Ni 4.832729682193507 7.096289728838363 12.18070289114039 -1.0041114295197415 0.5509326429662319 -0.7948246606323343
Ni 4.222461207728021 2.5237943187545993 9.282770809762352 -0.8029210644872236 3.0869297045776127 -0.14306106498995363
Ni 6.261627575247532 4.628956112449348 2.4615029435617557 -0.13998088340273313 -0.1411147398968602 -0.9472519973285363
Ni 1.6400832568147872 5.775938159115919 7.808833576629351 0.28739405471379537 0.8626436771588368 -1.0111179427445618
Ni 5.027282352532202 3.738525516208057 7.313774656006761 0.2558944414436174 -0.6074442048997151 -0.6899457631390569
Ni 2.586762262442358 1.87479622076026 1.9545823834737395 -0.7481246854726341 0.34497185312826395 -0.9965487866811354
Ni 8.14347561497253 9.690897601385469 6.776106688411758 0.33597530605660847 -1.7386162102160962 -1.2275174114173504
Ni 1.0099700038490547 2.3676389872814974 9.334930271764629 0.2121247525568347 0.04880802264163853 -0.08466257044640257
Ni 7.576930264114332 5.440893687125013 11.409717555185605 -0.4704018353000157 -0.3374745163099543 -1.0283703020671064
Ni 1.9685004957995633 2.440326257369609 6.948444282985619 -0.15580293803665424 1.6345508097630492 -0.3084112803954108
Ni 4.95989317679718 6.786969627861498 8.21157089561698 0.9968958856079091 1.0578688257468556 1.016604934001062
Ni 0.013792582564148037 1.7783690575081323 1.583646552785993 -0.11505686646754378 -0.17812859811704806 -0.018778823269399916
Ni 5.4820139142034305 4.564871323087854 4.610105418900021 -1.031220884142024 -0.5134600999420705 2.086204675031601
Ni 2.598272233972501 3.2269178963421687 11.345143568958758 0.15495138866963634 -1.443932820929739 0.06025380258473495
Ni 2.1640777105166435 0.5437496999456134 8.139715260199972 0.5103362096011083 -1.372997627371758 1.5915465382873815
Ni 2.499925203777093 4.000171998136655 5.0690542267557905 0.8282955386962703 -0.11499978797736324 2.1935014379377513
Ni 3.0249718922459397 7.762908144115014 5.341480576968313 -0.9687644174790155 0.602849386440181 0.5155421792820798
Ni 5.944304951963823 8.14421402533533 2.8473805079407573 0.5583253358858771 0.06713201776180697 -0.797583197214078
Ni 7.705644420479883 2.8973930418131926 3.13643770554944 0.18411001251146356 -1.0604090756702058 -0.10885587986315445
Ni 5.387248174267603 1.9658883691411588 3.138274501326905 0.6905512579335398 1.364507844733192 -0.009135129532048782
Ni 5.8862935878363585 8.612763090920451 7.082212858284537 0.29465176471747323 0.49972500974416517 -0.1412844327055051
Ni 0.9194187410589068 7.272492901661481 9.585323379764157 1.0439362748261634 -0.3871320314360817 -0.26503394185104034
Ni 7.718169706258876 6.4602045820634855 1.1028841798001618 0.11426008159786129 0.21899165487999703 0.5508467681206448
Ni 3.011588204420192 5.728513753565096 1.25850047170842 1.6614571472355901 -0.3278159101742677 -0.1825771208067049
P 7.074801987280886 1.125291242259324 1.6118805960205995 -0.1960954670081139 -0.2020727676374713 -0.08980349121739373
P 1.5745308768572286 9.130564127704323 3.314840418240749 -2.897047565469062 -0.4333434969951375 0.41092167765651166
P 2.6710425752264277 3.984545388833903 8.273240160079165 0.46676989497438326 -0.8873460650015234 0.029375624948639732
P 0.31269740537372065 3.5559443238762545 11.673755563676721 -0.13054133525638809 -0.2176711362963606 -0.044613782054632845
P 8.441424196362277 4.825456340119928 2.5570532445080585 0.23531970261605922 0.5312189665873883 -0.32889603061232386
P 8.87662480393745 2.289653622840296 5.604181139689809 1.0772474873837834 0.2660652113290321 -0.05546383739525933
P 1.0090469908955548 5.420098205282662 5.241134300715625 -1.8807313663530125 1.1455976938234076 1.1687196245528515
P 5.836137063943177 1.5835764038015272 7.628957735264256 -0.15050517997282467 0.2638404357635714 0.25718127857584094
Ni 8.569686076380615 0.668624122424606 3.7669533921628986 0.11645837480076073 -0.6058074406272405 0.7962261689655512
Ni 7.97661333323883 2.416087937210704 7.850198402140446 -0.37979744544788135 0.8580694275245931 -0.844744428280913
Ni 6.702772386243243 2.2374110896722055 5.431384807678057 0.015119115029625575 1.4837877481431478 0.5919612787727676
Ni 3.942797512947106 5.717529899418449 6.500896531131479 -1.6251986791241881 -0.3365116381760527 -0.7247754692237324
Ni 8.024231571509887 2.479960433592892 12.924020913814017 0.20748699667450715 0.31099472485187085 1.097270981693562
Ni 1.4181632524048218 4.808980558899957 10.084638313115335 -0.32138995204326587 -0.26580938656448416 -0.19048711968240098
Ni 3.8806418206584263 4.900654205441559 12.44533531997356 1.453258469206039 -0.5258083370947784 1.0143840150903434
Ni 1.4150803891401322 0.5924127888800317 5.699543145993598 -0.5838185950609752 0.275454622963732 -0.8421704969061496
Ni 1.2221060709519216 1.9190270014919724 13.048846416606475 0.3528563980826633 -0.538630171449795 -0.030134100381219067
Ni 1.5179224924190837 5.1272723457848395 12.95603838714502 1.6358849551934407 -1.6091441967644866 0.04664469644173257
Ni 1.198329257269766 2.5055186622753025 3.7578755597652274 -0.9660629593874525 -0.374753969486703 0.5473804068385992
Ni 6.667107165720009 0.005922974122608443 11.486395933284651 -1.1528273788026273 -0.09147110872780376 0.052267184834832565
Ni 3.4626738649250965 7.751499704009755 2.6941585116338778 0.13971657399775292 1.0260951328796843 0.1707834706058865
Ni 4.141346829374455 5.041561362922844 9.598319402149436 -1.4188180281399823 -0.028249224653680384 0.1977574280915691
Ni 3.2543221509315785 0.6984863605091862 4.060346904627123 2.2292680540143994 0.8092050977237225 0.13505027887033516
Ni 0.39330874166762875 7.766046388156913 5.054126338258838 0.48824554834965594 0.0718672184539472 -1.5892070915209275
Ni 1.8516562860160193 8.43049572299284 11.482749109105374 0.33877960827462295 0.5348334234115242 1.0807848111130804
Ni 4.098186743668803 9.593058228314487 11.793204516015042 0.46893656360839886 -0.3034644779130967 0.3992283004789834
Ni 3.8710794064601686 0.8069062310661373 6.491859311303762 0.446958773785727 0.2863347602113456 -0.07893800925779954
Ni 7.9028553681246585 4.619532150194115 4.749723127285266 0.8153634040156345 -0.6157321559401202 0.1402109971356682
Ni 2.165572991501313 6.023720986482949 3.5475504440771273 1.452318473890273 -0.3068117971187749 2.5590961095226894
Ni 6.015349258994705 8.603551421644523 0.14755192773353015 -0.2832687196915121 1.0806292593718227 2.603426041788316
Ni 8.549721306196412 8.378382411638238 1.7464724988740385 0.05956706093035548 2.176753014834819 -0.396054273626376
Ni 3.4537114091466132 3.914737919160711 3.111364058667617 1.0223060981508973 -0.13477285683923243 -1.7393829131787917
P 6.9695877407114395 7.185323558332957 12.571836091276621 2.186911957645692 -1.403999475069911 -0.5350763926602655
P 5.676658885837475 7.762474328026868 10.198818707515079 1.239487182184717 0.30447826388959176 -1.4148569866097052
P 2.6454658862849474 1.1174087116364355 10.352039780809005 -0.14673337163521827 0.178904299940808 -0.3640934044490633
P 4.801448773199398 6.118385194993892 3.1733037659251773 -0.3896447705556063 -0.6935237102983024 -0.9532832911242808
P 5.457867895339875 4.290579563696308 11.048264759582118 1.92490651820833 -0.8500421863447425 0.249367438958377
P 8.780539155478117 5.646550203294311 9.261859028287862 -0.9227784376672042 -0.30032721783569566 -0.8341681954269633
P 1.6820249654218196 3.7934263266822272 1.4074452259887815 0.19743218354166642 0.6484484152262187 0.21066693706438558
P 6.196952057595798 5.695534500736548 6.688742589350045 -0.15019896158631552 -0.635388496718467 -0.49649133329821593
Ni 5.728910649135101 0.3342211444363833 4.824105049156004 -0.703572352783556 -0.7197898430836829 -0.18504229451774584
Ni 5.577518064502058 6.1691601375659175 0.8076880230377518 -2.8367305137465597 0.9121615813833064 0.4183174558999505
Ni 0.11148704260143108 6.8232901875817165 12.360835330106557 -0.3548389757303308 1.519956227643905 0.068459735434295
Ni 5.931641214241805 1.6217614496878152 13.051250865350342 -1.175008542885357 0.9752649376016944 1.0388583460826237
Ni 7.989406292774338 6.876538804869122 3.5736772487388935 -0.18227990128126026 -0.6716842458257076 -0.37933978908517246
Ni 4.445202693666601 3.3618808504029145 0.7550135198074232 -0.14511151976107914 0.35971353021381275 1.1634385786595707
Ni 6.322112614090376 4.278792688280116 13.2555920880609 -0.269627988979626 -0.5994699284449869 -1.019921914189437
Ni 5.247919368936802 7.188101827322991 5.030796262846176 0.8890519919490365 -0.8688531484036585 0.11832319592364138
Ni 4.540420709949644 0.4486239849579204 9.358206812425989 2.270016439576355 -0.9916788601833438 -1.3027502039094208
Ni 0.8801786913667682 6.230337436123888 1.8767022425092372 -2.8516727368786885 -0.1630277379198676 -1.911040044638883
Ni 4.429594544622919 0.6662427490045765 1.5824844794775368 0.7774913115602093 -0.8192568255327697 -0.8592703898112298
Ni 6.613858548432604 5.036964758414415 8.788725357362706 -0.27465218166709476 0.8072196918625776 -0.23710867619568202
Ni 8.431714100091458 1.6822834090487995 10.845504658060902 1.773265167748533 -1.4130294464826634 0.6525647513874374
Ni 7.179471656207768 0.6397651994204803 9.172198472997842 -1.2017572717341107 -1.1365342980695587 -0.6213986101972782
Ni 1.668244382026067 8.673174288727015 1.2251926262684252 0.5212564560580378 -0.2808544538230647 -0.8029555172695848
Ni 0.7916829784240647 8.05725697498611 7.274070330799012 -0.2965289271355281 -0.516320195098685 0.40369507800108545
Ni 8.637259854706338 8.518117342668578 10.705968174815563 0.3182843165347486 -0.14071776156875765 1.4620051050504175
Ni 6.239955231099356 2.2523269790007627 10.683542652097332 -1.6174576017261886 0.6837985125907384 0.4726875460103988
Ni 0.05268188733395659 4.2272793353452895 7.0774574955481055 0.6736650237011623 -1.8162925791526525 0.08708737783781131
Ni 7.582597563648821 7.42179024689008 8.580264727840675 0.003333692358923291 0.004712574984320916 0.22087113129089705
Ni 3.5734077289564716 7.852929597469853 9.946182678038546 -2.349726294003173 -2.7177236614923324 0.29180169686318774
Ni 8.42407155283648 6.174162867773887 6.41410008503617 -1.0346353091402116 1.8192622033039376 0.4295187239324087
Ni 7.986452651323138 3.5502031833054857 9.774588108892251 1.3735583849712345 1.5277399853543818 0.993234891816554
Ni 8.641985681028256 4.839679969733361 -0.01443961464455142 -0.41191977990372286 -2.121135168360199 0.18893314493171978
P 4.2687779977346425 2.4831171378938617 4.937906085231859 0.04634593425439115 0.9466894399568471 0.4650523980626442
P 9.533800796699797 -0.20194415807032193 12.99522859413767 -0.3648022575906298 0.20684987731114057 -0.12289795977851738
P 0.05338799224338397 0.18289224769713183 8.88845044589769 0.1089651517475091 0.5077087992805901 -0.6561352423475151
P 3.8209044223079176 8.12160943810412 0.5273283764898978 -0.1400821848672878 -1.056817758774522 -0.8960916724046375
P 2.5998875066411253 6.135996282146669 11.369109600296381 -0.6479845882159228 2.2998142396640784 -1.0844671450606742
P 3.0371648933616724 7.6773356131960435 7.610059045041347 -0.3025982732580595 -0.030129729505844888 -0.213073232513033
P 3.4573019295357272 1.8434507008594059 13.228775792722871 -0.13165745113870228 0.20032364615684856 0.16504811078400608
P 7.293177621949412 8.128753558364208 5.239351039689463 0.8694943815320832 0.2838179073267628 0.18599000314299582
