# total energy = -381174.9980365983 ev
CRYSTAL
PRIMVEC
9.13377750437241 0.00000000000000 0.00000000000000

0.00000000000000 9.13377750437241 0.00000000000000

0.00000000000000 0.00000000000000 13.36820663402954

PRIMCOORD
 96 1
Ni 1.6267349026232676 9.036795028816309 9.121582058389818 1.2307071219992418 0.4205849117778885 -0.8841632963981676
Ni 4.175241494556744 1.5433617818033665 1.6495565590299945 -0.30218381142846024 0.08477775586802819 -0.10632668568339751
Ni 2.725436995461336 5.06917343011377 3.534674152597382 1.6700988820709881 0.9947580133292997 -0.12335227370711659
Ni 0.7418609341912523 1.1415029741003446 12.952121184568112 -1.010074589081712 0.4269967288415033 1.420414940313457
Ni 6.22861514318106 7.984940080663306 9.952202301979792 -0.6539076385685771 0.3467682829070544 -0.44876523086684655
Ni 0.2492525669770333 5.856587252721443 9.2073792837524 -1.2428897801083625 -0.783282721431006 -1.6712592209276766
Ni 3.0334645071320567 7.390303765507959 2.312164619421707 -0.43057981820707136 0.698165837056004 0.7772411432226163
Ni 7.202814715215441 6.49305626872639 8.320893203595505 -0.9524114300422888 0.7740565748470476 -0.044401408933510626
Ni 6.806326568669529 7.05460090807866 13.013909362451818 0.6682731632616298 -0.022813141239773613 0.7913930092429661
Ni 8.260314337849897 4.361817167101454 1.826444947181455 1.1252396989923459 2.0410332207012853 -0.0373118490765809
Ni 0.37818131634659885 8.298539196595655 6.797653133576345 0.21647094534067238 -1.2326598748502382 0.3980929013229596
Ni 7.384010592825562 4.114246128558135 8.179510548634578 0.7371956972649562 -0.2493206448808416 0.6846125238516015
Ni 7.782928324180642 2.7807146167586674 3.979047040949869 0.6877721525265058 -0.5402813338999728 0.044476999366452434
Ni 5.672532502760682 1.7534021286892607 4.275820825389849 -0.42708183235614194 0.6512946264257621 4.882776357171087
Ni 3.1799246289930467 8.924047679626907 0.511774685874219 -0.051966365764962115 0.5398074795873478 -0.004180356629934736
Ni 4.922156147826618 7.555844348520655 7.850947565059894 -0.8644997565309691 0.03320425466611056 -1.0682941348452377
Ni 8.602173361299421 5.682817136200998 6.66409081889215 0.5240641007101621 -1.0212650584808927 -0.58469225591518
Ni 2.139258558250689 5.146847073787349 10.051888349375544 3.5283081560620846 -2.608460261778114 -0.47684810514599174
Ni 0.28112945037552745 2.870152565824012 9.325874519108757 0.4346894695000707 1.383444533736695 0.4314444802002118
Ni 1.939018754598773 5.266609164079915 1.0162642708319227 0.46177526997326923 -0.27943854731214457 1.625158569914872
Ni 4.817473924150359 1.3404457813503734 10.189461305750362 -0.9353459899195699 -2.5055965949426526 0.05164394942853686
Ni 7.268660117054908 1.516590680015118 9.27094489473334 0.5966463429532628 -0.026964444403985818 0.3813863872015561
Ni 3.9855055350046182 3.5452939956711442 10.643097671221115 -0.30386145624119926 0.4651752967937537 -1.108350122325859
Ni 5.161625525746881 6.246590417257918 3.0931089874416573 -0.15724018470381307 0.1111917270851827 -0.86662091663903
P 5.484184877385224 0.5709917053978457 0.030965332406181892 0.1681835710891942 0.8580141488066256 -1.1507923506504696
Ni 6.528778472443155 4.248613129038149 5.849820036987934 1.9822637159715601 -1.0746622431551105 1.7045830318907869
P 6.374280626401457 5.291014617501341 0.9758080302482695 -0.3389001930128873 0.595255376143007 0.3069717197354068
Ni 2.521972968359658 6.486936637816078 8.098780743016833 0.5249588446102894 -0.4941071493367555 0.7714813579207036
P 4.625070901574634 4.85302258609504 6.795473814270076 0.3378900065808181 0.0339591305542641 0.0068404199606011224
P 2.7637440582043973 1.889815095324364 9.660588188437181 -0.6426508347078351 -0.22202709927221115 0.2176348837417865
P 7.274259122648971 7.564192621135618 6.344845201722854 -0.11930844265504613 0.42765184592699895 -0.3513756997720787
Ni 4.845788634332402 7.8923053094806335 12.177380478211273 -0.9449166643271404 0.6375700777508181 -0.754512591276849
Ni 0.8188815127751498 5.150582788775884 11.793966420747482 -0.8672135559177064 0.7997771195416032 0.43478382898608986
Ni 6.323761703170204 0.26369854943636234 7.674955200479033 1.027593828912398 0.15966422076427342 -1.277221206400381
Ni 2.271744000570218 7.058656305278927 13.01029969359248 -0.23679525872032123 -0.07752544518098906 -1.4596507458856283
Ni 6.675850557395177 0.42667345435546566 11.58294967304918 0.3766162195064224 0.6950051799398353 1.020811258772926
Ni 8.864385845140099 0.27711972206265095 10.498600398140164 1.0679982008713738 2.079824996757502 1.5291507496589796
Ni 0.6061823232653868 4.5056832961586695 4.300071004594147 -2.603515259068013 0.2214426875236509 0.3084984407925784
Ni 0.4344892277434575 3.6225018166933425 0.10272302840721038 1.4049047604929998 -0.7858391693042723 0.7259918581293368
Ni 4.1654683526552 9.330062356082456 5.828818742432588 0.41164210076230395 -0.40608286150697165 -1.594026624396758
Ni 7.690795910759265 4.842966297091675 12.433340891368207 -0.40543957149601784 0.5745155724924944 2.3881979677158096
Ni 4.809216989310175 4.295368935948432 4.508841756410589 -1.2242315415772274 0.8002095790933316 -0.9720795978951775
Ni 5.485564077784415 2.865001115326376 8.499973698341703 -0.5878475137147102 0.003952299779528677 -0.7376096448739232
Ni 2.0087368780889467 1.7652395043008504 6.8633706625311195 0.5922374152522897 -0.5288280977577086 -0.6371491881633156
Ni 8.285377423249743 2.7200846018591816 11.794581123971756 1.2184164775573467 -2.2670642989265666 -1.4274281384064964
Ni 6.628035232297435 8.243763933059618 4.170653598129505 -1.4971664834428988 0.5956451553822579 -0.7160319187031474
Ni 8.267648761164793 0.42345014428345173 5.176035886474045 0.706031870067642 0.38483037988609853 -0.14386453472785546
Ni 8.90616374332483 2.968112329276405 6.180028013886421 0.6220809809762835 0.3465050019433387 0.3935667313178319
Ni 6.241630776087322 2.8782085575596774 10.745364010754422 0.4379884519663167 1.8562292674465903 1.6567093481379598
Ni 6.784432904054574 2.588320727960421 13.536913114357587 -0.4899267927068207 -1.2097847700242779 -0.99115975445508
Ni 6.100532181605964 5.511421801824855 10.892294522155533 -0.8355041406295676 0.2742554604493083 0.34870252381528977
Ni 1.5785633602038813 7.204952019145311 10.5498144018375 -0.5556009949761787 1.4411460022132212 1.4474161514926493
Ni 1.5625792496172437 3.3417568983496424 2.567965191472775 -0.24979655607599563 -0.9445094015863928 -1.4468602789891791
Ni 2.32174229848522 3.9036668888010344 5.637292562494759 1.4155347294030203 0.6087932627284419 1.4340441010611173
Ni 8.506113423562468 2.1308828843032908 1.6977491091375805 0.6775497034675493 -1.8353974183029034 0.597098599999333
Ni 5.527542919073664 6.547794997152515 5.445298733150053 0.07491294725880647 -0.7127421922082823 0.9691647382412277
P 7.022733158457643 1.8711639217141274 6.151420109447331 -1.139895758342624 0.955502924483419 0.31246436741886185
Ni 0.6459836720038619 8.275047120922038 1.420760000092866 1.2268137004821067 0.7972368696182527 -0.34623837854551337
P 7.941134483878441 4.313152400698251 10.393526335410098 0.8578465128805097 0.4259325492430471 -1.7130537883659596
Ni 4.383528156166847 2.692637600537556 6.332573058303307 1.0194328903681602 -0.7004014112547421 -1.0544027215751262
P 4.037385391080104 9.242560767842464 3.5422670618149095 -0.04620220958767527 -0.2865579319657452 -0.4321844436900299
P 2.3030454559875935 2.265322955003129 0.47817699879885495 0.08657264298492187 0.7069944910912276 1.1735460994072175
P 8.372276182176183 8.19769315946019 9.022416636310318 0.051300964266821326 -0.7362510739634996 -1.623334629332256
Ni 1.5960180089644893 2.7494496964512045 11.452021539789664 1.2435847492928582 -0.10906516766048314 -0.747144323837236
Ni 9.22822073720188 6.377632722735911 0.439734756149118 -1.736044849944494 -1.5074724933545973 -0.34213386945883656
Ni 2.4406001448074566 0.10265817858711603 11.685336578445197 -0.07093956443335525 0.343810228719995 -1.2328159408121284
Ni 8.450369979613754 6.806290033559616 4.552997176872864 0.22669262306868057 -0.10915361360923137 1.1888670460350041
Ni 3.086997576931075 4.498924300824892 12.598585539990612 -2.1868196550422017 0.7664044576184285 -0.8908782465244979
Ni 6.2139736978836995 3.3975460111857454 2.142870053865521 -1.954896636812517 0.6869244598142298 1.3462607255975458
Ni 4.338891385631477 6.414049093541011 0.6909839668828592 0.7937753934322136 -1.2079885973558036 -0.23532458771206569
Ni 3.6973805244586306 2.5105283451796256 3.6507105750566398 -2.557697943623582 0.037689287020657665 0.7468273068174492
Ni 4.024342356841408 0.878856635829457 7.927346133397534 -0.9610115130064739 0.11009849402100394 2.1372865813090804
Ni 8.042793427209455 6.7750433808071095 10.833100337075601 1.0165463128489847 0.4487132945829885 0.6709368261367219
Ni 3.38241134190457 7.329080055072398 4.78297016634917 1.2514225001697223 0.30353029815402566 -1.0733669213824546
Ni 1.572032709307055 6.446848488464791 5.627693875743047 -0.5867941327495314 -1.599451394956755 1.022554723826594
Ni 0.0706543356816766 8.229168156649648 12.408316167833766 -0.1566963963852011 -1.0972876938641103 0.05676841513929577
Ni 7.716799775239354 6.992335947010598 2.410193799582933 -0.7275003243540632 -0.337122018066542 -1.946716672104886
Ni 4.118264990648489 2.073020403979663 12.645948743103187 -0.07146124126478015 -0.2872482731645505 -0.8061861083917407
Ni 3.155720118676138 3.5893644720028735 8.142895061480457 -0.9938013058429852 0.7539490054638951 0.6506968449407632
Ni 3.781667023026339 8.089960254106254 9.935411678841842 0.029646362111523133 -0.5844405449156902 -0.09115640570086236
Ni 9.222831808489813 1.1744759107962082 7.880784875947533 -2.1425149195875557 -0.5545154752214837 -0.1102537886519456
Ni 1.3061575806976664 8.349112922491775 4.2762756875082575 -0.7710388710666463 0.6078216428437918 -0.32929403738169094
Ni 7.487258813437762 9.176706232225516 0.7852271962794215 1.8887727486002506 -0.1464852601801542 -1.1015413269341416
Ni 3.937735878794267 3.8955286930680666 1.3985283857112227 -0.43553356266792087 0.33342502883092895 0.8396536440215667
Ni 5.1850536649781525 4.193335507740818 12.709755485809549 2.764698230469658 0.893709802436022 0.12114960962884297
Ni 6.288039499453439 1.158044245113145 2.472075141996915 3.507888454755152 -1.01830057653593 -2.0846188186017196
Ni 5.450536041155982 8.44378452605206 1.62418383857364 -1.8086970261935817 -2.9995541060754207 1.5609681512798925
Ni 7.06767134364979 4.930906306650615 3.6707893580867004 0.14094170465410563 1.4727775130755731 1.114876610590467
P 8.557317380104577 -0.10637105913195496 2.9243624485341564 -0.7882812030868618 0.891244114504349 0.8584563785503666
Ni 5.062597110329553 5.4636338780595475 8.88739748411837 -1.1239932281797547 -0.9339997603043205 -0.8395214893190767
P 4.015318184693067 6.090311484607994 11.169269930534028 -1.1998520842915978 -0.2577248097841368 -0.3618048655252027
Ni 0.912730162984659 6.338183937808091 2.8671329389897595 -0.33375695824905105 0.08783325486490035 -0.17642524227269615
P 2.655353520872039 8.263839975956435 7.118917315568297 0.6172794458225821 1.6663849235545107 -1.397299437341916
P 1.4956286607029279 2.167308388885868 4.739697982169025 -0.6750194808465279 -0.35877430622899503 -1.3502549343586037
P 1.340400112462983 4.796091751074177 7.474244093909248 -0.8102391954151917 -0.41977321450987065 -0.2604787183801901
Ni 1.7602341942428634 0.9142911255556626 2.627521074140838 0.5582839411249805 0.4247328725079911 0.07915603880587657
