# total energy = -340871.3205673239 ev
CRYSTAL
PRIMVEC
9.28026141202768 0.00000000000000 0.00000000000000
0.00000000000000 9.28026141202768 0.00000000000000
0.00000000000000 0.00000000000000 13.58260063970175
PRIMCOORD
 96 1
Ni 3.7534665790240056 6.855941399751392 9.41066365523608 -0.7202066189061274 0.977743223938858 -0.5620220680111739
Ni 8.095580122020678 6.305399188010663 0.22075421181617214 0.8454854202119956 1.7756071856181483 -0.6328078804754843
Ni 1.7625999979083793 5.2713460907277625 6.946372904408992 -1.0529917001602125 0.108537063071155 0.18176259532520955
Ni 1.149258259047943 3.052584136850402 8.204175881803357 -1.0671281395615944 -0.8657035470310833 0.05202421558609105
Ni 5.938318458703728 0.3886406319823445 10.514196211605698 -1.0028243352772022 0.3254867478204588 1.3692412456531193
Ni 3.8815341827260834 3.8946471917138394 9.842916874435666 -0.16382503701018236 0.3238481837757713 -0.7214500043949252
Ni 8.679930325086527 2.275566432302028 4.8608188908779555 -0.8786331106085578 0.3881414465372025 2.1116717089544537
Ni 3.1193741762593774 0.5770893267516106 10.06045547576758 -0.125190612467436 0.9963166160656713 1.236578236068038
Ni 5.096515251152151 1.4120010123822346 12.881194560715986 -0.4791793243823295 -0.6496146676201779 1.1845532491509987
Ni 3.7561856955373902 8.630856304189674 12.15391441573582 -1.4276559381465863 0.26907108803489144 -1.8859381073649326
Ni 5.657339992233597 3.9938717437995366 11.432311934519781 -0.5117528874429768 2.7796553660001226 2.0913165423368696
Ni 1.128136384698238 9.265607605495088 5.7652842776844 -0.4958447008531525 0.0036414534073292127 -1.4627702653512162
Ni 6.5235038852719835 0.20008428618387955 1.606428051376492 -0.7409078560092207 0.08942425350110404 -0.8200145296344006
Ni 2.594835256226853 7.516760954592976 6.98392826518157 1.0983043080540826 0.11664246578710878 -1.3119611809847274
Ni 1.3170361001588025 7.593193185324157 8.786937304162409 -1.6129548287598288 -1.8679864079825186 0.6004592889414498
Ni 1.4210028656859315 4.114886349036862 4.415418325724405 -0.9370431751163346 -1.1506254860553022 -0.8228450571046603
Ni 6.926926117194667 6.61472885225687 11.712112735851521 1.81303190612351 -0.7065270645365057 -0.4325109737915132
Ni 8.525590302103248 4.552413540641076 1.5908075158292936 0.3647271813783203 -2.4911233410271416 0.956041056375076
Ni 1.629214804574324 8.329387021127209 2.035135282795311 0.6728821227885509 1.0595130462184978 1.9673495178638891
Ni 3.235089752387001 3.569754529539489 12.336654821879206 0.1000051143407439 -0.18218605601587332 -1.8027076413793663
Ni 3.085668267806773 6.416289028346613 1.89812800353916 0.9542929633357177 -0.44386702223428076 -0.537462633504255
Ni 4.501873238484444 4.010511252019668 7.206927372166984 0.0797849306391271 1.4545471061104756 -0.29672098854167606
Ni 7.866209187738029 4.334299563118617 10.762567552541945 0.9805251575593693 0.5603261683659898 -0.19020018456960147
Ni 7.097153947245914 2.334718816794567 11.798186229878796 1.1079652281826142 -0.137241372984383 0.014489708975742786
P 3.2775098260480298 4.545666790793873 3.2263700190218945 -0.9173369549366588 -0.7764870386654111 -0.5034986178539845
P 8.059693352200682 4.585553353164274 3.810774975628458 0.3838644164284034 -0.4449756819174272 0.2561494948772169
P 5.176937994172601 7.092235408842863 1.360990200985915 0.5233171952418084 -0.0769232928206159 1.2550151026169871
P 4.782211366936066 6.85149615466637 11.38486752747873 -0.054888681618079666 0.9627693762378453 -1.9499148673272095
P 2.3515903315431452 5.253444466992885 13.555937291342659 -0.25711365856269913 -0.3590270456697494 -0.2685216432893246
P 0.8780788203132484 1.6662430465142726 10.255108025107484 -0.5056334048088001 -1.7878363806944886 -1.0692079049087586
P 4.843080599739104 1.790691348372596 1.7035701128628593 1.4588459905961455 0.37909476295390193 -0.5497244815907436
P 7.417211593367455 4.383707673416434 13.061924862296918 0.3593939420908649 0.7002162918271296 -1.818365402521281
Ni 7.609563565971292 6.281149865657508 7.201738778164822 -0.864811117123801 -0.39673818706727804 0.4993444864762948
Ni 5.712251297386148 8.010554369475864 13.041537056603214 1.9019416818820407 1.403243827850809 0.9381860304715262
Ni 1.2139788002231815 7.203440778057501 4.485042556884873 1.1125021968210196 0.10360363032527962 -0.14819375823082864
Ni 6.386443708527347 5.189986041332392 1.3111403502579382 -2.382664182381774 -0.19017575908956927 0.20897078030888527
Ni 5.757065678420737 0.8767721595450415 6.785160848053149 1.3284758908102992 0.9853706585771289 -0.760521002254458
Ni 0.8808823872029873 1.9855025901779595 3.3097670857370196 1.70206977855063 -0.9113935928690303 -0.8646460523008463
Ni 1.5008131114712844 8.223657005983894 10.99720689107254 0.2434644432103807 0.12979571533961518 0.7532162410629286
Ni 0.1793336222796878 1.3778032500893247 12.446062604511447 0.1479047662355001 0.3826511128465926 -0.3627317482148463
Ni 5.675000329178891 2.6064727036936937 8.843005857878849 0.15371134561494817 -0.3309027766297076 0.2247015607805808
Ni 8.289249891706088 6.53348944625629 4.906211432181432 -1.5289278350148958 1.6201868277318936 -1.5180878069765984
Ni 0.046247253354270615 5.262223594029274 8.816397493144457 1.3699536983391116 0.9056808587549693 0.5685786381827691
Ni 0.5002134995380402 3.8519023089129867 12.953644631392926 0.15357044916170973 -1.0645866040866632 1.5228512898035127
Ni 6.567139673142068 4.652278430745284 5.569436430709941 -0.12537418923315183 -0.009687659601409122 -0.5880948538388259
Ni 0.44794057262697545 5.616813091844686 11.617740832314796 -0.3064060770399239 2.866122079534799 -0.48959512039901487
Ni 3.8148091051450734 0.09667712040336199 5.946054484388225 -1.1917893618881217 -0.3085604043787654 -0.5911835200664787
Ni 0.9073673244642452 5.736398536866786 2.5444285898306056 -0.43561609507939814 1.8543886146934259 1.0170875300644355
Ni 5.798047311605402 5.6588990761047535 9.857056280305265 -0.727847680391153 -1.3959066707594474 -1.7298076107855305
Ni 1.3069948576076686 0.4336034971951392 8.10572901560101 0.303773010292451 1.5512195565335607 1.0584624934667963
Ni 1.3408863712830301 3.6487573926058503 10.636425603025966 -0.0037121587442645746 0.5810752279878831 -0.07495871289507736
Ni 4.03353557990263 3.867892198853471 0.823937776835138 1.6373430277962058 0.44260383925114094 2.72493689141132
Ni 6.764261699970752 7.638749987249773 9.404062605488742 1.1676333334672087 0.36847302157399764 -0.11623391749478047
Ni 3.362479897026017 2.442462648604794 5.127241267753397 -1.883187541202989 0.5926282229328051 0.10475805564469702
Ni 8.671216159878103 9.112696742727035 3.577996329455997 0.8388028659854972 -1.158645013925669 -0.37011775626627225
Ni 8.49531809027164 9.294367134761227 9.904255688452277 1.2720982833515189 0.8579704400528837 -0.006685125329659455
P 1.965392264292278 0.22437629773826787 13.110374321619195 -0.41579777480189034 -1.3596926827327358 -0.003588745792522851
P 8.87449099984117 7.557324976026437 1.8991330558203872 -0.10727233742611848 -0.9192915075598684 0.30270137449482704
P 8.774616829475825 7.269553358403414 10.31612110195816 0.6963696643875297 -1.7006749550856322 0.8372041540398096
P 4.950694507893401 5.992951356022143 6.177896752211878 -0.4410740328701759 0.9695385766408786 -0.27180854157071255
P 7.293849082062257 0.42965010595042286 5.018363388032128 -0.7726931188406176 0.5119030398675958 0.2237533379346985
P 0.057508850245029414 2.481653191389857 1.2926197331051672 0.1737178706438621 -0.5695530862808965 -1.227448505852628
P 4.707134054331007 2.2913150354529286 10.99118956975077 -1.063929944339271 -2.557057738936422 -1.1907724905878332
P 6.7686883845334975 0.46568721600085106 8.56331363560242 0.9974155055568048 0.223008489348874 0.3158191428237077
Ni 8.990420021974963 4.740700758866544 5.927555211836071 0.4754473681437231 -2.0660135447957066 0.9440010944914065
Ni 4.775928630145754 8.615005618166258 3.1913676580883346 -0.8413747404777316 -1.7980711710486195 -0.5495267637576406
Ni 7.695628707763543 2.935355878157312 7.135333869593067 -0.6350452544464353 0.173019816135573 0.5119503481657635
Ni 7.781443282505073 8.516913257939375 6.853196298506821 -0.38747655925969393 2.050287392309701 0.37124107123743805
Ni 6.882195258510317 6.99705705061326 2.8990431443510905 1.0451763178808515 1.0954321287126103 -0.6516347833740003
Ni 7.898931388510023 1.8845426292594882 2.6769265901998844 -1.526179068625165 0.15583816214996388 0.2329026085341344
Ni 1.3821649728241059 7.22330053689246 13.621854058178565 1.4429766276640568 -1.1574263110272196 0.2129565044295107
Ni 3.529812285602261 2.0625380378831006 7.849086177912615 -0.8731995982978124 -0.9569769379257841 -0.046169813687843064
Ni 6.122373877850345 3.5185460485809337 3.1626136969788767 0.048000182028362495 -0.30793485497962453 0.0020036606935900972
Ni 3.009644368565655 1.2932415106014021 2.5682250354402343 -0.573015076687568 -0.8219037762373134 1.5277752094676915
Ni 1.6961440479003662 3.741717768423511 1.7525903082451142 0.957862425854531 0.2806685630645037 0.003136745856768791
Ni 5.086938021657908 1.3623887363393863 4.025543419010729 1.704806460755503 0.4376709207258978 -0.18210480915597668
Ni 3.834576061368655 8.762598891302334 0.8526249200644035 -0.3699465207957306 1.154152268261638 1.018906585551045
Ni 4.676926804327365 5.789908522587523 13.138653133358398 -0.3422968773992621 -0.7290064765859445 1.1818520481697516
Ni 6.836721978934942 2.727691474676052 0.5825999458152551 -0.610239251146349 -0.9738348900233873 1.4205617503039663
Ni 2.936256063487682 5.701718200994709 11.34543755395631 -0.9088757115431831 0.21925442162308045 0.10869518591557409
Ni 6.024262957101188 7.834851185353296 5.067491234443581 -0.0018221408104033136 -0.3083986819899205 0.735909631463681
Ni 5.039321001759694 5.6901085943112815 3.426211162363963 -0.20006139363439737 0.5748048215981391 0.7043693947635546
Ni 5.314248737967959 7.719191290792499 7.603797739726358 -0.7558549642373563 0.1520750955631058 -1.035405868757649
Ni 9.04043134924674 0.24351776436115957 1.061247974521202 -0.29368554414946196 1.0486249385510844 -0.6770221130988534
Ni 2.740748802096981 2.0583062388042492 0.3769345105830836 -0.6286144112194271 -1.8489597303683705 -0.3714740131838506
Ni 3.0119458733278375 5.50569124498029 5.145007399675663 2.3408225637556392 1.3982833985217402 -0.08518090484371782
Ni 7.806444306010393 2.206808977531833 9.600602759944081 1.5851136381778443 0.6241124095840155 -0.7448426722872526
Ni 9.033786682272051 8.189496364735534 12.59617732459867 -2.6345227631931207 0.8489828918422928 -1.412761023312625
P 2.2700817979695693 4.770805925997671 8.872276729533684 0.29777154129337746 1.1470544808745922 1.1430227340073797
P 3.594310100510192 9.123721692958778 8.223069565453867 0.2547708693621354 -1.4861822165172534 -1.5320005604029487
P 5.418187662711674 2.79211504749488 5.665153044085538 0.6523035273062507 0.1510746793230495 0.05736748217587539
P 1.6440632223948548 1.9120493232720215 6.468115574696949 0.011772567154895854 1.1403801541782104 -0.786710259055316
P 7.2389470571708445 0.44828951044575793 12.60677167071362 0.4437482372682293 -1.5917247157364587 1.3782488484683684
P 2.760320872836668 8.828804274259625 4.082426779655068 -0.6352401440660608 -0.10258598769404267 -0.6550175838033042
P 7.355070964788533 4.727884718235199 8.612672560516206 -1.4896380362763377 -2.3160988357567147 -0.04000327986581497
P 0.2761165376600211 7.339359482682184 6.581692978658416 1.7055564515476498 -0.9936519247493145 0.5908500479864599
