# total energy = -340866.1728362297 ev
CRYSTAL
PRIMVEC
9.30482428121798 0.00000000000000 0.00000000000000
0.00000000000000 9.30482428121798 0.00000000000000
0.00000000000000 0.00000000000000 13.61855088161396
PRIMCOORD
 96 1
Ni 4.977420457198188 6.486179137871271 9.221135033101694 -0.964958927689996 0.3839567190318936 1.0016927927759198
Ni 4.00223763182099 9.02412584523533 9.637658057335026 0.07929025039089571 -0.173055811579831 -0.37460484550334844
Ni 3.2014830462487716 5.557017974399304 4.272520451545683 -0.5646847024450017 -0.4185779086501888 2.8363080814971604
Ni 8.85028380937294 5.636899892607227 2.9376028762525435 0.5919206553428192 -0.04675602520861624 -0.6329888861380389
Ni 5.029983410716716 1.3450868179733304 11.146566545682322 -0.5804049413937359 1.483826314690567 -0.17860399509156982
Ni 6.632841781411551 1.0471463379479702 6.922554935626842 0.0755202418255022 -0.2769031824848005 -0.6318612002914988
Ni 4.901483784572112 2.3344501958664132 8.51772286888442 -1.7433604097693007 -0.23983764509107083 0.39625636233485306
Ni 6.2324272693274985 8.172241249115348 -0.001052375649308815 -1.4456122655146908 -2.6718891196567207 0.3871194330305913
Ni 7.8829449510370075 7.07014061775608 7.1123975476744805 1.2075185996979205 0.6704719706851614 -1.5310870474497438
Ni 4.018930486947958 8.496970318834432 12.409114918057124 -0.6013339782369193 0.8475621002353662 -0.8029871418384686
Ni 2.0400548539700245 7.205032658322216 2.9409944847775047 -0.33264855567622065 -0.6496997711348166 -1.9809897343551433
Ni 0.21236307874986873 2.4551709887411484 7.278080182945548 -0.5248827399567154 0.009149527709751984 -1.4509074524753593
Ni 6.403570906089099 2.851640255243353 13.403023702711367 0.7589618852974542 -0.21653316603717548 -1.071375859094355
Ni 7.449200557645935 4.060885940553028 4.067833852996343 0.11358465279739148 -0.08297644099323129 -0.3505120662202028
Ni 6.984954949591429 7.107471573591862 3.549648177399456 -0.9539859736182603 0.43260841860132593 -0.17193686748403939
Ni 1.2281810031376457 7.833285102757953 12.806939897486863 -2.102214420196296 1.5076270166545906 -1.3767635221720933
Ni 5.408001210264196 5.645404502186963 13.446712645118085 0.45400256800638583 1.782208235874434 -0.3931926358078648
Ni 0.6059618068982995 1.3605607410926988 9.325316500453473 -1.4775068002304426 -2.311317869428303 0.6971895891856639
Ni 9.014541876015278 8.35716533093996 3.5656087428394154 0.8954373266500901 0.41684087135442405 -0.009054911113416664
Ni 2.3898232063795586 6.260164951118742 11.839396333012253 1.6461675680663714 -2.4919460940387537 0.11043196610102272
Ni 0.6492022567648158 6.599642167647326 8.122239913777676 1.0043996501841217 -0.9088782826463443 -0.20268777551365091
Ni 5.0536921035057425 6.4800658681843055 5.079951248686241 1.1110785770006155 1.2954716679701368 0.5473536673657219
Ni 4.203528899915575 7.965655535888521 3.5036721091342056 -0.2878915631755042 0.5200074141422851 0.4811482751832424
Ni 3.576132499332503 2.8715153603443575 3.7287316208945245 -0.7588878375264092 0.49992761267327446 -0.2923328867763095
P 7.994193432585516 5.371479774158651 0.501132723762331 1.1591276099890424 -0.2684725352189441 -0.9919768510397368
P 6.166381625129497 0.6989458484642405 12.87638087213962 -1.996813074540645 2.167430708992628 -2.007603994508562
P 3.538987639986431 2.537146492458308 6.063523303819555 0.6932324043101287 -0.525667697751856 -0.14799475484614513
P 8.461360755528466 6.640527566436564 4.972133455925533 0.6472567089109628 -1.0654679782503522 1.2881854187213684
P 0.8300266329211193 4.440373902369215 8.0119982142385 -0.12860632301720432 -0.682439941680315 1.2341493149115714
P 6.054798169899512 4.408756108767523 9.054675444986088 -0.7830068420617998 0.8923841416460631 -0.6668436299039547
P 5.46261122516953 7.253557318014042 1.97041382559083 1.0019910407426291 0.5241713157119875 -1.1482521007271191
P 5.091451081267857 4.279688888329304 3.374540685407037 1.4437376741997974 -0.2788361378414553 -0.13184668433137292
Ni 2.0681088997937738 4.093880848178572 6.29806257076569 1.738565816594135 -1.2455760686912742 1.165666953769457
Ni 6.434090730401503 5.542800202585475 10.850022719812237 0.8319035677625027 -0.4617888968200241 1.3155959495238376
Ni 0.517826509371747 3.5795380650941926 10.27034890305034 -0.8903167175940732 -0.49922930105466923 1.1024910924419207
Ni 2.908436903902778 7.261140749969715 8.226980601081033 0.5653177080433104 -0.1615598951250895 -0.7616191204146432
Ni 4.147876744667865 8.762288084213669 1.2060960022213374 -0.5074522031850938 0.077127438411622 -0.9794105843389518
Ni 6.868700472469728 2.935727954118718 10.87517552136141 0.11915777600979477 0.35251829801695417 -0.054171858056713144
Ni 2.441846480077928 4.741710643331778 9.787897475407526 0.30451605910606266 2.1631991874097842 -0.06638742628629858
Ni 6.433653403650686 5.274700294685078 1.9297210366684405 0.41317550668769487 -0.5668901947367526 0.6510647698031433
Ni 8.029989092381191 7.3679415254141585 1.2484794777527402 -0.4950867396412054 0.9595346713506313 0.7516589238781378
Ni 3.7613729451896205 0.7479124873191269 4.540833439926798 -1.2729812001771044 -0.4278675614822309 0.9360327315739493
Ni 2.054486636747018 2.9207564915215656 0.7553405287058926 0.01506203653944503 1.2424881737945699 0.32733999897911364
Ni 6.471365857290373 8.322151276401064 8.302754439278614 -1.7213599942388096 0.9050511955907703 0.5174872188235927
Ni 2.39679251991919 0.6897126711272896 7.5871259709943395 0.7352529717162886 0.1582079479337211 1.219548534279261
Ni 8.516929167355807 7.778507601011879 9.408172240566959 -0.7029560593557959 0.9267243096888298 1.9134594527136533
Ni 3.278526992988621 8.476899812419232 6.110262367692615 0.9359887657098913 -1.6059344315779374 -0.38836667517413115
Ni 7.9506933781158535 7.486829267865253 12.23440288110534 1.3928853674346204 -1.0146598944595493 -0.5783226049434105
Ni 1.9835187403961927 4.64841116821578 2.766090768441318 -1.6562056690286637 -0.6517965057628452 -2.4380768548241236
Ni 3.9464179897325415 4.558815013245005 7.806003357366499 0.9380944991989844 0.057840565157551996 0.190589192477904
Ni 7.163802981027014 2.695970541601121 8.465481862293089 2.292372438674052 0.6566792877764432 -0.6031075251975742
Ni 1.260133770420815 1.899412431871857 4.308786935460326 0.9247520164538073 1.5320702372986192 1.7374396734094917
Ni 2.028302860644852 2.632762868871193 11.992251337247625 0.3662312767276725 -0.4781056317021766 -0.5228302283030608
Ni 0.8097839872529379 6.358098228828514 0.8986404086771158 0.21454698884508208 -0.9463829644600217 0.40839531169023213
Ni 6.483536567717392 8.843733212935154 10.796964749631078 0.006679468902704625 -0.5963750915697471 0.37378363515363366
Ni 2.2371031220992266 2.6924905372435477 8.695744631905693 1.6633476793900837 1.3311115286609334 -0.6367568378209033
P 3.246564920880966 6.085894893330017 6.342758295181738 0.04636573174873305 0.8914708858031744 0.9037784995259338
P 7.710489334022954 1.054124956312087 9.760688307647058 -0.12899867335961654 -0.7762240148120116 -0.01680575870342912
P 4.946882023236813 6.958305932264987 11.376378961789829 0.10916981155914746 -0.35694882298448205 0.09337423928778757
P 2.752422911754583 4.877654129064774 0.08475206334362873 0.2611996557066147 0.004297598934089372 0.15818300823305662
P 0.294024079399418 6.198585622673775 10.84415230604434 -0.2693703644428651 0.05356816303444323 0.3374863433844962
P 8.480221634760552 3.054699439990181 12.329514005548663 -0.42324754621171623 -1.4087932969141286 -1.3569932815237018
P 0.3177737134161803 8.743092231300103 7.800188772545517 0.4141620389706802 0.17796456173535802 0.4161160773732575
P 4.674464676775149 0.2563348878209445 7.5210086796478 -0.10403686120795633 -0.8748980690461579 0.3695690828516538
Ni 4.477397798996976 3.8704068785105816 12.479114182179009 -1.548998637622842 -0.8203860540412066 -1.5403874989150632
Ni 6.891618255177487 2.7499850477393846 1.9681667104775842 -0.42846380030533304 -0.6655313388504344 2.347606162336376
Ni 5.849124329472261 6.142738066111869 7.189015333452894 0.013456639725538117 -0.9804032872695244 -0.30453174283534645
Ni 8.228312121464906 1.3770209756075291 4.775890055114325 1.0438946229549506 -1.54875901080821 -0.4456089446260519
Ni 0.4946323733767684 4.587427348537885 12.721579298621885 0.6601788162892694 1.4105444752772804 -0.00016455060232229725
Ni 5.013420823132545 0.9789605841183061 2.554717723016705 2.1435842413923343 1.2910768813365505 0.7475790973818093
Ni 8.281247267962854 5.013206812169379 9.333541965298647 -0.560586621116228 0.8967640158813136 -0.7086721359039666
Ni 1.850059642800823 7.793572111853885 10.265704865149631 -0.615217678197547 1.200837331023003 -0.3536033035510168
Ni 2.031922437369707 0.46259214074343524 0.08150281863329595 -0.1267669558156204 0.28673559519419006 -0.6504577323467636
Ni 8.942308523534425 0.5711896777960269 11.680454112598474 -0.9709614251303343 0.32885694984427233 0.3005393338465018
Ni 8.866734739063283 2.7516692209712583 0.7730252781230132 0.5524179692625067 1.097325231970265 -0.3001855500515088
Ni 7.754231313929238 0.6601279816756771 0.5926075227967257 -0.4689553326614762 0.7690233832985143 1.196382894796075
Ni 1.3103053840465722 7.192331572899523 5.142745787209013 -0.006369650971769674 -0.19858969418487732 1.6365986934310137
Ni 6.014945606628163 8.676320810792234 5.142501070325044 -0.16140125806003816 0.9115743414212688 0.3573648274759781
Ni 3.0141490148824195 7.046636631105735 0.44516699592945985 0.19753785588159528 -1.2217103178172701 0.18097326665469476
Ni 0.8901404515096215 0.26772957588587437 5.951007505176125 -0.831172088913117 -0.3606051887901467 -0.7433264927530424
Ni 8.283126842508922 4.747163270480276 6.73670223231858 -0.26753948188171345 -0.24390718717475413 -0.3583076510052216
Ni 0.8050152647041248 1.3184284958224044 2.2438602856405887 -0.15450890181557905 -1.9404269824414324 -1.4797801696456516
Ni 0.8094648317730856 4.904907959982772 4.901820619218486 -2.538802135160344 0.4161019363058705 -2.1912617499739553
Ni 5.369348969351473 4.271947274357377 5.414939817883025 -0.10184730975580523 -1.2542142039822464 1.767716470016162
Ni 4.00945817562173 5.746640992589085 2.275578571346724 0.04316496542324824 0.32994786891560596 -2.3124440126129464
Ni 5.69091439874549 1.9380088438376655 4.721646650293718 1.2279730108975302 0.5722661143366854 0.3026430104530659
Ni 4.612699251840473 3.5837531505861193 1.3492618927199693 -1.0709279729236587 -0.7883210551858617 -0.279695400517957
Ni 4.102143532321686 1.5693423928981027 13.456912593719077 1.1892912780566163 0.28490059886798025 -0.6204367605046411
P 3.652850777215361 3.0909882554835884 10.473646291303996 0.0729077439033196 -0.5722689425501629 0.023445889727766074
P 7.527817019723832 2.8918557066696366 5.852164215631671 -1.178889108886686 1.2040154716406686 2.804185232820686
P 7.508974750140717 0.4597606826525009 3.0353295868587384 -2.2594296651994443 0.2957987338377228 -1.1212789145723852
P 3.121870967950927 1.364180317817554 1.72976035847528 -0.12710017078532304 0.584553930565103 1.3500207068606103
P 1.6698438021658704 0.6184107315774354 11.130183541210723 1.4561584164616534 -0.7985805281303407 0.25421473974834924
P 0.2631236877655573 3.4124048076858378 2.882488539860095 -0.9890072268884516 0.2883854720927872 0.5512635439430893
P 0.18958486840939148 8.94553729763089 0.7765573894977049 1.3197827339116757 -1.5724753805885436 0.06220398433257029
P 1.810132640933589 9.006493202835328 3.9773388519802704 0.7334331448987305 1.2562582309954686 0.6077632788020307
