# total energy = -381173.63172784395 ev
CRYSTAL
PRIMVEC
9.17394693596110 0.00000000000000 0.00000000000000

0.00000000000000 9.17394693596110 0.00000000000000

0.00000000000000 0.00000000000000 13.42699865754176

PRIMCOORD
 96 1
Ni 3.364269767117576 1.4930506662538676 7.647723132938101 0.9189611208036432 0.3752033983192958 0.43692170126469915
Ni 4.994241589223947 0.32237615980698753 5.5141860323279746 -0.10723659909217662 1.5412737581747584 -0.5865280235723382
Ni 7.79940516917698 4.27616925206864 10.89708371213299 0.3287754458740596 0.9224735048322759 0.10511055388810929
Ni 4.647998489446046 4.945784802275007 4.678852307292822 -0.7421409570853735 -0.49045232619298756 -0.05925492900657538
Ni 6.556344552972071 8.20470096444718 13.407784700179365 -1.2713423790221008 -0.49099302918780596 0.03280881899990479
Ni 2.274469105999562 6.995327080858042 9.441610449328866 0.978410939429844 0.4587920189752292 -0.029525006042310443
Ni 6.018219182118061 8.403793957700849 7.3236488755801386 3.498792405991155 1.7251089197582807 0.37607474518065553
Ni 8.734303738732548 6.682174407154512 8.814180376045256 1.3775849896321244 -0.5773489281762315 0.10805086746335583
Ni 6.087629263537158 2.838024657357635 11.358032338214821 -1.0283373919466416 -0.824230110377645 0.49894647970692774
Ni 1.0507288217360504 3.4197354494146768 1.415675764231008 -0.7762623242491148 3.1417114283041827 3.7813203908619006
Ni 4.435474838090665 1.3592394783634418 0.18917412198346997 -0.930181672109811 1.0976581898296514 -0.11419477557756463
Ni 4.482197749096144 8.531981516208523 1.355025884602433 -0.11838618795109287 -1.5856589691583531 0.22170134050167625
Ni 0.1507747329012709 9.10128913220442 4.380209147833602 -0.24125432293293936 0.17297173650645692 1.3328601359209238
Ni 0.8834419020060412 8.78021934242044 9.92760028057083 -0.9948312897693964 -0.24155617044407432 -0.31272636283099686
Ni 3.074134525912132 3.8302787422492064 10.113712139115538 -0.9672806338446374 0.12071972118027596 -0.5784802135671973
Ni 3.200202902711133 5.915470978061242 6.302915190271246 -1.869101238313252 -0.6024719484961044 0.21859184833841708
Ni 1.1849253153916894 1.8557426526276497 9.111628170237637 0.5391173954988587 0.7183711083592854 0.21641823772586602
Ni 0.6953310404556236 5.633491375552808 10.878460600147692 -0.3513597589324787 0.5083173793988665 -0.7681031854770901
Ni 5.1103378858613615 3.578141988651204 1.171219438886253 0.6572202478815777 0.3015600618015322 -0.8832358994878918
Ni 5.502368154072082 1.3896786338152747 2.2619659339183973 -0.14311634370792128 -0.021126754676286195 -1.4172763946844753
Ni 5.344640486898073 6.476503694051848 6.682751448407652 1.2662467096667482 -1.8673693432238097 -0.44370118608037773
Ni 2.9394242912362083 6.0459520232666115 11.785641924264253 0.495101909149857 0.5696849838730704 -1.7118024324573615
Ni 8.945607255164756 4.164513145677966 3.7447225144783225 -0.22789872756163976 0.756668204167271 0.3327909947913559
Ni 8.901453049260695 6.7625565289353915 3.820128687519879 -0.5657691937584322 -0.3158191428237077 2.0781224122440984
P 7.733040838092424 4.910052279524891 1.3811009935658884 0.2140512801555862 -0.7614877370431015 0.9765764573242665
Ni 3.4483765112955154 0.243510491430625 3.5144225064264316 0.5162065523389561 0.03974539821873801 -0.7567944453324903
P 4.603229629107004 2.467938469870478 9.289549529087527 -1.0883088874042677 -1.0748010827258199 0.47559572079612933
Ni 2.587704345224209 3.4663207512182956 6.853905186709979 -0.9065223808196582 0.53361369207181 -0.7129427382548625
P 3.903055662140523 5.773724326196784 8.594339584729543 -0.5040598896740932 0.32035482591053216 -0.8281541280223995
P 7.067755390771309 4.566157710125431 7.209345168145643 -0.02746632374106883 -0.8047388344222527 0.1047544561002712
P 3.04685120815633 7.042682994192087 2.5450335665162185 1.1336412927924797 -0.4152676133300332 -1.5655688832766972
Ni 1.171476309396395 7.336845598038686 6.5341683713947 -0.6159465859437714 -0.056553470915012276 1.041047897534775
Ni 2.344906669459228 9.118004063257233 5.60840338326404 1.3470695946520865 2.118239334869642 0.1736610492639977
Ni 6.494888283420586 3.2730899099639394 9.04790410103947 0.7659365168430745 0.5835015780411885 0.005412429264822937
Ni 2.1116590723034565 7.433795867723728 4.364607016526509 -2.827473771034982 -2.215357614580894 -1.8866703575452668
Ni 3.0198522827510423 4.90074072353224 1.5321014055582127 -0.8521430347378292 -0.5395531974846965 1.6490173788103408
Ni 8.45927798789153 1.986480568343162 10.936559205173747 -0.03885759629714598 0.6320504334841696 -0.22442516719074254
Ni 1.552644624606823 5.361520548993122 7.9648150993935944 -0.3236363248752814 -0.7529449896794129 0.010479559375085178
Ni 2.177124356602516 -0.11506331022877259 1.0580404573283082 0.23899715146764644 1.582745909276616 -0.021338870687092282
Ni 4.76022338053775 4.233216833194173 7.237823851168285 0.6229111901870628 -0.0568918280910375 0.44992711238543154
Ni 0.9538244217849625 1.438685857571661 6.706315648134469 -0.6150132754962246 1.3062314775898018 0.07957641417274683
Ni 8.97756011183707 3.6020676418815776 6.3941647694204935 0.5701971476227987 0.7349341549242892 0.028956792243666256
Ni 8.741890592728529 4.277013255173392 8.78198165759895 0.3805579777629898 -0.8249690454261985 -0.30425432080424375
Ni 0.2988614993928411 8.348254883829423 2.1751070057032216 0.18659369816526575 -0.22344737665850553 1.4127324840675346
Ni 3.212193251166692 8.516284893249486 12.332133934591461 -0.6530090380137076 -0.08493922114655694 -0.04670331759380989
Ni 2.9486808035481133 1.8467521847726782 11.764641842665462 0.5087526671640722 0.8776530060834756 -0.21257752382353712
Ni 8.812740983793782 6.281749977630221 13.094143055111887 -1.3566168720208893 -1.485605518078177 0.8161861570272461
Ni 4.939491474776526 5.359199540455053 10.413456172189653 0.25617906256357176 -0.9441877565809159 1.8225791834923126
Ni 0.6716613403407128 5.870876422711223 1.9768304937139325 -0.18908586845950018 -0.9675860809001982 -0.4626101071697387
Ni 4.40921900237543 5.764697162554649 0.10423713562096432 1.855304441639476 1.8754081543678864 -0.33408811633622465
Ni 5.909104258988434 8.292743331798366 3.3791462392335165 -1.5899583678646554 0.17723848220261088 -2.269338953893356
Ni 2.1981235208066283 2.2097377374437652 4.73151351405598 1.4567240591571364 1.3623193217223053 1.4244173766046306
Ni 0.3488329049569394 1.6284764687794722 0.6104582717206533 -0.4215189935563837 -1.6336966892928704 -0.47390727735011284
Ni 3.4683940631930135 2.6878563223392353 2.626736736634972 -0.322455931413935 0.018556422845948686 0.29432137796124797
Ni 1.5563142033231379 4.5004722511033926 12.84701894604037 -0.00632517088707943 -0.3284170340933763 -0.6855476340713612
Ni 8.76705472877566 8.768715213144793 0.1672337108386227 -0.6021590452413759 -0.5976089639768482 -1.0220021937572337
P 7.47447314779408 0.16715389750154286 2.027584436939285 -0.537976597026196 0.41397434843990644 -0.2152483857874809
Ni 7.109111542904178 8.207315539282554 5.07637226526315 1.2830869211525386 0.3729212871533384 1.9997436179238788
P 7.78879091274004 8.351172198908891 9.582794738255048 -1.0717779796287799 1.1842573151771347 -0.5700189701737216
Ni 7.912253888650457 1.1977504930052103 6.118118875696341 -1.7513930502657902 0.11465526015375092 -0.28495742024784476
P 0.8876876045808176 7.647924959767498 12.263576112829227 1.8436200633230118 0.9740596044396836 -2.256866018237326
P 0.8254487973680783 3.451376391896103 10.60291101694492 0.3345030923864562 0.5997077554874058 0.21593255633869907
P 0.6244953277052373 5.56048510699172 5.54735076737135 0.34211638595733984 -0.8961700910510566 -0.6417902864797527
Ni 5.642004798174657 2.033588785113855 7.173884194220533 0.1803430892698636 -1.612458091629068 0.1766584413294248
Ni 1.0165466959935765 0.7128688745355719 12.043534412078795 0.013543800122705707 -0.8981629531113693 -0.3551027709146788
Ni 6.574297966841642 5.747202446024617 8.872534016792097 0.23742260789167494 0.4516268686853577 -0.4666212852116609
Ni 4.1119739524071255 3.8894690469433666 12.300956276422971 -0.0692691187094678 -0.7422867386346185 0.41920731470407163
Ni 2.104815307997529 4.89805275712254 3.9685108550981125 0.2649426676888147 -0.037101275727671586 0.29709251294848193
Ni 7.0199591279913065 1.6098900525813367 -0.1103277188953681 -0.3446388952688774 -0.6706514336858191 0.6341818780048755
Ni 5.261946530525915 0.30940052946609775 11.694445554006393 0.254120123152014 -0.2159011888801314 -0.3982582232562302
Ni 6.688256733876804 4.918308831636598 12.848295042038968 -2.2612078401457896 1.2298902825249012 0.2972922876641138
Ni 2.1412909204377 6.836452670335184 0.40073175674178224 -0.23964789767776792 -0.17013323861639731 0.9759226257903515
Ni 5.061101313435206 7.550048121456587 9.517351471428286 -0.5916144369563101 -0.008305177431585696 0.4567770454277295
Ni 7.239757719151783 6.663349468339816 11.104624075591616 -0.42739730671403164 0.3481749334465939 -0.0010999179323981057
Ni 6.683761499949318 3.260154644988929 5.557273308220266 0.25521258488524434 0.8903102898361699 -0.45136590171448715
Ni 8.45156269864048 8.50294597461568 7.306207367941493 0.299534032510439 0.7551741361202479 0.8377374008354604
Ni 8.349117234827755 3.526428450591535 13.187460441867776 1.1538149395268773 -0.3803026672190741 0.0445027103980653
Ni 3.9159358834347886 8.255111802062556 7.165827634148864 -2.7594292687612345 -0.7707038563247307 1.2404078942267733
Ni 1.3599917420002863 1.3590743473212077 2.951496287818206 -1.1808063805140567 -0.3211192148803825 -2.0616799504173593
Ni 7.223272136768737 6.958924859992197 1.9385228440996414 1.1761832799197487 -0.1575417751046319 -0.2606905772806801
Ni 8.027194267992233 1.582854431388886 8.451235188740048 0.4931481278575958 -0.48293544899065216 0.022238242572910086
Ni 6.607397566862803 5.949286145932084 4.161268320698064 1.11193501146364 0.651144216890827 0.6032365945762708
Ni 6.634121273864367 1.3119477826569323 4.079135809869502 1.2569830249766352 0.051295050729550366 0.8110318665198162
Ni 5.241195062885153 5.805438660252536 2.314949146213911 -1.2251406836550578 0.22035922465148497 0.1349983425864772
Ni 7.739251600069787 6.430973396129169 6.384456898926482 1.222596062856333 -0.8069497260306425 -0.07778384104869829
Ni 6.269869716536151 3.6860367768576547 3.3155551922638153 -0.6402388828322328 0.5251604190981343 -0.6919941610276534
Ni 7.624485525717036 0.002924654236903041 11.542519490782878 0.1132763775283533 -0.3547178767714343 -0.5214616300903083
Ni 3.3051345061041597 0.3128792900891644 10.129247300611057 0.37918578000581155 -0.2914929073735173 -1.850004626693117
P 4.9996817396708835 7.201493187087408 12.01210171818952 0.7333624395617951 0.03870590121063011 -0.8484249624562935
Ni 4.2204925689953505 7.384605165031525 4.822856667462492 1.9303284605548494 0.06981419257966041 -0.6715770308238822
P 1.9651236202142086 9.14579194808653 7.749915395819399 -0.925023010727007 -1.986403963392179 2.817612819080502
Ni 8.017130448362739 2.5442473592762487 2.344676403394779 0.20682828004458575 -1.1943972318246139 -0.7958225057692293
P 4.542764145808923 2.8281626645575386 4.967492195171368 -0.4611852017977541 -1.1494669469708267 -0.01635812964304925
P 9.089592350046166 2.178894928333138 4.631911973748401 0.09647910346535643 -0.10217743940171434 -0.8223071823233193
P 2.5189823098144197 2.6795447265467818 0.311383936762266 2.2489426496251914 -1.0440851416992016 -0.5847004834452963
Ni 5.87620648579667 0.4997296513505278 9.18851134871251 0.21696176893416183 1.6142064417787425 1.066351923517202
