# total energy = -340857.44205841026 ev
CRYSTAL
PRIMVEC
9.29777847268376 0.00000000000000 0.00000000000000
0.00000000000000 9.29777847268376 0.00000000000000
0.00000000000000 0.00000000000000 13.60823862862581
PRIMCOORD
 96 1
Ni 7.270314210999637 5.560796764316286 5.291985901030599 2.4059213531375017 -3.0998690383471 -0.5153650302742673
Ni 6.993017265285251 0.3343099936431033 6.7478218295887515 0.1644852963020006 -0.26648481536495394 0.5409829879526877
Ni 2.3551923762095672 8.650104539058079 1.803254860095661 -0.21570424237797692 0.7553191463385444 0.25523366793116686
Ni 7.190065084844163 7.65877539635194 4.262018910027426 0.8556446201331845 0.9749489490231725 -0.3456421397224112
Ni 5.3519779571878185 5.732015355227311 8.405823074987243 -2.590884714788196 1.196292649075114 3.4175766564427725
Ni 8.895584486776402 8.648551810050089 8.406502742594931 0.44256784380688297 -1.5197052879753634 -0.9883420825006269
Ni 8.142743362363383 6.905757614147592 10.268709237434674 -0.797755204015568 0.6053022188560477 -1.398870895594094
Ni 1.8846504023390709 9.118712575002455 7.2553410685177955 0.04596361121430794 -0.22762721906780797 0.14972073639831635
Ni 4.704266814172082 9.124914193255925 7.082543714819005 -1.1447358600437447 -0.1692670339613601 0.6183999325802705
Ni 3.4535296515681635 4.687056626185316 3.095465693436356 -0.9067581509795479 -0.8908934160331495 -3.6494317975489983
Ni 8.239774978695038 2.7349322453373492 8.58263427966058 0.5396496138532447 1.1469909746265086 -3.1937235597054157
Ni 8.419249996906037 0.08824056676845447 5.002456797933505 0.7119472071108126 0.7329459208496668 1.0199242281822822
Ni 3.3508263903570206 6.94438058599904 0.5467270410475721 0.9091469629266987 0.328894230840111 -0.600731825876546
Ni 5.547054647706648 7.9255937457070145 11.393239284580154 -0.44099561422375666 -0.18899690829011967 -0.07146869746394789
Ni 5.045179160321617 1.2339825657632095 10.479024057122336 1.23659006314258 -0.4159204164226837 -1.3455053354887603
Ni 1.086389629997713 6.907273152041618 10.434893081292845 0.673644197765556 -0.5231827265464731 0.6170398190079502
Ni 3.440438379452892 1.694064538831376 2.073269785695928 -0.2673836730301395 0.6682073430207007 0.5738686829371149
Ni 4.98690068474028 7.314878463306808 4.134155860219747 -2.923700906390532 2.570117657444174 0.15642874454611125
Ni 1.8489004440413304 6.707361616707491 7.238276855653337 1.7795574285151479 0.4258392181982924 -0.39478980509165557
Ni 2.731929062884769 5.104127075954302 9.623800444856114 -1.9987270037339062 0.7409860175453239 -1.2576998485380015
Ni 0.4765994765573565 4.111486946480937 10.134708724045112 -0.26822956597020253 0.4397172617319653 0.0899029929097355
Ni 5.731122768492179 6.764570847762368 6.386849526344972 3.6353542364100098 3.3237465605644885 -0.5174195988104509
Ni 3.6749748418873542 4.355655907432034 7.242889483562702 -1.66662737858262 -0.23428149115953198 -0.2184815480127979
Ni 4.989280916033966 1.8329733494863163 13.39471162476889 0.5892811608374432 -0.9289827667057032 0.07819573177513629
P 5.769913100356464 7.821579497728647 0.15518271234766723 -1.9650434954385319 -1.6320151878253895 -1.7446318202825568
P 6.760052127415761 0.5690696027613487 3.5745579044071385 -0.27861733696242985 -0.8022921726539731 -0.33926940342684797
P 3.9182884072172826 6.308691470572115 6.644018641182129 -4.140245620846462 0.09678429341060106 0.17251305170248352
P 5.268065506306907 3.5691661226602314 1.1095773597763177 -0.45501532554161633 -0.024794690446176652 0.44206313625632254
P 7.44043566404873 4.475578654408435 9.6007754262011 1.1527931831305824 -0.6809929248211433 -1.1732519652055664
P 0.1292930481395895 1.0943857194999385 6.913162364937793 -1.0103700088349439 0.4357078834622561 0.12700761107151676
P 3.075695827031028 1.909865977606554 9.883174062973476 -0.7967244487582085 -0.9845540762131043 0.03619316209110541
P 4.4787770902093245 5.021414038498723 10.58918320690538 2.5140598952186575 1.7747332676536274 1.84004057350187
Ni 7.777777663257735 2.704509914114929 5.755577785479102 1.9487290745492243 -0.9790791691414623 1.45787874158687
Ni 7.752645767996671 5.897952807955472 2.249278592085496 0.48711477717932233 0.39426324316422423 -0.7146023853454725
Ni 4.702314280688982 4.855960070252093 4.814486399515317 1.1359275177234953 -0.9815273735716387 3.1159137505147885
Ni 5.952382003241552 8.25276397524691 8.917397075116194 0.8569653958271372 -1.1642749585179368 -0.34551872677066947
Ni 0.0521075399968863 7.531637573266554 3.0056240492117583 0.23490652633804057 0.8658341590716766 0.6433550598637114
Ni 0.15490191943724022 5.870143152489012 8.244510337280484 -0.7713556309761167 1.0377154907274322 4.508795775515299
Ni 8.708727032443582 4.064365805088753 12.264887422550657 1.3681644676491727 0.5504832141336391 -1.6712396805436507
Ni 9.024935181142634 3.505922633364722 3.9286033626751533 0.43295911707252527 0.8372653462950483 1.2898687199610626
Ni 3.10923291404792 6.981627486633825 11.801486142561219 0.9830772345572618 -0.4323083708624038 -1.0299947250444068
Ni 6.941135661305695 4.8707807291666825 7.337861641958612 0.9391900462560083 -2.299686198726646 0.9270559819966355
Ni 8.144370473599299 1.135268051524689 13.291615997305428 0.5252095271685148 0.7162412065004761 1.0208858207646032
Ni 3.6580435872553165 0.047044899608558656 11.744440552407784 -1.0577495265601717 -0.5931815243331139 -0.3498872881520103
Ni 0.9292376481656603 3.004967626050296 5.882215388081673 2.6764008914841457 -2.7839362527636635 -0.6192597094774044
Ni 6.793598512211144 5.381535595010581 11.269458889307854 -2.4483874927215123 0.4585881304945393 -0.3955922463882929
Ni 3.6700749126226184 8.074925366050321 9.36450957696732 0.8062105338717728 -0.7310245354572377 0.44247245587959927
Ni 9.07303258927637 4.536042107935146 6.706684738433349 -0.22009337258460807 -0.4719997759147548 -1.4330226017751384
Ni 5.178909108357092 6.3320846812553695 1.9534214209474554 -0.22222635976721083 0.11065565207605459 -1.6236652731987973
Ni 7.152706610867486 3.6293599406107053 13.60490464355832 -1.4202241644588895 -1.3238445626858748 3.1296799510609454
Ni 2.79470766325573 6.841416986990151 3.308176550641139 0.2723124777903245 1.5741162586260762 0.653773684093874
Ni 1.1985301363771796 1.192467984801074 0.8072173223616997 -2.2742315060989675 0.0935022802252196 0.2216612312923602
Ni 1.6016911095236899 5.057201187910428 12.083299019288663 0.7819015248127631 -0.23307692932846955 0.5189658602516483
Ni 1.3225439058896022 8.321288602725284 12.901522122050114 0.15737825294357413 -0.04018325708710499 1.2451191836595137
Ni 2.2795456504071177 5.395035969379454 5.138225748792048 0.8722228362068398 -0.7669657294385371 1.134349631713414
Ni 0.6649864154519396 1.155583697527436 9.392351774658499 1.2016888803900205 1.4982784855601552 -0.3268121515001017
P 8.899219918166366 2.8551339256684782 1.327968229861228 -2.947291292115963 -1.4284136422482174 -1.1078464432165631
P 0.3549268876689577 5.741564173737527 4.50050320920915 -1.5693319498635554 -0.6051623508440739 -1.4709844257308926
P 8.917527244015067 8.629138048560964 1.0367841221927439 3.222063801411006 1.2350977948677697 -1.2156502276661194
P 1.7330408262654797 8.609129229248419 9.489922662142632 -1.357985470233642 0.5999363265584442 -0.5689234231166976
P 5.876698086325138 2.8755239538991533 5.337260503614479 -2.29666283851929 0.5328904407525403 -1.381847364452904
P 2.457300579597288 4.788978874003218 0.5984496530149327 0.5373219941613326 0.32639100480228306 -0.34098201524258054
P 2.562830365469683 3.265584357151901 4.342878900229757 -0.7762476689610954 2.204105952926475 -0.6097967642922917
P 1.1222325660803631 8.774053224121065 4.523583084757259 2.0575201626127146 -0.2118522156217384 0.15765516075404462
Ni 7.296320097438852 0.7715389569583394 9.224167978646923 -0.8263283876675703 0.12166177337857112 1.2466027101835757
Ni 4.828550219260743 9.239983499860045 2.4323639376845336 0.6213068218144203 -0.9537784855931444 -0.14198917208201353
Ni 9.189505860432623 0.10867243500233875 11.361899262620675 0.7695977677447455 0.4944349649898195 -1.120874480045115
Ni 4.610080318058659 5.250660064971829 12.953342360691629 0.1753507782615948 -0.6148302129511412 0.12208369140733812
Ni 2.770300994716961 1.3620036778052358 4.603217627754482 -0.5101698592265731 -3.3509650299608094 0.6387430150129968
Ni 7.675223166502447 7.979176843150416 12.309087201940983 -0.4916700006501726 1.2363946593023223 1.5792888039659512
Ni 1.4781143356003426 6.295414242887024 1.6258309318197688 -0.301405538501539 1.4222370811238603 0.8903437141772665
Ni 0.22671610094571593 0.9470624193106796 3.2080878247416544 0.6538945259424545 0.9558109426421408 -1.7617288849741592
Ni 7.0863669613344875 3.845737841652323 3.0518107638656016 -2.1042365928326467 -1.0570869532755085 -0.6641889658899272
Ni 1.1280157843017402 3.645128972931373 2.2952747022802744 4.598282249712907 0.08913011929945296 0.2661626561388448
Ni 8.230151777956896 2.36819996831842 10.754278280902259 -1.1142510611913263 -0.48576237691648605 1.7043323493325615
Ni 3.1296136445001044 8.031365273820173 5.432803545609733 -0.7482786945519951 0.6120804181201459 0.047649997777795355
Ni 4.980912915392103 0.5462863263471006 4.853786249640906 0.7531259953419674 0.08984077221323238 -0.06494143786839138
Ni 4.528659671813323 3.427337809559129 9.144899768122244 0.8862335486636349 -1.5369211376330176 -0.7596761377556593
Ni 6.726561529291323 1.675283026279637 1.7104872049799582 0.39841351788717194 0.45710768929427087 0.3179017363843492
Ni 2.8277984569050565 2.776000532931919 0.1007386406160027 -0.43280150844873844 1.2209623839076522 -1.1893020766898936
Ni 5.851389533272745 3.2912555235654413 11.72891326232788 2.100968977824969 -0.3153841121688181 -0.7602636348280132
Ni 8.879434245537604 6.83637759104805 6.132906740644178 0.8727977348737033 3.0252257998099124 0.33644761770733667
Ni 7.066506906477797 8.21228144769727 1.6846049789946733 -0.7218477540539762 0.3458503990784753 1.854133561259826
Ni 3.7225515744255957 3.204962841390843 11.419924838627058 -2.837758183680126 -0.12141057659971348 1.0354624330271975
Ni 0.1138029491736504 4.9830885955589865 0.6683020032618158 -1.895875935303935 -0.5655876738752453 -1.7153235582367425
Ni 7.162878380536596 5.95121048315169 13.306721168241841 0.23641962054845733 0.6424741999206548 2.6344055208889663
Ni 2.455608383911933 2.0304302712988305 7.821240128813726 -0.7516555814440281 0.04451093792818141 0.273239103369652
Ni 4.275174336814286 2.206074604771553 6.616121586597853 0.09628652783857611 -0.12613883531331824 -1.917132787800182
P 5.799917031546792 1.7476290407177955 7.901786783880913 0.7276021400392502 -0.5934635743499069 1.949525345198275
P 7.51967133234869 6.959647538281195 7.899596227268442 -0.7311880576182956 0.5120220819439634 0.8966742843809847
P 6.838274337860206 0.8560213616607479 11.646229977763474 -0.24706373052586483 -0.5521320625909717 -0.8179149667928945
P 0.004693518582236533 6.619497609967921 12.487055980036446 0.20906179736079478 -1.5878318084399556 -0.1678580694289754
P 6.17836450946433 5.816299717247862 3.6987055619298306 0.5459845549323371 -2.045136701346697 -3.001275459641902
P 3.1016180334638244 0.5926338925688373 0.03569417162679487 0.34658907701671277 -0.7542876197502365 1.4292173690964352
P 0.9079466651992114 2.2932505759027926 11.74706717483148 -0.06905494581613268 0.47134645860147206 0.21481669756670096
P 1.3194012567596578 3.744299078315951 8.250838405321431 -0.13289518020054533 1.3041036326135218 -0.996832122249509
