# total energy = -340890.24917424686 ev
CRYSTAL
PRIMVEC
9.11706329159713 0.00000000000000 0.00000000000000

0.00000000000000 9.11706329159713 0.00000000000000

0.00000000000000 0.00000000000000 13.34374369413182

PRIMCOORD
 96 1
Ni 6.372152665058157 2.0685249331284283 11.134487208634713 -0.3341050856170891 -0.2715876838091581 1.6913179393507647
Ni 4.392756143884082 0.5016208291457175 6.142125508248303 -0.0790339114057155 -0.6606269595702816 -0.37545202399499206
Ni 2.873470462122892 1.815672296350396 4.790217258621565 -1.0625425770734411 -0.5185002334691392 -0.7106647408539631
Ni 3.270126540160746 4.365833455616774 4.930806935027263 1.062529978667951 -0.6910078858549841 -0.637463891190257
Ni 5.158142734716727 4.788755793355988 2.8141293197611392 -0.5049140101442724 -0.733068305360144 -0.5619547051083483
Ni 7.126179394874525 6.008627995473875 2.9098302227320527 1.3488169163604964 1.0268476947749927 0.05992135894598067
Ni 5.405443079874444 5.099857348298541 11.713565696856023 -1.6301292836565862 -0.17713589518647557 1.0066123415647246
Ni 5.710308563440487 7.984505330169392 12.750067314195196 -0.48667588986969085 -0.504729404937292 0.16160874608515394
Ni 1.9301279104742664 6.653468773820793 0.27496880921245026 0.2183987584910045 -0.2128801426656205 0.4914185467609989
Ni 2.91048573959166 1.7867985565120739 0.2699252497307452 -0.05387978073759108 -0.09729877115317435 0.34057089584709094
Ni 0.7857477285594923 0.059717677080831776 4.632801129975384 0.3151714819373798 0.4508881907471202 -0.2622167841172194
Ni 8.67604370733282 2.534625683205594 1.6456436221745863 0.16397621787606598 0.2692274111070976 -0.507470715127855
Ni 6.925385190201583 0.5660456460682057 5.025721035425381 -0.5166618947088198 -0.8314430831863164 -1.7879471952407402
Ni 0.5798734961511811 7.490561068419907 2.7039496083793506 0.50029450909439 -0.16687179425630616 -0.39393131374610224
Ni 7.352072875131585 3.7278487089586516 3.9482938321183383 0.5763335995378397 -0.3732732711761184 -0.55416837629471
Ni 7.450746852482441 3.7876384108404695 12.666842200802671 0.8313374108463877 -0.3775641852419884 -0.0009687916711725251
Ni 8.099298275639653 8.81987449978289 6.988372246223375 0.6336386039068957 0.3130418371888867 0.616309625710145
Ni 6.83602885166183 0.9213248434991002 0.18340431791335407 -0.7953635638549399 -0.35502692337142083 0.08675133465463124
Ni 1.9430194381444235 6.237265711819137 9.33837921866861 1.1168684442095154 1.1258961016294222 -0.40325696202240224
Ni -0.09177327205132146 5.0315067238691435 1.3908581679523722 -0.10103972625284532 0.060786792270069515 -0.28119949586730925
Ni 6.599413704827609 1.7088294301788463 7.022718959230294 -0.4852998354577706 1.044494975543111 0.9334981380775536
Ni 3.5129139389275665 4.3227279797861495 0.6525574608221808 0.5874338232160593 1.1857583252026933 -0.9075631633793466
Ni 5.785825199714823 5.513407344846156 5.085154260127635 1.4869206373451747 -0.4451996250027752 -0.9963256149267357
Ni 5.509040271469915 3.0183953021828764 9.170915174431707 0.16060884406572987 0.15653390266540784 -0.39253237651604656
P 0.3376075934117533 5.649889784182967 12.47335805757664 -0.5249105078708572 -0.38492036849674355 0.7108241492499628
P 4.039497287706163 6.370930978560419 12.810807925791297 -0.5693186016725873 -0.16122333772127717 1.1139875231172944
P 2.3290541373026925 8.62556252719869 1.6772287766728127 -0.38853045444550505 -0.516440265616317 -1.355372458090827
P 6.6636616507198285 7.560689520215414 5.793106086558803 -1.492409685484204 1.0432027390942484 -1.440613526748519
P 4.697922490542851 1.087483324254838 12.446057011177569 0.8258365356328164 0.8668176060308684 0.43005042806616256
P 4.107191483569611 5.918113789880295 8.424652535820364 -0.922785636756056 0.7449725129968976 -0.2663619166338445
P 4.839911636182898 0.8112381261641544 3.5777116437437675 -0.2128850277616269 1.28049010695964 1.8865703416322928
P 0.05462123863131422 5.554434130217943 3.603357943132842 0.06310181355649133 1.0397235222963963 0.9520293641125217
Ni 1.6376981014075835 1.4093521310916322 2.5637200559785827 -0.303083183314278 -0.5080348151614412 0.60213950485735
Ni 1.9574608665952926 6.388709252221527 4.7149586352419 -0.8290511859153723 0.5378809519885962 1.0033285286071303
Ni 6.135792795999582 5.8546225602516015 9.248562468426353 -1.002286717606177 -1.0582742887153902 -0.9440463459070452
Ni 8.735322853663344 2.211143156144176 10.256962561198533 0.318776939900451 0.2515891292000441 0.5378228450571512
Ni 2.461005396121776 5.117061246964444 7.1215296925323885 -0.39928435052789946 0.7602019283521424 -0.24844081337904955
Ni 0.45096915992570913 8.960277276388561 9.37719602786837 -0.8865194553351701 0.5220694388776365 -0.5850347268562633
Ni 1.756365798829624 1.0834900504786509 11.54909022600687 -1.0068316566643822 1.3490346887982574 -0.36450555228581744
Ni 3.945874163487744 6.830120994568293 1.7724090953226757 0.566169000300012 0.9528603446542493 -0.6839797753636091
Ni 5.775623205752371 8.168961757200947 7.723999830360009 -0.3062379268931758 -0.26509461988564664 0.878213763682952
Ni 5.050132884427935 2.4802606340562683 4.940561281175991 1.7918509011705204 1.6249171433280274 0.18105399929395916
Ni 0.9485392777957188 7.445841872364658 7.217190480424272 0.0898374297791227 -0.5263562391784483 0.009432606167809561
Ni 5.009707825241601 4.391443286752185 7.064724917212954 0.32592254980629676 -0.050965949524905775 0.47937884198764535
Ni 8.213735655636691 7.099803730412174 9.132498604315908 0.15496398707512668 0.4717295529725037 0.15870314240258473
Ni 4.257349518030352 0.541320170084142 10.304518987388825 1.053378908296302 -0.18252801273632435 -0.13608077701737853
Ni 8.729478816013719 7.298929512479996 5.193571643151119 -0.6408369214275479 -1.1045461751987364 -0.9301680452630562
Ni 7.377837696345067 6.014645257328404 6.948687492586416 -0.4574542740004122 -0.9837367225181316 1.537591938447797
Ni 2.1957170848443845 5.3978668001757875 2.4901690585767255 -0.3382160224616691 -0.9850119896861292 0.5104786487162435
Ni 2.48104470151004 5.149517992725237 11.568319024457455 -0.443953668410816 0.5090079777079879 0.3379136607299019
Ni 0.8737939450863723 3.606126795292267 3.8621594637897836 0.45393546221387626 -0.9236724102363835 -0.8107752704243198
Ni 3.8892298484844305 2.8442776250650117 2.7243390090027875 -0.8899313092301965 -0.8733281534558767 -0.3567541904751727
Ni 1.1314822723002258 3.4450100506055508 8.388277276203397 -0.4494769122218904 -0.28522404364567006 -0.5093908149687034
Ni 3.300741639111515 2.7201670407836476 7.163909450115103 1.0847360824513448 -0.42063016319352714 0.06256239611325355
Ni 4.337251461807762 7.097314772099618 5.848616238873173 -0.7203243754309142 0.6339885310471468 1.5255542905569726
Ni 0.7153503233932135 7.416813142448265 11.293824302542635 0.2693593086992716 0.08085091000979623 -0.058341673163686616
P 0.176054141387413 5.56813707653212 8.104576143651146 0.7136641898019193 -0.8942749309108728 -0.5239684556725621
P 8.870091285077956 1.4988908108997037 8.051241322667824 -0.6836054227433259 0.7454365971175098 0.5103158978861341
P 1.6558045893516655 3.2677469866091826 10.594385989929284 1.5532324731985314 -1.2456670857431837 0.0674174102127097
P 3.9784220798826957 6.238687973712024 3.947399448197233 -0.4782529559133182 -0.5319023658076582 -1.339240842636287
P 6.861793672875312 4.273605242100996 10.539302516182781 2.0751458461142778 -2.3118459740176314 -1.1419554690851301
P 6.330843250720474 7.741973209178218 10.125005832141401 -0.7911302424998826 1.4600487526549952 0.45866346381716494
P 2.4862870129742127 8.327753650716595 5.890141727613813 -0.9986028409966867 0.3439313276788915 0.6351203306587448
P 6.938832858740113 3.9394922190965778 1.7051971921139308 0.1627973670766164 0.41014289050895814 -0.269686095911071
Ni 5.420449766257103 2.8150027344363875 0.707685608179422 -1.1370359202963256 0.2772873052970966 -1.410208174983784
Ni 1.52196609840548 1.1438267761654255 6.733520237438224 -0.5674869477804872 -0.5358256121214643 0.6695584577319567
Ni 6.9584892474649065 0.6279942685669211 9.311864974842337 -0.0637607872967289 -0.23087272258829913 -0.7686665141797278
Ni 2.336502778113526 1.328629651606787 9.078189169253418 0.053752768241423554 1.5867365184932478 0.025707946289065406
Ni 6.477773844731969 1.7503850052287588 2.5166167478400627 0.3260053393280901 0.042600094058713726 1.0508036913699579
Ni 4.076002009623638 6.9883749813424 10.70117597713302 0.5058102967062965 0.3148963738991222 -1.5765680626006782
Ni 8.222086885725703 7.276847984886559 13.64984944854874 1.63236048697995 0.5492058900831123 -0.8273483442916526
Ni 7.881601035393533 3.7008804353742635 8.281661424910904 -1.0972393571246781 0.2613449230352274 -0.24473791060616562
Ni 3.274657720678475 8.519047875310115 12.476320191480484 -0.41430499230644774 -0.057108572087533914 0.4281228720261465
Ni 0.23848505654083232 4.923004552155891 10.303424939778912 -1.495106515590077 -0.5816254440643983 0.5894179435256237
Ni 8.536953787859044 2.2708508044552507 5.726628106955041 1.076956695616242 0.369425358184938 0.010161513914034113
Ni 3.8732385192528493 3.2241856576077605 11.539029546527367 0.0805007257592291 -1.7539870362452115 0.144799387837299
Ni 1.0252502493775448 3.544869246200481 12.99783445299981 -0.3184946327733418 -0.3746686088617483 -1.3603686257538377
Ni 3.0541706590270747 8.393031824774816 8.00683301847506 1.2460769195870927 -0.5559933453185909 0.6609005249466424
Ni 5.542490777143046 7.8746629501339935 3.595031329115052 0.5021351618475546 -0.35466465493599564 0.10470097715451644
Ni 3.046822305913817 8.550519978221983 3.818392089155161 0.7168670130099332 -0.008283837275347023 -0.8789694109020538
Ni 3.3604857556762533 3.986080413152096 9.249696631115297 -0.1353071320761476 0.42163083654389966 0.427843907333147
Ni 7.468096624162999 6.280152378127777 11.464744625520526 0.6303002835622822 -0.31233915469490725 0.21144726687383586
Ni 0.8033682770235041 8.80203240667787 13.354952562121701 0.35026112655166125 1.52027864398033 0.6829906719774624
Ni 4.429452324133291 0.39094150268873495 1.573121029526049 0.2603781882465839 -0.8181268256933846 -0.9402737662384902
Ni 6.599495758398353 5.7739821343374995 0.5190398905082367 -1.863472836382881 -0.8465891947991355 0.16307478910771916
Ni 7.643071305241963 8.777306930693806 11.486507967600746 1.3613191625925654 0.5115996496945641 0.34268562819724846
Ni -0.0024296974003513946 4.828816170005683 5.930934204455808 0.6424970827387902 -0.5656522085645936 -0.2741814126782633
Ni 8.222661260720908 0.1038716152042907 2.0633026792037703 0.35255917855721863 -0.25151173899488943 -0.4875665200047603
P 8.582730563270545 1.4697891444759825 3.6588680954472115 -0.2451037785860166 0.9352901969809699 -0.10834474455469083
P 1.8699917601826423 3.3318399424233305 1.6143265093407886 -0.21197639990442846 0.16100453684225174 0.789611234752195
P 4.805941457895058 1.191964871001656 8.137308224727102 -0.6475480148991364 -0.44175383254601985 1.0545209923205452
P 8.611586068982033 1.4481634700533428 12.543666115521441 1.1893200744120227 0.7606256461531222 -0.5590059068926695
P 6.62721163118285 7.843965797612481 1.5134069992705836 -1.5727607730394464 -0.12708577260761986 0.7857080430430469
P 1.6260738455522439 3.2704638715071366 5.918604287892074 -0.28630364986309403 -0.023215775994830986 0.3645124942643529
P 6.9111169859556165 3.7790227859123937 6.038510994232343 -0.5009359993331308 0.41153668553269124 1.206208365526929
P 2.3298564388832967 8.515246059865662 10.20749702192894 0.9102638501399614 -0.9166386433180536 0.4841340972844437
