# total energy = -340869.0354165324 ev
CRYSTAL
PRIMVEC
9.27192388187742 0.00000000000000 0.00000000000000

0.00000000000000 9.27192388187742 0.00000000000000

0.00000000000000 0.00000000000000 13.57039782155877

PRIMCOORD
 96 1
Ni 3.302594407847951 7.570488818225571 6.5299666238745315 -1.637503207523154 2.339737558221577 1.7800281975039796
Ni 5.6784878325738894 8.092025268540539 10.99492650590488 -0.3327915090119882 -0.33798976538347597 0.14108131555576348
Ni 6.481584797506266 0.8096355257025616 9.84404801830527 0.917063389560298 0.6735719497667239 -0.6882987144539372
Ni 4.411284714278507 1.4040845315827282 5.530710981451826 0.2729125732681687 -0.744279600694931 -1.3732565374600996
Ni 0.516666835855948 1.7571408517856357 8.645754766005476 0.23873567027614367 -1.751428531489416 0.422357430297279
Ni 2.986857581547473 2.01146972575921 12.212679672192852 -0.735153727134263 -0.18976978190040222 1.5042622139474158
Ni 2.9537660849666603 1.5471039585255784 7.379134851726605 -0.18242028351386647 -1.3988858079924296 2.6194920941122435
Ni 1.9539096218719352 4.152023176763046 2.426129635884386 -0.9984619445434482 0.16949586214271453 2.793521325348937
Ni 0.4970520807377891 8.654237649228168 2.0220434278328323 -0.05140560816548566 0.5091123644963361 -0.1356953686535018
Ni 2.5812201806189314 2.703062533257894 9.591746914099762 0.1441069897559647 1.2512093557176516 -0.35482097800820184
Ni 8.147230303744282 4.9503729166325545 3.848307399864928 -1.6370697195301611 0.5787828324092806 -0.2964757053000894
Ni 0.8557151333538145 1.3903249964395714 13.247978991782343 -0.02381252903856544 0.01760614311753742 -0.08158418863139498
Ni 2.635312584948564 2.9971679609808892 5.805307353989702 0.21177559674753202 3.0527062646183682 -1.371348007583477
Ni 4.482233476350902 3.9346521916578157 11.175562128316589 -0.8503003251021355 -0.3903219991282891 -1.0273521452152372
Ni 4.5094465731468345 5.810918722364796 6.047403778694836 1.9418153781485268 -1.4157375894424455 -0.9974293895138757
Ni 5.008582055196394 5.795332618203309 9.384066016715632 0.6395397998826792 0.8463112585474004 -1.2738134662704126
Ni 0.6762524093218965 6.280671477413909 3.138601888928133 -0.07877602975863852 -0.4495666437222192 -0.22343554958396358
Ni 4.943845482171111 1.6917923317795929 2.869827357439035 -0.7846780591166357 0.27460744447208835 -0.22971958282046243
Ni 7.605824120402505 9.145000583950052 5.628648459760541 -1.0847062576546738 -0.44446943170497005 0.9659344042293879
Ni 0.20172183186087767 6.662229691841926 0.29834826012293403 0.24367604500055454 0.2959995369946193 -0.046015547498165915
Ni 6.652651794400631 0.39709981335453987 12.578239181843568 0.7750307658348589 0.9971005454195474 0.0752505331038833
Ni 1.6315340980226023 1.5749475461501734 3.224489574870241 1.0998528834881252 -0.4242343356050177 -0.4854150208793962
Ni 6.614126950384584 8.78023382379714 2.8379096864304083 -0.019924249727752783 0.6174761352144204 -1.8309535235989371
Ni 0.8290194099143426 4.389273166819036 5.209893140826246 -0.1027191708377973 0.9495019697049777 -0.4365198378405902
P 7.832541204850257 6.5094098412829595 10.112307958015093 1.1161945580709423 -1.229152118807296 1.6772576046029566
P 6.088473765835411 6.138764681345168 4.072992078582639 1.8241123323073873 -2.1210572639344116 -0.40252342629048743
P 0.6284676948560703 4.412712590566947 13.373668265668538 0.35166366332614274 0.49158489713553394 -1.347390468326615
P 3.58871670904921 4.606755415011678 4.262801342551382 -0.22079579796827137 -1.5703246527941277 -0.28922699415747605
P 2.2177329459712456 7.576348674162548 2.7438256197156923 1.237281947003282 -0.07010164191309218 -1.3568588128283663
P 6.799685964414228 4.638252140672933 7.545059639597794 -0.18799932026354071 1.8642074005560605 -0.368987499316571
P 6.178995559368184 0.9027256421697393 4.376086636576046 0.6968854276816837 0.5613384116805881 1.3458802023296756
P 2.0719504856910227 8.865507708373697 7.972934822930208 0.6928508526009939 -0.442366012208722 1.751558886419693
Ni 4.160089750600341 6.531532651829841 12.161953903449797 -0.17650288958816698 -0.29132218612360794 0.5415437455521641
Ni 8.434094358861612 4.825934425287336 11.483677433129415 1.4587876265543844 1.0116329347077675 -0.15744355896387077
Ni 0.3365337517223787 4.179486615505653 9.461010004814685 0.814272742054617 0.33093285853669463 -0.7846582616222938
Ni 8.939349310718775 4.6624240464129665 1.62410543255313 0.36348251033794177 -1.4224486829140341 0.6592887003748322
Ni 4.329181827693162 4.075909953049992 2.1986485449030786 -0.06371630721203865 0.281840728995734 0.41966265707393535
Ni 1.1179993180772732 7.175866462950716 9.280279808778678 -2.0859262245592336 -0.5652801699371556 -1.220724299754917
Ni 7.927263179932796 3.036499462380667 13.032887972776642 -0.2884325232806388 -0.4124404282938833 0.1884019550185981
Ni 7.944592405797054 3.1415132730487203 5.2058079311334735 -0.2767031506588525 -1.3122208624040177 0.2801674550583691
Ni 6.206162296544362 5.53770293930321 11.320127184982057 0.9174457126003812 0.36809506940928866 0.5591321480578887
Ni 7.38192570083583 5.423009240030402 13.481579552571253 -1.556868784399538 -0.1413790493018404 0.6479005131425487
Ni 8.394966839788756 1.6603883253578469 1.4077793932771674 0.8350889074690199 -0.5522912138766553 0.3449615687156188
Ni 6.818804671601013 7.668910290964525 8.823594903345985 -0.7769138417901845 1.703075594107325 -1.627831745871661
Ni 6.371295262110143 3.524675530320246 9.298423109565828 -2.7929088885759192 0.6512488607894913 -0.10794853755753665
Ni 0.04953525370775866 1.364901380966165 5.907573893591099 1.007481117322923 0.6785755736289023 1.1330694794494098
Ni 1.8117617557804706 4.073369445887442 11.450824224994141 0.2564999362381002 -0.14208815955372303 0.375865714493643
Ni 4.396737065599522 1.259099456762284 10.664378708285211 0.8427605650816647 0.28768047560596255 1.0433806594330095
Ni 7.9957734260060995 2.8969106472996553 7.603046251986811 0.6414203047348437 -1.1125518191120323 0.04691517649429985
Ni 2.142203853467099 0.5284143635017562 10.364920598865353 -1.6599198846554575 -0.04454719048275554 -0.29016596103197767
Ni 2.9259132254181144 8.717731784444027 4.436244733554367 2.9951621476553125 0.7949110496985535 -1.1940303354034985
Ni 4.855808564257182 0.8705984256798219 0.4848149955073727 -1.2417294412516744 -0.0036106001693937823 -2.0714352300319097
Ni 4.535361600589639 9.006867460929332 8.92484338569757 -1.6796217339597588 -1.5283367383981163 -0.9816435874345287
Ni 0.73364654577045 8.642054341156665 4.6382400871717975 -0.8391314529695098 -1.3986238125802946 1.038716678298437
Ni 5.881737677501878 0.736224140628804 7.313643544091719 0.8843463589432511 0.0029781087917174517 -0.04714323334470591
Ni 4.86278105106827 3.2636152395583085 13.366665181508413 1.5435687248565222 0.35068073058758314 0.6831449381671396
P 0.7504222377748389 2.135055200100944 11.062465981540523 0.41717331499317833 0.032492316200750486 -0.0874910410341332
P 0.7916897168955673 8.348431053479118 11.657908010475833 1.2463381436682794 -0.8200664659182587 1.3858773115479035
P 3.8409315843619756 8.83592099904633 12.069213338515569 0.22161418010450862 -0.055046804462498745 0.26963338829626465
P 3.107754197943442 5.404817725238709 10.055650939520637 -1.8396464233872445 -0.024225448206267958 0.48837024685297825
P 2.124531566416657 1.0153591199406538 5.396187418425197 -0.4180837426225896 0.2883345642501937 0.11125831865706
P 5.287527887259645 7.629226456454612 7.115420936329916 1.1795563101570394 0.5274790399289818 0.6038770563737471
P 0.03696159763792403 2.981461321808041 3.393129182074257 -0.7901779058889423 0.8850528980919725 -0.20589188427324542
P 6.163873051404243 2.4536199632064513 11.590653182905482 0.14871492084162133 0.004229207589999167 0.018422982591877947
Ni 4.077374917034237 4.171698199386886 7.639346761447035 -1.1775071409374949 -0.31885098767149606 1.636287332838182
Ni 7.187308017106143 6.424033965542943 6.27663448172568 -0.8535730823161364 0.5699181829297992 -0.9681571229123197
Ni 5.7564183533813225 3.1071515228866327 6.581819858570018 0.30002279922139946 -1.184799817944166 0.6612892757446288
Ni 2.113275450740247 8.5013992548213 0.12198977622978191 0.41543653480772974 -0.09314052601042669 -0.9392219279352083
Ni 8.01891614818758 2.730340533521483 10.423205767205589 1.4685369926316645 -1.4908145730829423 1.2953791082563304
Ni 8.051108268145155 7.385551023100638 4.109809034206929 -0.07580332028355978 -0.27570427708069295 0.8690572939946647
Ni 2.6095737240608265 3.6625953990900935 0.41733856895459526 -0.047506016000763346 -1.2748545059404175 -1.6025428893978853
Ni 7.6304874381119365 6.695358276118542 1.9520608002361226 -0.3312424193573134 -0.6062766669541753 0.43856077953001893
Ni 1.6871749136520378 6.395022115500532 11.874844142347767 -0.7805542667562493 -0.31729109938354383 0.6636390069237281
Ni 0.1035952063035634 8.325640664407771 7.194210964487599 -0.17564336980134912 0.30849432702752033 0.2800047042282597
Ni 8.617085049956854 0.03166269309997661 10.593187948997697 -0.5086305397639111 0.6351429563665643 -0.9267201959237718
Ni 5.7455980181306066 3.816175547413035 4.538117216387851 -1.0410376131221297 1.0956097919410552 -2.4757270610767295
Ni 6.655609538140974 4.119617802554601 1.8879547180395027 -0.43648178551380307 -0.29185543291925864 -0.06327382035798135
Ni 7.733637592065855 7.422342017337865 12.282824558458703 0.45632838792608504 0.4554197600688866 -0.8510238335317214
Ni 2.8569393831472643 7.6991182191966026 10.352368268220607 3.6481423893136133 -0.6373494770995798 0.38405262117980954
Ni 2.679057522148977 6.474538135303572 4.641387905353132 -1.6171662957380146 -1.1849270875506497 -0.48653345075455573
Ni 8.577549566230157 0.7360989696554667 3.596697981186157 -1.3774407507447761 1.8411147804026553 0.12853098969457863
Ni 8.56451324115517 5.916414673078297 8.06804900039587 0.7121503242605541 0.046442093512623246 0.6856821027666965
Ni 5.127587199106377 7.910740611452266 4.339162126633926 -0.4438102008544163 1.5467265537592136 2.362071445832087
Ni 5.915932533032849 7.868729524030675 0.607477913415991 -0.7119554346409287 -0.9972291005776117 -0.9476142657639615
Ni 1.790056181811381 5.494996457585299 7.281576595107482 0.11841909807155734 -0.23126301604818233 0.5246027468224513
Ni 2.6705922555817927 6.017756801861788 0.6993255920737462 -0.4695358877552946 0.7783899121150788 0.609377417366686
Ni 4.398248389203522 6.745871717803122 2.4435534353729436 0.6165826768658735 -2.5562390996898685 -0.10488172570675486
Ni 3.8688771631500307 8.822856858199492 1.950894392203098 -1.099978610432712 0.6743905890132772 1.1556833601941838
P 4.792685305999359 5.500309270009173 0.47828477946874387 0.7812348377630417 0.07068476811007181 -0.015050980795851498
P 7.973446633132299 8.561175348532842 0.8324082981184018 -0.4125365875521153 0.31489997344354803 -0.9831291708411197
P 7.971786958745085 0.36826412986719703 8.183099668740788 -0.45278206533572346 1.1932188952457965 0.13104552858631624
P 2.7464829531200246 1.4679217279847716 1.1570554433357085 -0.5080309585066993 0.13623812853084924 -0.3562137445906704
P 4.561295171880346 2.2374636001387906 8.787565134065128 0.9163704772583315 -0.14806443174181597 -1.2749048995623784
P 6.364610204941534 2.003570046553031 1.2652532326885055 0.4986281771355606 1.591419525791214 -0.057938524187997
P 0.9004864725355936 3.443286581879122 7.358073676472104 0.3308333568443528 0.4902867471494008 -0.605520505514441
P 0.40862574201792123 6.623556497042663 5.9918732989604155 -0.5038793982321709 -1.0231617612829735 -1.689495284319729
