# total energy = -340864.3297394034 ev
CRYSTAL
PRIMVEC
9.32341626683034 0.00000000000000 0.00000000000000

0.00000000000000 9.32341626683034 0.00000000000000

0.00000000000000 0.00000000000000 13.64576213186653

PRIMCOORD
 96 1
Ni 0.5399246185677989 8.400071558021105 5.133835568118659 -1.1823798956487637 -1.3728150790473066 -0.1789204978907241
Ni 5.133370329656848 2.655327543098263 7.952149476874178 -0.7049653764763407 0.847031938763509 2.172594769692071
Ni 1.8408432387832612 3.4200714226886166 5.814773125353827 -0.2021344741133422 -0.360429839554547 -0.1270744597537102
Ni 1.2750703815075681 4.8957910414031485 10.69017199113228 2.2226919434587784 0.11380113968357176 -2.2323520922563618
Ni 2.3068555441276075 2.4714138377339876 8.38050357237685 0.2867008853015127 -1.7429765440673208 -0.8389597032783358
Ni 3.8827739153286984 5.45084197020024 11.007845017462747 0.21167275262108062 0.022438788619490387 -0.6408194379260512
Ni 0.9379449798920947 3.990244932348571 1.4442129987947565 -0.37833731596258713 0.0033383203446136055 0.8967758429558554
Ni 6.5768868692712985 5.001649107443196 8.451420272017543 -1.2403726701134636 1.1945381282778522 0.7813052859896609
Ni 7.320764943700684 8.147798566043686 11.313782659987982 -0.7610275095772313 -0.3973146283960383 2.6754200156281147
Ni 1.3596617354957092 1.7916156019423723 11.300628252257146 -1.2190016606368554 -0.47082632443194394 -0.4935934429251306
Ni 6.968116054331408 6.93515777852979 6.718176713395898 -0.3388837379526551 0.04233347066088838 0.6434687026234401
Ni 7.789975180756476 7.465902561636691 3.225502917441431 1.1434551935591082 0.42310767819974227 -1.4707265440838155
Ni 3.7835075044489743 1.8021230918514028 10.246002584952864 0.8479552219087269 0.2647801739690214 0.3568889162808241
Ni 9.233640895028019 2.5422717998534488 7.302802450303401 -0.2437074124591222 1.5097360925777934 -1.453578314439303
Ni 6.019738171858829 4.197812144278251 1.72339150486222 -0.5895274725202944 -1.6835719768567583 0.08697219241618569
Ni 6.381160395748424 0.9437161744384035 10.410611225006013 0.6721154198258554 0.697636189804779 -0.46069000732889054
Ni 0.11866284566831986 0.9756395510564344 8.926811933926649 -0.15527071968226808 -0.33760821367434113 1.0340951203660256
Ni 6.730061271858223 1.405924526026863 5.243165674302559 1.2087666131724086 1.2970068736677405 0.8697887728440504
Ni 6.773051543349386 2.047562019850721 12.335331644106581 -0.5571865942957436 1.360458871474799 0.7679018680995614
Ni 3.6914574176061534 4.276184779748802 1.491809037823684 -1.40546860341627 -1.0425141976676564 -0.33348647819648375
Ni 7.462266429370034 8.407194647897324 9.10711281556444 1.9773032866424916 -0.8752698505632798 -1.7886431928664999
Ni 6.294564507305587 4.0461854287586725 6.391293084331506 0.05274978089820593 -0.39027777615391496 -1.117498107373714
Ni 7.480335209710497 4.053765366022241 13.582964144466601 0.4743775321183121 0.04598186604675307 -0.2624764655365092
Ni 4.667348700896433 7.4000978910262765 9.848555613716773 -0.24757332317243166 -0.42598757085069866 -0.6930223451818517
P 6.748475018593215 2.080874585462936 1.3815242138343835 1.1621206311790953 -0.9819264087822702 -1.19230949605765
P 4.891175950449315 5.288614530610946 5.0062073255590125 -0.3930106017040457 -0.023520451719443364 -0.040118465287440584
P 7.615049248482089 4.977482812994033 2.826719900682744 1.4065677500177196 -0.7798482418281601 -0.2024404353895352
P 4.1112442260836195 8.12269060657162 3.389580122778684 0.09577307853726733 1.8010819328504852 -0.5238735819659107
P 7.115901522430827 1.9896356358180616 7.859781461543426 0.6251169395891298 -2.6308198604202366 -2.043564728873887
P 2.085135386606172 4.634632833912592 13.439001276955205 -0.8848878332690181 1.2554061674078185 1.1982837113632137
P 0.9082256588326217 3.1353342959612025 3.569649783697979 0.6273517424569196 -0.44637333359590226 0.9368158895968769
P 1.188232084246955 0.6594265716822703 6.950277562367833 -0.03331198388856844 -0.2170568997511294 -1.1958871861065792
Ni 9.199060344830508 1.3206991797460739 4.973061649094421 1.1787888358633956 0.8566946586642536 -0.2618159491343749
Ni 0.7965432547746757 8.516698169620097 12.583930277811463 -0.9350888796034411 0.6993248903611118 0.249079475404313
Ni 1.3886855297164833 4.625561150078088 7.9522044850289815 0.04947316702946319 0.9492124634890168 -0.43199675315925606
Ni 6.142723353216437 6.081282041326009 12.757545337786638 3.038023722905529 1.5401599562852895 -0.980192713920615
Ni 9.423549556924243 7.594230060401463 10.36573016473619 0.4230925086910907 -0.19955900007668212 -0.8858139446277131
Ni 5.145360242720746 0.8451975015273611 3.7570877403360905 -1.3744379593627103 -0.3835785097568684 -0.3515284232998591
Ni 2.743508412272719 4.447073672865592 3.7645930902711124 0.26280916628557965 -1.524661089318742 0.37469252012114823
Ni 3.0447013683607707 9.055815380356377 7.83596945690486 0.8029460041878882 0.7702354013287445 -1.2309158955759383
Ni 8.144274314769849 0.0849848021462254 6.8725650247549215 0.020272119985474766 0.2620938853861099 0.6976307904881406
Ni 2.4484782342058464 6.330991093884632 2.4374738062203725 -0.5563273316192419 0.3635120780242965 -1.741696648913633
Ni 2.8278760042752196 0.30164793879218754 12.496993152340524 2.2912318973117056 0.15229955286908609 -0.1639348231151693
Ni 6.019933963596265 8.627171326613977 1.9342592060800956 -0.7238293032603792 0.013758744346989208 0.7075462498296395
Ni 8.103475046054749 4.799163157270767 10.825305583626948 -0.24453993566274657 1.1879131667621672 0.7494495749316448
Ni 2.9165883081655712 3.542320054176824 11.986137080390629 1.0179804741923502 -1.4718364893185425 -1.532698872021554
Ni 7.756830436633489 0.8130214603338778 3.0618629803177835 -0.557401281409711 0.1539784832334058 -0.5850077302730698
Ni 4.826965583986588 6.157892551159642 2.8057049208646827 0.4990251554636632 -0.051908773054149315 0.6157864062168233
Ni 2.738026243624529 8.633744334942165 5.303152533286325 1.4016271181829925 2.3559277948281943 1.6879263971707124
Ni 4.776404698647926 7.660482254983159 12.07528478781137 -0.9566493793830365 1.2677304933011264 1.0886248759827897
Ni 1.828592270069449 2.231130758820467 13.612343160839579 0.5789910917653449 -0.5317036195332908 0.7681193834270061
Ni 6.849186558963534 6.321443915830641 1.4315499350907233 0.5582379183783933 1.3440881434262593 -2.1609402161722784
Ni 4.518024869145737 3.132649152133518 5.2766386026711505 -1.0430168483356876 -1.7263944713389234 -1.5064869895128765
Ni 3.5206617586500464 1.5261872698925116 1.8858035480896662 -0.8863651891454928 -0.2819176049802564 1.2660129963893871
Ni 7.508109666178113 3.144396656379639 9.44210315490026 -0.6124187752961711 -0.839877844217231 1.1203723435977155
Ni 0.654800292629155 1.6119720211374013 1.953172687916351 -0.2715025802945195 0.03594890729078325 1.1685324482427102
P 4.523861327604524 6.025733128390779 0.5724372350813497 0.5558887014199265 0.5217650202633402 -0.33896832724666137
P 4.942165712927123 2.9091855158073012 3.056049830399167 -1.709197904954979 -0.3261950867413931 0.6162643742945064
P 3.4232040904875825 3.9158627189552737 9.438827838835449 0.022685357412657706 0.6983915799135649 -0.16039467117239473
P 4.595530426921932 1.2497386600498608 6.5820604328476255 -1.7970620130578148 0.13537809452339913 -1.071774122974038
P 1.7553008963561483 6.446657393628583 6.543647958646024 -0.26007736917671337 0.1731807671934695 -0.3320291769246669
P 5.157228951375756 0.4427438558625647 12.113834316229179 -1.0764298765784945 0.7449023218805946 -0.15552603022618375
P 0.6114240317127626 7.349294596869836 2.8265008004051375 -0.14454587706559624 -0.1030690979780483 1.1525239886295957
P 8.887229371008468 0.32464041515834585 10.858956589242442 0.04422323148443351 0.5472343681790381 0.8315112174200905
Ni 0.7109841301986399 8.132340342202362 8.272143101464058 0.47512829424140757 -0.7030259933617827 -2.1375989703431766
Ni 4.475836411436452 2.1689901907249136 13.646716731200373 0.7927518372637056 -1.3475820155121307 -1.0847718207852866
Ni 9.02380809299373 8.74204513599212 1.2924063413450586 -0.11921562583092371 0.21669617397760102 0.1700792454500103
Ni 0.4581424098410518 6.230736400901662 12.091359289454815 -1.9178645237598844 -0.002334561670447592 2.808621671325486
Ni 6.880065712981909 0.011358717796071003 13.389672014879173 0.303369089985813 -1.0307259467834764 1.468990278118999
Ni 1.952239413967909 9.068355374968307 2.9392013214977477 0.5540956140752457 -1.5156771406525769 0.32882121151033045
Ni 0.5410285110302916 6.399350380497775 0.9105117604525812 -0.329578144281013 -0.8328222229220301 -0.5735298115404575
Ni 4.086844846232747 4.661120658962775 7.054695160625322 -1.3934507530197873 1.445862176741968 0.9359226883586461
Ni 8.289038996063121 3.545462045391858 4.575628662982432 0.024976981660311825 -0.9531421375607263 -0.5824415122077904
Ni 5.649943520339856 8.896869783223144 6.18813491586055 -0.23037727100911937 -2.2952569593106986 -0.23920669637529127
Ni 0.4596919615916116 3.2047284817579333 9.590145949283166 -0.5336514872882809 -3.5995444258002527e-06 0.4844225750591399
Ni 2.7160416285353595 6.691024128780041 8.495659881261865 0.481933490088699 -0.4754059733828264 0.2627711139587926
Ni 8.652064847516472 1.795680611348173 -0.0886032199223521 0.7373419930348333 -0.28273470156491304 0.7738609138964737
Ni 2.6491647650770833 6.697653077604638 12.826156356633627 0.8140932790539592 -0.5738265168452698 2.1533919715113754
Ni 8.568480422463713 6.104497347336201 8.200515957518958 1.2852078241502833 0.08279826354415418 0.3079014306385278
Ni 2.411324421173471 9.229464004629397 10.043239729323206 -0.7046732991572187 -1.079885953447895 0.6606174464885849
Ni 0.20831401755675452 3.8759864684309395 12.585240217769064 0.6706874291300772 -0.6291116625708197 -0.18240125735047297
Ni 5.458291379638851 9.166437712007351 8.744149430998746 -2.0082197737156897 1.6787624712832572 -2.533390477226469
Ni 3.6471432210332853 8.020953490433781 0.8757158393438915 0.9182895486579153 0.6550944597878267 1.2516965797667152
Ni 2.5179749775793283 1.468876231320363 4.311296764662209 0.15244096354295683 1.724256341949998 0.3291374571991686
Ni 3.047507716597344 6.634897164048573 4.586313297796761 0.7590094507059381 -2.2803162788404667 1.4516731269967902
Ni 0.5375033274148484 5.3697096035734555 4.850904387083684 0.4404078600410867 0.7678967258932389 0.3655093109599834
Ni 5.13132850153788 4.211107335591718 12.950251024503368 -1.1785021578609123 -1.3775091420888663 -0.1888308150259006
Ni 7.248200796440715 5.746291701990188 4.663398369508274 -1.3713531497897995 -0.018442265865587594 2.0374519311079298
P 1.934776655671889 0.03792113017480062 0.8485688487776765 -1.0563266780707163 1.2660831875056906 -1.559505707801753
P 6.613807596901965 6.36919845293273 10.316304871474651 -0.2110145502117914 0.1129094811072378 -0.6528830539588046
P 8.243456814904958 4.569499449259098 6.505125468134814 2.418444425305177 1.4533528286920583 1.0624561880072219
P 7.6149280440732 8.287295517258341 5.054662983549442 -0.9912903664956735 1.183282352858375 1.7353015440205664
P 8.226199171762442 7.343271670089682 13.410072581578328 -1.0818739304122014 0.10993522897026227 -0.6472153141500661
P 5.9809341141823555 3.5356258414397486 11.055741270489076 0.19861437677522567 0.40092908522017406 -0.6680055114225398
P 2.2320631004273026 7.183291173772861 10.912283732128586 0.2800597258359112 0.5499515099998852 -2.3821162802981037
P 4.912806275727887 7.247119280176786 7.59079624626349 -0.253538282506615 -0.28257580738954563 0.5106431993185657
