# total energy = -340885.74227165093 ev
CRYSTAL
PRIMVEC
9.11976553315182 0.00000000000000 0.00000000000000

0.00000000000000 9.11976553315182 0.00000000000000

0.00000000000000 0.00000000000000 13.34769869779869

PRIMCOORD
 96 1
Ni 6.540878136443073 2.1233640966316853 11.429981628654238 0.9877206468665441 0.7251115124069125 0.5213299896084506
Ni 5.132047658492287 0.07205617836068481 5.993036501624475 0.33482036651655883 2.029786701253188 -0.0542505338134485
Ni 2.8257957866337136 1.5327863291966155 4.458198225214034 0.9445196859990379 0.9616352626334019 0.6940207045393789
Ni 3.547716415284384 4.270476062351373 4.48257079823158 0.3671566167554193 0.778138201115589 0.8254341579880752
Ni 3.7463996241750293 2.8673363180069296 2.4794280089165635 -0.38824249089144103 -0.4325184299906809 -0.18781754327003783
Ni 5.3994300601018 4.45883569681513 2.6460078196645096 0.2137278353778964 0.9901328558524627 -0.03107563835888196
Ni 5.5430116464771935 3.0491206016210506 0.5992807595513067 -0.1142189439472807 0.4760477207318834 -0.22119971827490936
Ni 5.723783636132493 8.576555688803962 12.031935391442753 0.33651909437522043 -1.572884185991188 1.8429929712619741
Ni 2.0526311962297825 6.787266838113806 0.01489075293659442 -0.6556014813312322 0.4537953370915862 0.7027809672305122
Ni 0.6165727467163462 0.32217760000749984 13.480641131605669 0.6782385020044578 0.5137133536034573 0.3444134095216327
Ni 8.569305475315113 0.360965786184572 6.625556982086671 -0.21999232823036954 -2.806475828627076 -0.2046670107272088
Ni 8.854179586951812 2.741346759078064 1.5444359175119058 0.31740757035675016 -0.06025894479105752 -1.3692610431474612
Ni 7.352582855405338 0.8892354924894353 4.620986949487372 -0.4115132884939235 -0.8019491874922576 0.8970203548664939
Ni 0.8434278228880022 7.436484697037301 2.3940834203991472 0.5238530131406203 0.35515316453664 -0.12063513188626965
Ni 7.736853290079727 3.9215447185817514 3.423003623510787 0.9909903187567513 -0.014217172040646483 1.1869479746354203
Ni 7.717875058293194 4.087506209235932 12.590336802611963 0.7156539665384385 -0.5509663244176447 0.27082792282499807
Ni 8.265644646965173 7.242452568497993 8.791141032613483 0.41121941140258855 0.11582614053340053 -0.035169091701965235
Ni 7.117146991973735 1.0297127107244464 0.4540165764605765 -0.8779052313035978 -0.15605182082266672 -1.133481627286164
Ni 1.9731889198758668 7.010600772866537 9.163061480990262 0.6375425669469923 0.8203444021699937 -1.5199891377643693
Ni 9.398921413512724 5.247285014020709 1.200345345213832 0.6270416674156685 -1.0389470491416881 -0.4055179901424371
Ni 6.699562054312221 2.0841582251995323 7.056540679066194 0.5190854165486479 0.36483876725552 -0.8878998806224644
Ni 3.6113176591475695 4.719360034847769 0.014130164502669889 0.7972798070410462 0.44191709759676145 -0.38373149039496496
Ni 6.159197715140801 5.515989781612465 4.787539400939132 0.425908380873331 -0.7926952729941574 -1.0948605724798561
Ni 5.475543622086622 3.163692214275654 9.089248835814544 -0.6211870084071044 -0.5214336050658503 0.2637465904981845
P 0.16755380169210843 5.965183826132282 12.456672961103394 0.0325643070892665 0.19856372604294836 -0.8518342452481588
P 4.022044533232211 6.790148683978556 12.36110329162535 1.132115857286889 -0.3114292412861282 -0.5071616685278685
P 2.4681368273812883 8.667798941578722 1.305600205541129 0.3234494056754558 -1.123308286297588 -1.0260038587174587
P 6.976419892166907 8.011221431981639 5.796318602176404 0.914746054281031 -0.5149395127010745 0.8960443641064697
P 4.864428142982511 1.3721051827060122 12.674226788548914 0.6567677337251915 -0.7541883751682108 -0.33463627553021075
P 4.233823725229759 6.444500455751053 8.037276601714522 0.0770418206763512 0.11638664102256083 0.6779541379948195
P 5.004626296396442 0.8988440773093741 3.8770129041590478 0.09518403880301672 0.9159950961967837 -0.9198311821134223
P 0.3944626844795936 5.586120777498311 3.4512210896187714 -0.3613248405649906 1.0128395534213588 1.0141307614289568
Ni 0.9452454436380074 0.014995630238634374 4.646387320064909 0.5930434560933528 0.9427854769167505 -0.7639223146265232
Ni 2.1859439267706553 6.655167036370438 4.7533959112776225 0.10839950905202621 0.1806505932079534 -0.4949252743626767
Ni 5.646986091743063 5.7100401496825635 9.65667243088881 0.6752781338245532 -0.23857754743172457 -1.5579987842389231
Ni 8.87362292677348 2.819922657719476 9.939764540367367 0.8645092696126659 -0.24564988089747372 1.073839233033183
Ni 2.5349664681942254 5.438252901387373 6.667882725260378 1.7596648033562794 0.5057524468851676 2.0567619442904514
Ni 0.3799640814549747 0.262641035580767 9.119721619904658 0.8474209466718114 -0.4377922767951105 0.03681665460771724
Ni 1.5936242841451833 1.6870380410839 11.026279709853192 -0.6795603061396748 -0.5992585837651293 1.3930753719582396
Ni 4.1089376579136605 6.98705353861722 1.3085112346551424 0.8809306483934829 0.9734921619719878 0.34066885487753584
Ni 5.919557639862205 8.031804742477656 8.299893013928724 0.2999814044605027 0.14574606802128448 -1.2564873162871395
Ni 5.39200657107045 2.834724036955202 4.887326961912261 0.3319836683987121 -0.4795786167032773 -0.37111662984443183
Ni 1.417412177187272 7.9463343011977905 6.98371570448273 -0.8634872561060548 -1.0851415454198794 -0.5244371677788646
Ni 5.494357698096049 4.5729513211999935 7.130193728347505 0.42819820534877223 0.7276607611913275 -0.38871634520406606
Ni 0.9481911278605208 7.8318447664317405 11.290885142899995 -0.715485045060742 -0.06227031879413147 0.2975424560017069
Ni 5.1098683890521865 0.679920461101557 10.279836944032501 -1.5300195254171778 0.6847346512517627 -1.722455027075201
Ni 8.954515245825165 7.260272590079389 5.049314058807396 -1.6952622687104932 -1.0586157312152091 -0.3222795537370708
Ni 7.355820372120484 6.093115895090236 6.8159220529607385 0.6195718414011845 0.3640440392683666 -0.13488984203307092
Ni 2.8324805746680863 5.2394328960158045 2.3790002404127226 -1.0731964572428614 0.5582358614958643 0.37628994651525516
Ni 2.3373046730277953 5.878473096758728 11.084836811476528 1.8197987925336983 -1.3829714507550184 1.821285918602186
Ni 1.2517242794949353 3.662880812689647 3.9109958859496112 0.5561753794224098 -1.0584018154321901 -1.6286424146984144
Ni 1.8196394299239802 1.3244635282836892 2.153837792698338 -0.3638902872993217 0.7811898434577191 0.9360345313461621
Ni 1.3516860279871032 3.4491135118360376 8.039612173632126 -0.8256460168885651 0.5795546775782987 0.005913537270957558
Ni 4.0871961372125085 2.7738678424758443 7.022798459082054 -0.7912341150675987 -0.12622676704143423 -0.7074680882935365
Ni 4.835345211138563 6.874515633645652 6.0733360359255 -0.5242217093339488 0.10766674465105973 -0.2926596739881088
Ni 8.10506381789391 7.721942473659264 0.12173062848950413 1.3418006329436634 -0.2602426911099841 -0.028571383879789504
P 0.6243765299646583 5.854798185793882 7.859405609431302 -0.5036891365982358 -0.19598079580712055 -1.4126455807806833
P 8.748262631656853 1.9337824136050286 7.851089295367802 1.104749035238162 1.6542315760214286 1.5491338776491257
P 2.040711662858807 3.7207092450579378 10.317383930139345 0.10647375278422307 0.4578821055664501 -1.0413672285474065
P 4.243399478894276 6.394223189129639 3.8696049187288692 0.6414606710544759 -1.6034204069068323 -0.6323684789452206
P 7.026624200665164 3.927016577818619 10.221427582608563 -0.7354987691785074 1.1601493663853375 2.8286904170509026
P 6.910128317512262 8.20727814843859 10.145612236952152 -0.45868763218688097 -0.9601280819602562 1.410577899618377
P 3.003768008312817 8.798138628600897 5.653364455660172 -1.7044879010738194 -0.6952558624980607 0.3554303294574266
P 7.211965192783248 4.384190417058868 1.3550986441978292 -0.7529529600992129 -0.13448129374074258 -0.3027538249993173
Ni 3.0612681291268955 2.1073771478946384 0.12801414684650655 -0.6562907940887729 -0.3738368569890723 0.005443282502758367
Ni 1.977256335241938 1.1474032831440637 7.144342132380964 -0.35709074787898504 1.1763576007140837 -0.5913570695298654
Ni 7.2890272103691265 1.0384950447996182 9.299742140891427 -1.0319924722007259 0.5034538806589781 -0.6799395438559644
Ni 3.1497116139254584 2.159295972287113 9.248994294375642 0.35134536075477557 -1.3752542846164186 -0.8309257772302657
Ni 6.652877975256348 1.797250405879799 2.651453231581732 -0.958662296048007 1.6052890846844547 -0.40012998635764635
Ni 4.222469617313259 7.536145493271441 10.142288994442296 -0.8194311463271049 -0.017769151057962944 1.185535924779242
Ni 7.451422872753948 5.968257187070322 11.177189027723292 0.6157085017910363 1.8224280026264288 0.00552118692854533
Ni 7.8968504541657225 4.424171468549576 8.473572562036505 0.21207153072139606 0.3936919440417865 -2.7062670829159585
Ni 2.8751245976540707 9.11714802211025 12.364359959847825 1.0118188254663283 -1.1791912135081368 -0.274482745968766
Ni 0.3824692810089203 5.470856062673706 9.975962713172322 -0.37992008706867475 -1.450401202262902 0.4345323750969162
Ni 9.037578069040809 2.38714419091026 5.483942014038674 0.5276258499194914 1.0630645110151822 1.1229069370941112
Ni 4.123538402310701 2.8702455231678643 11.325308609359126 -0.36531544978162245 0.8352637424839874 -0.11963420142558107
Ni 1.3227216530932864 3.738219194615913 12.300771483656193 -1.4104881681180481 0.6586626367550592 1.0413366324197872
Ni 3.5973370587973736 8.530865664176122 7.902384327807274 -0.33165919517975784 0.9421424440161128 0.20882448453900812
Ni 6.0611875964431166 7.926872721845333 3.855642557909463 -0.7667929513060987 0.00010567233992885026 -0.9228895093237719
Ni 3.265113125230986 8.264139885675034 3.3841224157266883 0.26393530947022287 1.3997916076361505 -0.4346748142120514
Ni 3.492140564968603 4.767521515897594 8.979838098396847 -0.5150230735538163 -1.3847614527759053 0.6473266429169497
Ni 5.400469713356805 4.944426725025509 11.862727264308031 -0.3145266492645293 -0.919800843096119 -0.5350285701414657
Ni 8.204259506092917 9.171018476297208 2.3272784029527753 1.2688761768697954 -0.8500578700740263 0.4414172751422075
Ni 4.754817682702668 0.6651364094200816 1.5799537558184105 -0.6500311863323063 -0.7465316299539013 -0.15395740018748325
Ni 6.236287092022865 6.435398929887064 13.358376996840569 -1.0632460308983689 -0.48679081818100034 0.9555494614506381
Ni 8.219106484155617 0.15310079749446337 11.589085967708082 -0.5010887228609111 -0.6946254280029134 -1.2340307870558362
Ni 0.5337160301986252 4.958799475287679 5.740418088212571 -2.02228525066982 -0.27077547232050786 0.27366513516347707
Ni 7.537039230280129 6.316787261162575 2.3030252988619018 -0.39299208976128447 0.5580908512775679 1.0287068594709186
P 9.154511700932659 1.7156102660657413 3.4355104697731864 -0.48935549358438296 -0.07892232552851569 0.17422309241505476
P 2.091536115403908 3.7283607282241573 1.0224670571182948 -1.327848027418313 -0.4746788654088148 2.1056784674854963
P 5.051301255686918 1.2044474156884033 8.090347252476358 -0.3280840762339898 -1.2362177674048258 0.9755400456399522
P 8.640977711552678 1.986686172660139 12.430190986350034 1.096305532456499 1.5907952619436538 0.434617992832187
P 6.416739889889348 8.175185694014363 1.5053267155929373 -0.4245099578639076 -0.5363927974788439 -0.4068727043981187
P 2.2605527274653388 3.363205321817224 6.040714635108378 -0.7889548321151187 -0.9763044346098023 -1.14783763889752
P 7.229365705156486 3.7395598001289456 5.7178202215408485 -0.07322604647468679 1.636869173483581 0.14943405839583296
P 2.314733253675718 9.046980547162825 10.040578986923949 1.4484384221095765 -0.15144029019258434 -0.499208732229379
