# total energy = -340859.4479658444 ev
CRYSTAL
PRIMVEC
9.43240575415200 0.00000000000000 0.00000000000000
0.00000000000000 9.43240575415200 0.00000000000000
0.00000000000000 0.00000000000000 13.80527926338974
PRIMCOORD
 96 1
Ni 2.4678097972741373 6.503370352658503 5.400694744837722 0.7315541827084627 -0.8781715975911071 -0.4264454843237237
Ni 4.007914173587825 4.78530477356238 1.066217472399428 0.4679639152824844 0.7054842250942882 -0.009139243297106841
Ni 0.6329257571497695 7.26983822655991 12.73196057181107 0.0033979699379554384 1.4805957235684115 -1.0577323001689911
Ni 6.099003110209625 7.279987495346357 10.218916728633321 -0.3789124717397668 0.8653096540267743 -1.0655273707333777
Ni 5.741920518714706 7.533228729898899 4.374824388826796 0.32884152322530463 -0.4715104949831621 -2.036108786816474
Ni 6.514510024068163 3.7091898776149788 13.01346412426773 -0.23631651931168976 -0.3211369554921953 -0.5080646399581121
Ni 3.160054068870198 1.2727899921055899 11.262388897360221 0.0726262081071588 1.070254343895402 0.23051739613140945
Ni 2.926743508059072 6.996713480295631 1.0675219741402884 0.19689662275317057 0.0336714241105162 0.4081497713383293
Ni 5.234051485937125 6.6497895899930946 13.624540656308831 -0.4020778541126366 -0.8334457154386421 0.041211184130987094
Ni 6.799142305573582 2.53956210922442 7.00156833963056 -0.09956365592795112 -0.2482106996461145 -1.3146143023368586
Ni 0.1288362894304869 3.271922403263566 4.719473182817723 0.04737668951175067 1.2007247167045385 -2.580697489842549
Ni 2.0597450516985987 4.374797034849584 10.447960068999292 0.5368365698844819 0.008420105742895177 -0.2515431064534571
Ni 7.800118655839907 0.08397482356132183 6.792652810290055 -1.5604081650113644 -0.11505840912944057 -0.5866537505169251
Ni 0.6920160073724249 4.901738392428462 12.722545144206395 0.19602836121560432 1.0286721495782414 -2.183757728287426
Ni 1.932049140145697 1.4455067771879642 13.718996769345525 -0.9154397379139461 1.5408233009009014 -0.957600687552712
Ni 8.536931045480543 2.6230483341582898 1.7113855492127013 -0.8791280479671054 0.2534611494117764 2.349682842359747
Ni 5.364114931379803 3.4038157354577034 4.285365564454656 0.17691889407966305 1.6270231339274368 1.5677543209637903
Ni 6.878261326559381 0.49764336150305766 10.135767240591344 1.2373325977355594 -0.23803298778216428 0.23670861254378586
Ni 9.159120838194685 0.700484421421191 11.951616685538154 -0.03378480975992891 -1.629911254108509 0.3667511537868845
Ni 3.264791504376434 2.28544366091989 8.681960889420855 -1.2563397349656815 0.2792143471164804 1.5139143923251992
Ni 6.423562766039423 6.665852977301012 1.7138153369816498 1.1235659108343488 -0.6389263346683963 0.838330297224453
Ni 3.7255739667246988 5.860759401094306 3.3005252310219513 1.927445739690416 -1.0015796642368233 1.131902455724502
Ni 2.085778492080192 1.9533286479358687 4.556901893559422 -0.0343926185472569 0.3427956714125515 -0.35836498660571825
Ni 2.389662314099681 9.0650137241776 9.465507077508825 -0.9978929594138555 0.12511296515196518 -0.4108214046332215
P 7.262065924069174 1.5212867264726455 12.222187136275139 0.14717997225433363 0.8687055670822007 0.32041524683482236
P 2.085542681931808 5.1380012962973565 2.2280889733893403 -0.8297451266586032 0.2960257622468644 -0.8880865427119737
P 4.983913512937318 7.9678174009646705 12.112918372957555 0.18254112536244693 -0.2831476207326156 -1.0211033360920478
P 7.761285440604031 6.631424695636948 4.411035395212642 0.8189922590174733 -0.08785408080050676 -2.2924662839394387
P 5.243983809387059 1.8886883700608477 9.99863892310308 -2.2431008461324335 1.0288858082509442 0.6202457275397577
P 1.0162757126934783 1.657415208931759 8.459391952488916 4.422169653584622 1.7812376444310485 -6.259853039708226
P 2.0239019091442314 5.923249090416065 8.81457391418786 0.7685667553770699 -1.3092401825091389 0.4289679936352612
P 5.973193679843796 1.0226520191057815 4.953983545663827 -1.5962621985954961 -0.03879974647601705 0.7823535247485172
Ni 6.8380981420866185 3.1729387353778997 9.232336116305541 -0.638011793273927 1.0928934214511565 0.8113208585151447
Ni 4.395001248363124 8.49138195721869 5.824571975723297 -0.26813597781513177 1.1031269262537067 -0.38562845030736165
Ni 4.3399254301065575 2.305553550374077 6.6657001723248595 -0.1813638172248941 1.539015558268201 -2.7612804630373606
Ni 5.295314962487288 5.5211267605798025 11.260110971326831 -0.012297329310114305 -0.8206711893817931 1.912367762311371
Ni 7.9813246062641054 7.027500853268644 6.40145320652694 0.40029659384249766 1.0211727558774024 1.2694647023834138
Ni 0.0865951459301648 8.036004263471385 2.931965287984887 -2.3195088898795277 -0.49462728350628354 0.9190891617410752
Ni 9.357852198846782 1.0559861416813432 3.543732272140457 2.3495265192875405 -0.9153242953820042 -1.1084593942102134
Ni 7.17470298029587 8.683406877250746 13.088274422222256 -0.5071195024360234 0.5687928110761042 1.3423480208067011
Ni 6.583838207693058 1.4310468988890575 0.4945551917998209 -0.4138023416384164 0.028429458985286524 0.16692578742269318
Ni 0.31049027913661487 9.04350783864498 0.5229637119959377 -0.44791805237520277 0.23479725445368596 -0.34309186249673174
Ni 5.282750997781388 0.682923168050738 12.112987229520884 0.43892459062734085 1.3613297041155266 1.8857774134173522
Ni 5.06050464913244 0.8474130086762918 8.10269137343438 1.780034882372199 -1.243332009852104 0.41115821914734996
Ni 7.43876318445627 9.048431554543239 4.091898429555083 0.8290049060584691 0.1729208286638635 -0.2908208210071572
Ni 3.7930816960040694 0.7238607530507934 3.5595117440297206 1.9708174218078318 -0.7291823400421764 0.16249500534484917
Ni 0.1379055477373354 5.845007283182255 10.529093851892883 -0.6147988454925735 -0.6471281537528983 0.24668783524368484
Ni 7.818889143651273 6.193308304751354 8.729975608594211 -0.3643978230633595 -0.8006379248800017 0.436767435075022
Ni 4.364449685538493 4.288669736253812 9.618538431404103 0.41856890978912437 -0.7248945113000999 -0.7387471009124761
Ni 1.0666353279823646 3.8828593356968244 0.7732375116412152 2.1938413377756736 -0.04117030359072264 3.549407142824229
Ni 0.18346123868334296 1.3252907635418028 6.128342608871562 0.1790516241519497 -0.5092347490068133 0.18671788244795584
Ni 7.42790648522467 4.680520176026468 5.628053457503636 -1.7437579023180354 1.2122340028957188 -1.4782321084322414
Ni 1.0651450078445777 1.6977576091172932 10.374998522608093 0.5517728794793401 0.05360930068502381 2.5007600927859577
Ni 5.195340891978408 5.71487781089803 5.5634311011998925 -1.1047919726609554 -1.2525249892052814 0.8078370137316022
Ni 8.0101594712085 7.596397552448004 11.262085173889103 1.2380849025205516 -0.399773374349176 -0.11398188823581015
Ni 5.632617798735757 1.8935554915234933 2.698118023276039 1.0110942885954781 -0.9647051598079773 -1.8385881573260592
P 4.172245549793665 8.340642677965704 7.836207984189187 -1.7710275366672659 0.5840937030992327 2.4900745880476536
P 3.397524320698818 3.8478745420825753 5.2673214681523275 0.01285603002706173 0.4310521298577996 -0.12640134494608554
P 1.7195181696101682 1.8081356233728745 2.251751106918784 -0.9046117940605065 -0.6834030769245327 0.00973548212020904
P 8.726239432603215 3.485481506046049 6.534411457351179 1.302888529259498 -2.5574457184034602 3.1127507794057747
P 0.4452614383816302 8.55911606424051 10.642544944002202 1.2112086469549979 -0.6572737268273325 0.42215816980227944
P 8.396916411776061 4.442238737287406 -0.0012960125755184459 -0.29441342345442195 -1.7833719171652316 2.409499814517379
P 7.452374146220994 5.010531762486903 11.061687107108229 -0.25566946991700484 0.5352725678314717 -0.6371515021561608
P 3.8842176021515167 7.937256405734104 3.271533788139029 0.1871058619149939 1.0476646315203442 -0.1748265303270086
Ni 1.6883157707759981 3.062834260894444 6.520661839219205 0.877070136996812 1.0137800629577574 2.0741251181592473
Ni 3.783951127058641 0.8431750286895345 0.9355758204729132 2.2393238955885044 -1.1249090551258047 1.4784665930405503
Ni 0.49589742316442254 5.638352701544455 3.520636082967135 0.07580409161450816 0.48530472055377705 1.3949342795438493
Ni 0.3036678199235691 5.295805447595926 6.622475228885479 1.1329452951667198 1.3913496475163845 0.5471775467991737
Ni 7.873125477779592 4.903690900457082 2.7604898075236055 1.9299592501408889 -0.415884935199058 0.22100380021401936
Ni 9.173090231384954 3.2236001876567175 8.906006941122271 0.025931118043465016 1.3888903873426146 -1.55290182933199
Ni 0.5191567929604265 7.366907116040698 8.803254083824836 -0.29091826581696995 0.9610688486069706 -1.8711498933121644
Ni 3.4994226020185106 6.982932735224069 10.177873500686788 -0.22979183081929455 -1.3847239146697508 -0.40390436579841404
Ni 8.70159255589412 3.1607143372856736 11.151408152365372 -0.9977865157429782 0.37582637661527535 0.838738331296149
Ni 3.4494308505611038 2.9645485910479943 2.8477810650118 -0.3969130220822455 1.5150886151389584 -0.7904134189385161
Ni 5.440894715693632 6.6589295913444575 7.934005055408186 0.3089602109203453 0.42897159317968697 0.011376360157741697
Ni 4.582149614526599 9.063221567049883 10.292663994438932 -0.5009848502931953 0.04399980261971777 -1.981081779848317
Ni 5.720207120251509 8.765619727383344 1.799283310402539 -0.42141409254740325 1.3075350268925738 0.37877286083810896
Ni 2.275492472658085 9.09332980679555 4.882485908673798 -1.752582699698517 -1.6898233570831092 1.011400249871671
Ni 7.565581882257184 2.124140087019301 4.146112125909157 -0.4866972300259295 1.3927156746259755 0.6381668307945525
Ni 9.270357201390384 2.4480489068395586 13.509529444257801 -1.7418583713024776 -1.229523900324418 -2.842051925959473
Ni 0.29161792134114684 6.507982799160894 1.1898932925426795 0.8204004522189097 -1.1267057420149111 0.049649544706327396
Ni 3.396420729204381 5.006296612221926 7.345043742323128 -0.008112087584173127 -0.2609487160380732 -0.2623615372251998
Ni 3.830528347567448 3.597510191340318 12.467755108599265 -0.5799441997072335 0.00826635377385028 -0.28758277368583374
Ni 2.7396517363312087 6.215729133659703 12.405492740260549 1.1297072478453962 -0.11675790831905053 0.11557468664422675
Ni 7.8794074601325415 6.331908077565531 13.503965267996534 -1.1111824495683313 1.4946840833406774 -0.7903396282777873
Ni 9.119731111008623 0.31893699865172964 8.8223603652875 -2.727754563365773 -2.4917820576570633 1.0270906640237343
Ni 2.5849697113972425 0.5937312807665687 7.06758480553155 -0.2554918066885599 -0.401415023717657 0.1505036373109279
Ni 2.04929394592222 8.85846289900509 2.571440811564156 0.6576210828644222 1.3610090875513141 -1.9965531360110387
P 7.979655070413547 9.159847133451708 1.636561102649272 -1.8247574220905542 0.27544639543361593 1.0718386576633863
P 7.247549451334655 8.350631595851251 8.555366682881203 0.05449993082009323 -0.6579879792855378 -0.5972135283106424
P 1.038970081373954 7.7311300388286845 6.222812870517158 -1.200431868054468 0.43708985141144724 0.8150867533154802
P 5.978645610474433 4.67640764703865 7.519003718507783 -0.1547971224799592 -1.3574247126341654 0.07886884658276094
P 4.3916527442560715 2.8115455343705213 0.622819877430625 1.6737825015701624 -0.7853619725575378 -0.7867760792962449
P 5.912401823590401 4.809979947489281 2.578121784688171 -3.530803154569796 -0.9037306770071338 0.3020146328404476
P 1.4861604467693654 3.0249631510639743 12.05035228114772 1.2000593152063979 -0.8769917183503929 0.5276628738050139
P 2.388426668922149 8.795793993970559 13.818532232978411 -0.07016540527149207 -1.2601513954022878 -0.254580093507568
