# total energy = -340897.96605086944 ev
CRYSTAL
PRIMVEC
9.00530154690728 0.00000000000000 0.00000000000000

0.00000000000000 9.00530154690728 0.00000000000000

0.00000000000000 0.00000000000000 13.18016908373312

PRIMCOORD
 96 1
Ni 6.380436373751491 1.9572122755478307 11.46022351231486 -0.41879336709510456 -0.3372351466056386 0.09248283782176975
Ni 4.5594923238114164 0.3513184327716122 6.145082813332596 -0.1962754442294039 -0.7841743800073397 -2.0469791538720745
Ni 2.6889830932114758 1.4549505774876266 4.6783271858218916 0.29905323621927854 0.5118716724090281 0.08642377611188341
Ni 3.4153597351456053 4.3026431081899235 4.856220617564114 -0.12124139801170086 0.1227084694755306 -0.7112308977700783
Ni 5.154481613669338 4.491196115576601 2.6436125820921923 -0.3084169368223656 -0.47598498581474796 -0.44505898565985286
Ni 7.349199716746838 6.0989486526275645 2.4018220320047527 -0.08225678921838737 -0.844650583015526 0.35222133560182567
Ni 4.784381723633151 4.642656285183848 11.28262005128798 0.9820925020464892 -0.9703657005278643 -0.0021854376870930102
Ni 5.664190696250928 7.862627988938262 12.442317403444436 -0.38725827260130075 0.2563724095213004 0.05384378529333308
Ni 1.7029745974247683 6.453127169225044 0.36423383649660845 1.1834718431613616 0.5693903354507871 -0.8500712398104651
Ni 2.6576986750406233 1.507190332757954 0.47813019104453475 0.7489543804627811 -0.7766055665211463 0.20842750621090558
Ni 0.43726503237512965 -0.011649258303343488 4.68850227623388 0.6339149974967341 0.18595272214715716 0.4270826036870902
Ni 8.684514860901196 2.405433157993962 1.5409728216255816 -1.0775362222687959 0.7915495894254884 -1.4045023828482586
Ni 6.867407069493299 0.7790369447947207 4.807625307899355 -1.2931623031106696 -0.5183799058411911 0.356058964180361
Ni 0.7551395756237386 7.122464230072765 2.4362754158504254 -0.708114977848916 1.156391699115118 0.3851808212469818
Ni 7.608426332022075 3.7689168859244924 3.76227907802762 0.1477949801305132 0.20556124040670404 -0.028729763834524715
Ni 7.506333226436882 3.735453184737708 12.550776356814596 1.1000374886951056 0.5239391450965234 0.06494272341997202
Ni 8.06502214506662 8.936032937905201 6.9094537237482 -0.5301097926836096 -0.16223095305018512 -0.285049979961651
Ni 6.991644212004837 0.6739072514699739 0.4761103018690246 -0.6766729572895508 0.3274042765581458 -0.17874746264796956
Ni 1.9127080744538885 6.411603723 9.27998593440107 -0.4128350926291407 0.2241796268388397 -1.4021271977478624
Ni 0.20429517532118174 4.799879847891078 1.331250150958524 -0.4122887332073674 -0.2734872148247161 0.15574508821552532
Ni 6.246752669737009 2.0179080091320416 6.9602625365754225 0.44802321049449934 0.09432631878841174 0.08692257012517288
Ni 3.397835418000965 4.484829367261462 0.47017850962690005 -0.2562806211384425 -0.588332937991561 -0.48046024797728226
Ni 6.011975448628112 5.517773495606168 4.656145326628327 -0.16797634017439458 0.348287033544426 0.4810742274121973
Ni 5.167197099696179 2.722149619441543 9.495599873452516 -0.28410587088082684 -0.017960698243478745 -0.9673760217719211
P 0.23269699641187053 5.370257648151723 12.35360167356241 -0.4617634428987273 0.15742299013858052 -0.6887517428309557
P 3.9861968057939046 6.238449781552343 12.521464099720145 -0.12809364504684392 0.19379278701686625 0.010959841445613384
P 2.3278164624802655 8.386016124830597 1.511383201238193 0.36232217148125345 0.6462110412552677 -0.23598484700388392
P 6.401950039557526 7.785956850105032 5.892273376062123 -0.31512288808763145 0.06028928380836069 -0.8779430265200685
P 4.7626069040772725 1.0613018234569729 12.715278004370901 0.3377966755360634 -0.24033798176625706 0.034156591277050855
P 3.8837975199502757 6.198862475196825 8.102561645811301 0.8442232656701202 0.5307677379825827 0.9656310140563563
P 4.780086194713319 1.0512338961354377 3.75329088638216 0.10544042642370227 -1.1835114381500456 0.5577262688492975
P 0.20557572922558454 5.457374936978675 3.685517886177202 0.3008820618979011 0.2899602727790748 -0.46695192907820227
Ni 1.2692522507457853 1.1589553152948338 2.547317990283687 1.7151037289164528 -1.1221374059179385 0.7906975258378384
Ni 1.8178462261488324 6.555535460370392 4.790372050336448 0.19290961308096455 0.05941665139542026 -0.029964407572574205
Ni 6.049734678734729 5.789706591606526 9.186393833638354 -0.5413262302247193 -0.4454235680881232 -0.5739141914630697
Ni 8.485956963305014 2.1655949573191418 10.25235319914425 0.8369431870689393 1.8269647141545182 -0.21496093645404915
Ni 2.467164501275826 5.164585562197749 6.882605317203992 -1.7513336577827645 -0.08996058562054829 0.14568564709699428
Ni 0.5488479249115154 9.149206440190877 9.205254537558053 0.6592542475924711 -0.2515186809734249 0.15264948000933712
Ni 1.3970554927379395 1.044128713079363 11.5196792158524 0.3441393299246396 -0.29977725886949663 -1.383402624755166
Ni 3.932390128024519 6.791744524452565 1.566911692696199 1.013167883295055 0.7268531776883677 -0.4466633540324953
Ni 5.712756288420015 7.967521743357978 7.981594328353831 -0.8959353493324314 -0.9508967931699753 -0.2829676435113256
Ni 5.262572250199201 2.863649925347879 4.759807155772921 0.054823375597783 0.0849962996367375 -0.09909545804228095
Ni 0.9060053953175492 7.512961128501864 7.100552529930761 0.46568463233000446 -0.3171026375218216 -0.3951826696547001
Ni 5.044688975114635 4.5446065600703625 7.232367633838607 0.378830967769554 -0.18928461473386754 -0.48556080242864114
Ni 8.104978668792606 7.265783606926283 8.862398386811526 0.16382349434828558 -0.20456905169676382 0.5329030391580306
Ni 4.585706757114626 0.3775067506998382 10.45342987963116 0.20141507944881443 -0.22675870041992557 -0.26770840335940993
Ni 7.995420168082591 7.120582122013551 4.479188446264852 0.2501750224613369 -0.027586908479333136 1.1851065505513072
Ni 7.135828097823353 5.961365652968874 6.852831088131369 0.15108059286032047 0.5092134088505746 0.12312601662892343
Ni 2.384198656541207 5.2390413968081715 2.456177132648809 -0.4500273854087217 -0.6923368890790528 1.6174694288007305
Ni 2.3746800526245138 5.220499480569315 11.271008615251855 -0.8198882884691815 -0.29333844522268837 0.8459657022825238
Ni 1.088867052017992 3.418547611954034 3.7431157959701715 0.17787225913186785 -0.3209875743985246 0.017694331955969526
Ni 3.790259450997872 2.4743057055387756 2.4941362804535814 -0.839961919290605 1.1013929742817354 -0.008768490221249415
Ni 1.137153479833799 3.310123779260577 8.114384706437816 -0.8426098984364133 0.527743349333962 0.25112170264532235
Ni 3.6628524422813418 2.6681988568446573 6.882249607786102 -0.2686499413370728 -0.423836843056283 0.30719489148980644
Ni 4.121996755712288 6.775634039677765 5.94175210582549 0.42943464885903465 0.8166911216881225 -0.2949032186066469
Ni 0.7723919326564731 7.247457817928677 11.266777924504398 -0.3908971549054687 0.6729142615780669 0.057776287578519846
P 0.1441163460556258 5.612752412833568 7.830167478362944 0.5629849461450755 -0.5840371388296844 0.8554893255022429
P 8.426017675065175 1.7183646580620704 8.05239851311731 0.879913262872562 0.3858696197838903 -0.4619740162476366
P 1.7389417724893586 3.2622065688152384 10.388596209907195 -0.03144433455221036 -0.2830360348554158 -0.8259584059226615
P 4.092909631160803 6.05933433036689 3.706909079879863 -0.7502674428472498 0.5694566699123483 0.28237988932865565
P 6.777660232564479 3.989276618981709 10.24096509459075 0.189791379166957 0.0037993191414321665 0.959756043332818
P 6.3740426095311955 7.788244196741589 10.162662195086087 -0.1996271343104562 -0.15593534984946045 0.891695857329787
P 2.4173921986764295 8.543257698141264 5.758903957077624 -0.04117107492167103 -0.9434369944578204 -0.22069783893782635
P 7.027323217414428 4.040624849381882 1.582147762674111 -0.6058115543922987 -0.48972316133644694 -0.6942333347708173
Ni 5.231287832028349 3.0799932938385433 0.3949833397453691 0.6115502566482887 -1.0526446012334387 -0.05151770826331773
Ni 1.5022194062092176 1.0812935932725438 6.985726828245463 -0.26298785795528895 0.5214552023324053 0.09380207085382554
Ni 6.908282133994594 0.7117952573911682 9.141699620678144 -1.0790305474261352 -0.20120784853401474 0.5713883397174223
Ni 2.7665367516131414 1.6925914845430778 9.187961656667584 0.057768060048403735 -0.42503266313659704 0.007746733824954401
Ni 6.407029029726887 1.9577525936509543 2.475828502059412 -0.14997296161843848 0.5780711510542366 0.37355969206828565
Ni 4.132839138981633 6.9148379936458255 10.379211784986111 0.3188754131515283 0.2253404799161603 -0.35288288044522453
Ni 8.174256454914763 7.06963913019072 0.10553132978140203 -0.1887562530342233 0.4277909426080246 0.6218197568950968
Ni 7.4792362735652365 3.8047669920667393 8.049050341938289 0.8767814021117997 0.2126348594240338 0.7932701716610209
Ni 3.0810108929327598 8.34592452157883 12.3831912939498 0.40795411038775553 -0.3099138330828663 0.7013300937165986
Ni -0.09092833251431653 4.985920376098231 10.131767706479655 0.30057970016613395 -0.829456648883907 -0.6033906036556318
Ni 8.545788187924227 2.2688857680329253 5.861497757438379 0.387612570616926 0.6895953217781736 -0.19768106632767887
Ni 3.4907341105313385 2.398751224118668 11.549742515110195 0.6944423654578299 1.080911309388616 -0.4065929683741707
Ni 1.2861101755632398 3.237829217062648 12.565670225327198 -1.1265967272408726 0.9995487498497237 0.20210259243414225
Ni 3.0522209433379937 8.404404950940235 8.146926264728602 0.7104706225652861 -0.30722317362458057 -0.46403861208614916
Ni 5.689270461537579 7.751808745987625 3.6683312678470146 -0.2486768406492556 0.4473611514304683 -0.08408407223511326
Ni 3.2729769096708337 8.249270618231748 3.5199617177896347 -0.5481159994530431 0.01949873215455997 0.8300480026110026
Ni 3.3171299039977455 4.304020919352888 9.122483207340558 0.31669820299455137 -0.3639936456464054 0.17518802743148537
Ni 7.085137254448647 6.04124267921397 11.381800842297336 0.17045025563618388 -0.28648002753995827 -0.03277719443102097
Ni 0.5903317478089968 9.061314695416113 0.3849451299195056 -0.6356499779099698 -0.7089724407532048 0.31559417129709516
Ni 4.667790082280811 0.28426225458346543 1.6883400816016674 -0.009819814303899218 -0.6970715755505608 -1.1116840717950984
Ni 5.862361365873204 5.524509461291775 0.3848199562256153 0.1748661253156924 0.8449280050466287 -0.14280112646034762
Ni 7.938956926306181 8.892078060216104 11.44734593085708 0.01563796364757307 -0.8123878663270783 -0.6716500501536625
Ni 0.04602159443354738 4.733825959784226 5.752919934085532 0.26613540244533523 -0.0380834371352828 0.44769410928985476
Ni 7.824040271073523 8.810733169790854 2.715668503794576 0.9269935041898164 -0.24933735705138996 -0.44430796642644127
P 8.427134332478298 1.701308616606804 3.6225167953529978 0.36203652192003455 -0.26380392609868114 0.3241163498354934
P 1.818980894165392 3.2073642813481986 1.5441093682142137 0.7331881187674598 0.03543005867283575 0.9859314161766053
P 4.767992074505071 0.9355157690498132 8.124520173522242 -0.655731064930561 1.6112648426519156 1.9600396144660372
P 8.540412022798147 1.6916549331643302 12.471603545163905 -0.47933204791011 0.344919916844406 0.3015268945707517
P 6.447381786728497 7.7626331186535324 1.40984302117853 -0.8429138028300773 -0.35364469831191353 -0.3652550288573323
P 1.7524046985588533 3.187822776618564 5.909250170862266 0.27605369000031166 -0.5170035943189547 0.02135018354100194
P 6.818319169824524 3.9387478710379393 5.882362140990494 0.03529841819097792 -0.2404379976792311 0.6826875389147469
P 2.4524858594743035 8.413968581365522 10.267496514514459 -0.9099082665727555 0.6211967785991171 -0.05801848549631298
