# total energy = -381169.2579844271 ev
CRYSTAL
PRIMVEC
9.26334570247975 0.00000000000000 0.00000000000000

0.00000000000000 9.26334570247975 0.00000000000000

0.00000000000000 0.00000000000000 13.55784278890910

PRIMCOORD
 96 1
Ni 2.882651210099719 1.6582036806131335 10.113987356692313 -0.2765974783189237 0.6182343535366837 0.547963790145895
Ni 7.444858112096004 5.705590895369503 5.377555453299593 -0.26419113423477086 -0.6594067140099353 0.6844160915700793
Ni 7.252226843272158 0.5039102452926277 3.3842678510566513 0.8433691451999411 -0.37792079725045885 0.8672611213261902
Ni 6.314257535456466 9.191378528317049 12.638593590772532 0.8866755212970601 -0.4345825116085612 0.2222117044791915
Ni 7.489211010154603 0.48811346228107194 6.44922169979322 0.12220016238054439 -0.46382932428882057 -1.1347543233510007
Ni 5.966511546918493 5.03313685845056 12.082884570341207 1.3521089568482068 -1.785619832659144 -1.9452192616237527
Ni 9.058940478287017 7.673755378392576 11.555823372076974 1.5422757170767116 -0.1847859555325656 -0.6947868932814422
Ni 1.3954303599723052 6.771477740631142 8.827565267080113 -0.2224392471089653 0.312098756549327 -0.17777558565300353
Ni 1.310661485675262 8.93604367407995 10.209109872209092 0.4388317738032185 0.6624763540741946 -0.4276245922334893
Ni 7.126458401972742 8.441816403795814 1.471947446134302 -1.6030383409770648 0.26031905287387425 -2.0843563089689523
Ni 2.0916078246122325 7.46981356476306 1.424508927703247 -0.3165398230398161 -0.24108848677903644 0.7736318286048031
Ni 4.379663416377497 6.978439404880353 2.12985525167868 -0.2725027394242597 0.08239151502403876 -0.2866926577713966
Ni 9.004759170696218 0.47822947267611676 1.571191224045875 1.2722160398763058 1.8387285395586654 -0.7232358926507544
Ni 4.6621398728100205 2.6019069992680635 0.1732921825086956 0.7349043301276182 -0.8168821546530061 0.27295911023538794
Ni 8.811618417872118 0.3210267948954874 12.662442073657214 0.12642448487453709 1.2378439901543392 1.4067711242777774
Ni 2.457296913304656 5.616227401724701 3.332815525038129 0.8496552353189689 0.20819996358113174 0.19509402232679304
Ni 4.251245658276752 0.7761970217200438 12.197624998871458 -1.3161718766319654 0.07880148367993525 -0.32045175649971264
Ni 6.827335713750054 1.568330702968077 1.01979521726035 0.05096749218680255 -0.7582005816513975 -0.43168076458073396
Ni 7.493222038738432 4.7866948158542835 3.224691904169378 -1.539369342063194 -0.8095532250917605 -1.4728387053308116
Ni 2.5811385787485603 4.592118244484007 11.494596363929915 -0.04396534983735654 -0.5690172683820846 -2.7858998042479373
Ni 6.942275304207677 6.88338821712361 11.700268570491207 -0.8239187497848133 0.8275928562022908 -0.3053917768427966
Ni 8.265247775998203 6.364325917663386 9.317166422641929 -0.07221945958704336 -0.5100215065741668 1.399902679292718
Ni 5.248657853904063 4.9131672714085965 6.814510611961806 1.1742282130759067 0.467545339687827 0.6635724153518507
Ni 8.91581252759708 7.904607210581037 2.7511978536919988 0.9771464708951236 -1.5861418223320425 1.3353412504715647
P 0.47492709001991573 0.5174995730812588 7.325139561715985 -0.19898384429950247 1.399770781700544 -0.4934430333901954
Ni 9.303177844664008 6.772237334958795 6.956624226323962 -0.2589805365681088 -1.5259780083579526 -2.418075729111848
P 5.165769438735235 0.9185301773695821 6.582142370121676 -0.6169408315362408 0.34196340531924335 0.28480572516132885
Ni 7.557407759425156 1.6441048688242472 8.285292729237343 1.407805993300195 0.8408692615962229 1.6272792158023006
P 0.3324799952212293 5.7844312285726645 11.101229325339979 1.4278284591687087 -2.4767143646906637 -0.718578339274085
P 1.8484820596903448 0.2787229488524608 3.127509220622475 -0.7542269417156302 -1.2486652491395591 -0.48081763131670097
P 6.116336896375424 1.6951551656498403 10.137524591169566 0.539921893678025 0.38309797057602407 1.2122697412296604
Ni 7.438003236456204 8.695215218831942 10.46786104825154 -1.9424560970563192 0.6475814392402331 -1.3445640546214135
Ni 5.729675593563395 2.0988610241067778 3.0254327116694824 -0.09025369138093489 2.2303088365740877 0.4712261309735239
Ni 5.806487254110995 7.126310188445395 9.11505967774788 -1.2142237796322377 -0.6262538814070505 1.7642246548128195
Ni 0.4275737943670849 4.385962491289745 9.310808062318742 1.5342824144585898 1.1153990587528404 2.709544982336282
Ni 1.9847736614314 8.497655850223808 12.703088707197592 -2.2161651980838544 0.42051857731632736 -1.4932810323455639
Ni 1.2707086767097777 4.769075932790904 7.372524352743376 0.9180874599494381 0.21912920889912585 -1.9851148122671105
Ni 0.3484898351783465 4.676266474635285 1.1998162939106007 -0.04627497180713966 -0.6307168022744106 2.639180059459474
Ni 5.904558292487433 0.13065300336004637 8.687418260958943 0.02586195536842643 -0.07046236768662058 -1.122508416104112
Ni 4.083764372374606 2.566206065868347 4.85608005234725 0.7148016458404722 -0.46223601165977163 -0.5450417314030935
Ni 3.465389746246412 2.9670032338510985 2.227241728825685 -0.38071764326930563 0.3857168962561099 0.12126273816793955
Ni 2.81224052126442 6.075457752864021 5.847863839273556 -0.1571946761778583 0.29694853117144987 -0.5394554955645677
Ni 8.221987952703788 2.6785148662155605 4.640307093897257 -0.5830071549032734 1.2232858898345063 -1.4279037924913345
Ni 4.557927236394139 4.836133290569976 9.828161274541745 0.8233093983355885 0.9913479592064862 0.1264450536998274
Ni 5.528095933025973 8.897461840242427 4.810051415095082 -0.3793271906796822 0.24311785850423936 0.4483625961117891
Ni 7.0315832177797235 2.4447636068983725 12.398606247292218 -0.3137080100179759 -0.3484204737984967 -2.014560628332053
Ni 0.9163588491939482 2.125604302447458 8.803852955373678 -0.8698219400748309 0.039005434728919916 0.021017997012563804
Ni 6.469918792552687 7.228846159333164 3.266247271899302 1.3813660539411112 -0.3566395192741793 -0.27527284597022916
Ni 2.7292594726410004 0.5055683841298227 0.8499165775533656 0.4467263460599468 1.3297560430743034 0.8335426460278226
Ni 7.805480150822251 3.352932732371851 10.040843054612008 -2.466297026012082 0.1415140322178079 0.12322628965221359
Ni 0.9643976324107588 2.448265151481946 6.1599376107827375 -0.2907552578765444 -0.1497832142051356 0.7981439548135544
Ni 3.245913302281835 3.6345199076402936 6.68854486140411 -0.50029450909439 0.18021067745705738 0.9523394391537728
Ni 2.476888888950842 6.878071056830036 10.783121410598683 0.2687867240252532 0.09178966840948707 1.00943052773981
Ni 8.723727796155327 1.1726932184060939 10.507734192446074 0.36708334031532264 1.3462375856690945 -0.30733964459778684
Ni 5.121926024676891 2.493961234632128 8.274378655617326 -0.7000067469194847 0.38085134063369247 0.06844328037406278
Ni 5.254910612089016 4.562077215159856 2.2558080335527335 -1.0657757392987581 0.8683204158286401 0.8532591506201433
P 8.062047030005422 2.916369787571169 2.1730242941875946 0.918666986601992 -0.2812259782298705 0.10628991890819116
Ni 3.5010628896097504 5.821429030336668 8.104010911270096 -0.9874110860459252 0.8710735530937449 -0.15915000013201622
P 2.8165294502120246 4.9005876482750175 1.3669020349616394 0.16718803994514433 0.235579126925033 -0.1882147787084565
Ni 6.68475430044221 3.9407105284483426 0.5754899683248769 0.682244023619425 0.6268519200023654 0.406047637393662
P 5.02135388302647 -0.031356424379356436 0.8694400044431533 -0.7355627896472234 -0.10111171714136136 0.187997777601644
P 8.074339489429766 6.328671300990965 1.3798225492081169 -3.0593065435437055 -2.6833354138204495 2.889544315113482
P 1.6081352984062145 1.3623972700648355 12.216334177695384 -0.6209720641828208 -0.9701486994210518 -0.9445705938416313
Ni 6.550241261029319 2.710241824413284 6.187935146098591 -1.3706319553530588 0.36378975716571543 0.08774352336457146
Ni 2.78903584088915 0.4717673628837862 5.196206012910494 -0.12413877416415395 1.0586820656767701 0.17278070354157338
Ni 4.05000874152132 8.840881326177696 9.868387352198276 -1.1295000169305967 -1.0683255023038052 0.6993742555418084
Ni 7.960557817154542 8.015989676382333 5.138015529404957 0.5275674858777302 -0.6222529877777736 -1.6292785056205166
Ni 1.0509358056905072 7.667965787480583 4.632565716097012 0.25592169513712704 0.4556933254452475 0.6445897036017609
Ni 8.345644351238509 5.223415237527772 12.84920130779448 -0.23531610307163345 -0.5377477688448417 -0.7007868196186189
Ni 5.921945591914332 6.721372305042386 0.3455070379404875 1.3195683039080242 -1.0393617680816034 0.2698904986123933
Ni 1.9221997628545748 8.296789467286743 6.901972340783836 0.18887606644153923 -1.1839297566343867 0.2636828271397846
Ni 4.344064379777831 8.170900602496356 7.285428526066985 0.09235762509781514 -0.2515274227241733 -0.8034535399519259
Ni 5.057332716789962 6.349541618310519 4.684695192668602 -1.236162488686858 -0.3276732139488164 0.8707323677042424
Ni 0.1792225762716687 5.623258280928226 3.761379571034802 0.9347718625836546 0.09528688292946816 0.9859625265248568
Ni 9.168914915578515 7.397809580508779 0.2513701423805661 2.099181804017559 2.7667144895687383 -1.2612903941027374
Ni 1.7598040536095239 3.3491254973881244 4.126519343341496 0.4970127530193246 1.3457300499050566 1.3074972316761029
Ni 9.188701421479344 2.658394879878201 0.04537371872820198 -0.5866851179754928 -0.7197286508284443 0.776950608565391
Ni 3.2774457302249163 7.8643116578335635 4.0642344611429975 0.5404116888302499 -1.0251697928519377 -0.30846295956895264
Ni 1.6135265654634627 5.70607258933338 13.22865758050835 0.9513873596531487 1.1488676228239312 -0.6686320892629454
Ni 1.200761155147438 2.2147176857648607 2.375632186070987 -1.2461864485817635 -0.18395960297652836 -1.4392888943998243
Ni 0.33467448176051123 3.2801321004080815 11.417072352116504 1.0173158440251575 0.06660648427564012 0.7962030290370998
Ni 0.21756819479998363 0.8957618005654403 4.457886810773076 0.9904642710499522 -2.0549377465975187 -0.011753798101818468
Ni 2.3028398911181305 3.0718643044491234 13.179700799756535 0.2684005443304281 0.09926669351282259 1.5522487691290237
Ni 2.6694738410473913 1.2584069539399743 7.434347920338007 1.577805534552205 0.03641324852171148 0.4887528270033776
Ni 3.917320581163889 0.7491202629428328 3.00765820440239 0.8051697513120843 -0.9213897848497937 -0.34429848121032314
Ni 4.2203060844430595 4.779024765814074 13.15476757911858 -2.197393059682674 0.7119646906123093 2.163046206771688
Ni 3.8626297895728348 7.458299226357288 13.11192460636983 0.6767680881065183 -0.2655479053729814 0.9250284100436456
Ni 6.890030035817849 7.29620920751239 7.078806826596125 -0.8051568957962779 -0.13464790122559392 -0.17939640908587814
P 5.565260475008241 4.256090387951908 4.743821274065516 0.3366419931063299 -0.6790010912020951 -0.9970851188005795
Ni 8.646758658734921 8.290944296301994 8.355101300617795 -0.2012117051887567 2.9651838561256674 0.8328199089291852
P 6.651628577080148 5.209585062757201 8.672328271205924 -0.960719692797668 -1.8677521804845252 -0.9064048814051874
Ni 8.221700788994553 3.748496110170161 7.711741579117074 -0.7466964376665399 1.1759053436680136 -1.4185758302221891
P -0.11955736816902919 4.361433152513811 5.732567610015754 0.5055030498785229 0.4347709734702835 -0.8134721005301926
P 2.668528979810554 3.7117484187335563 8.941288580278943 0.5670372618375783 -0.4405590409069703 0.1686383992384257
P 4.601529803470544 6.971408525676829 11.210572928805707 1.3899620231402383 -0.2858385373012174 -1.2849964794704258
Ni 4.62009354777076 3.0271316092266978 11.111818255534377 0.5023267090330703 -1.4312611389993415 0.9868256458561004
