# total energy = -340876.8426895083 ev
CRYSTAL
PRIMVEC
9.19317267028733 0.00000000000000 0.00000000000000
0.00000000000000 9.19317267028733 0.00000000000000
0.00000000000000 0.00000000000000 13.45513746309859
PRIMCOORD
 96 1
Ni 0.8638199398082655 3.2266841616024537 4.077700769572607 0.5078324693426479 0.3658898342278537 0.0076379761612320055
Ni 2.5648676476182874 5.3144904901461425 11.629262539357088 0.002923344294382062 0.6991248585351637 -1.5626200850610186
Ni 7.920773381485763 7.052708034452078 9.336990853298165 -0.0029012328071950032 -0.07262852210000395 1.2774523485745806
Ni 5.034429672226797 0.8313818293819129 7.460484086971696 -0.6963745494835362 -0.35534162639836225 -0.26027534412013237
Ni 9.005144892674654 4.768443601951705 2.6150734032255984 0.29691279283750804 -0.009008117035881261 -1.1746781561291317
Ni 6.05004544361728 9.161732205950003 2.545334913248762 -1.2805217315285238 -1.0890300818410084 -1.1395743704474635
Ni 2.975149759058757 6.3458909393323015 3.603582185129573 -1.0861327056885552 -0.9494736875702035 1.8126030461162075
Ni 3.1924671722282483 3.963149239186446 4.851331087066083 -0.11216231852856812 1.3847717371885506 0.23809212315487385
Ni 0.5510121208545685 3.888077789635193 6.542466715901557 -0.8553142333769592 0.07139310703100608 -0.2768291347137555
Ni 2.413492863352927 5.843171474813478 6.821889527624617 1.1589921128524427 -0.0996832122249509 -1.1415654327355629
Ni 5.837903786766347 5.8991119316490614 8.784240303456313 -0.46183466245629495 -0.12442365239442442 0.41385144970879695
Ni 3.005661899771542 8.947696755490503 11.224962425494748 0.17511655076360164 -0.11260454827230928 -1.3533867951193659
Ni 7.8783560819230045 4.590518934474979 8.877296357067953 -0.46623073464146153 -0.9104034610416192 -1.1543713262509796
Ni 4.751482198030317 2.4797204806156294 13.31123533280587 -0.22094209373814852 0.26277728460637967 -1.5761209477609308
Ni 0.35184938544332 1.2229402056642829 1.1212600365953778 -0.26439656537735756 -0.26280273852767644 -1.280314243503408
Ni 2.5713856071739865 0.6431847105546388 8.906964564512455 0.8004283799723569 -1.0904375037114964 -1.0634404062973621
Ni 4.963265321139821 4.085087483963304 10.621041756212875 0.046744198134074336 0.19675624052056437 -1.0504879599017523
Ni 9.19491955996421 5.326744989564686 10.532480244811083 0.4602588333287428 0.9883356547427236 2.351030871747209
Ni 4.2369586995629485 4.820541312533011 2.164393732299081 0.6017998621297442 -0.18737788462945795 -0.6618307500703957
Ni 4.485597252656652 6.947437012065181 10.705876355338392 -0.5754920774731508 0.5445655630976235 -0.056916767791701975
Ni 5.281110079501935 5.656191532072487 4.7063115431968505 -0.6278546502352671 -0.8343157767484213 0.2685141870901569
Ni 0.8153461779672361 3.6383544421443483 11.93831310856408 0.056293789495722404 -0.8132453292313672 -0.4733629748108686
Ni 4.686753067943325 4.9958275393997456 12.735287649893644 0.7320072110854813 0.6723627599499711 1.4456158650591169
Ni 7.03044216979213 7.436274785569752 4.404861889308127 0.38140078537925926 -0.330997650336359 -0.18549120912970635
P 6.380494041966506 3.9774446229792693 0.5358590140341754 -0.2857279798652821 0.5613137290902398 0.712779730314437
P 3.2289824548167343 0.9028706994707457 1.9562961521879965 0.06142262608185551 -0.4724977985970959 0.7776108678572091
P 0.4955855623816981 5.669521632715313 12.884801735972724 -1.5683317907338152 -1.3992671025912482 -0.27790488427643756
P 2.9255066256303013 3.482658866636141 12.527742579471273 0.9005944453709973 -0.6476323470828266 0.4890441329915513
P 7.119634332851922 7.352819162372804 2.198865372561429 -0.452987239367994 -1.3526866837285478 0.32088113072764735
P 7.5911981345579616 3.1443133328026467 7.041517185133103 0.6749719154380441 -0.9507630958055883 -0.7748556737095751
P 0.4679426109176199 8.96048445893476 12.68040440793663 -0.42079188558237207 0.8185896242624161 1.233441233100953
P 1.0110375713076356 7.409614584284101 3.208337346531497 0.03086326523775975 0.1950415718223028 1.6244705427089121
Ni 3.585227096203044 1.779890196867266 4.294906945350527 -0.40229099856470724 -0.7675761093290264 -0.21642775080756274
Ni 0.779220685907892 8.203702469336529 10.712173678745518 -0.0028251281536209407 0.02886423252985997 -2.2374577889140435
Ni 7.097350081846259 1.1632581274758511 8.545667355323872 0.8658315879685153 0.9920197884625302 -1.6891296734501944
Ni 2.33274922614883 2.757041733023552 1.1595514401798594 0.056405632483238335 1.2036056377967594 0.6230027214596046
Ni 3.9572839949036025 -0.015234006741535801 13.292626512308486 0.4564551433119365 -0.028012168942209818 1.4959518943095076
Ni 4.2377860851200895 7.548744062303775 2.257193296388007 1.039055035474462 0.5277562048497685 -1.647474716913569
Ni 8.212886449020793 7.241453066381637 11.946587883452775 -0.30885813812484225 -1.057963956563823 0.25245250564160393
Ni 3.69816522475278 7.778692894978951 7.787416296703073 0.2956382970004586 -0.681150276334614 2.0094292206427586
Ni 5.510792310164255 2.5486233111797536 5.75737251185525 0.5796220404811244 0.6944238535150685 0.2739793239697862
Ni 8.949250401703356 3.4100879601020253 0.4884856749841433 -0.9422432312600354 1.2400906200966706 0.8749919143115448
Ni 6.528623636213303 5.237801042172036 2.6956828201059815 0.38931566935096173 0.10227822664563675 -0.3276418464902486
Ni 7.817037618966005 8.586285550958491 0.5582673728734087 -0.6971805903245993 1.5576899947492526 -1.159468538268229
Ni 3.394477952590633 2.2161062489376744 10.72268147532121 -0.025529511729672164 0.07513509057194158 0.8577922626038066
Ni 6.976855165207969 1.990331116739631 1.0597117443169504 0.981806081154322 -0.4909045832390577 -0.2087064709039051
Ni 5.835844516046352 3.449103785707648 8.208158400220375 -1.0828442647452705 -0.5466939222945358 0.3143088768267684
Ni 2.9546857562788045 8.693900832423953 3.9980060733915073 -0.24326415427411652 -0.2938647500398036 -0.33172244431752546
Ni 5.888613328246228 7.784107673791795 12.461435900922002 -0.14838247720286704 0.4578512523285147 0.11134676460580824
Ni 0.5729130165520887 8.331276129074801 5.292631883043765 -0.942340676069848 0.08748641304844287 -1.6502633354023
Ni 5.069575172059572 0.5438864925730138 9.946064295966455 -0.7075300518797234 -1.346344543560604 -0.558309137935961
Ni 9.283633678035432 6.873854856516782 1.33291077801574 -0.3580088888178802 -0.801288156869491 -0.45681561197514875
Ni 0.5922471783879006 5.675304138442441 4.664210488780378 0.5379868814388412 0.3596639079227999 -0.5218493524470303
Ni 3.125614419211262 4.90048514369854 9.186764296322659 0.433946163576143 1.0874092584081336 -0.15941456664731254
Ni 1.0527653829061094 3.5817704632087666 9.19069345840179 -0.18143323701024883 1.3778310442046593 -0.8400843038010822
Ni 6.396536128602183 2.2149938750219627 10.81880529071527 0.1568653178628976 -0.8494307780129887 0.10725408259367335
P 9.081163239030191 9.010486126104642 8.87834529809095 -0.5443825005525399 1.2681812076852996 -0.25416460323670426
P 5.868084973256277 8.037232495239774 8.47941399717717 0.4032320223217378 1.8109950781991393 1.3047584925887012
P 1.582632286872013 1.848673516184248 5.673628223030589 0.7232261224587415 0.465697744956127 -0.6216048126708134
P 8.401043117887495 2.1812641238091848 2.716444681686504 1.91293700455128 1.1448410181630413 0.5671282788894877
P 3.618368484352967 7.395392745874134 5.660899355892619 -0.09724529220741962 -0.0743969268543364 -1.40087018541231
P 2.599011091609636 7.080921881950583 9.878009075939756 -1.6925135023207627 -0.1911905735073288 -0.7929919782989697
P 6.128978025768523 0.8273975082656365 12.934194815099465 0.2735818314210514 -1.544667871457972 -1.5845868191400967
P 0.008546892805265726 6.000751650757395 6.638361621291476 -0.23504973678412422 1.8710663324594228 -0.7620577506139584
Ni 8.552381129461429 1.7043958613645855 5.212896736902095 0.3189448329368829 -0.4455765487262197 0.35444174029191217
Ni 0.8269295757672089 5.76524094850366 8.47319849300847 0.8845451052176186 1.007249203817775 1.3481810825487104
Ni 7.376813343529891 9.156703540397157 10.361774975979053 0.4933368468296342 -1.096983018139498 2.034032621013736
Ni 7.179279638348924 4.119120609880366 11.87243667050452 0.5722267764583177 1.0447058060023364 1.052453311158239
Ni 1.757992059121603 8.547058282377154 1.515762066826598 1.2844691462120459 -0.01280152264004247 -0.652485818520386
Ni 1.2090677078228866 1.014852738043341 3.343265544555467 1.1381471510826335 0.39747943610867675 0.55210095224272
Ni 8.499345715248694 8.978530657253287 2.879426766001266 -0.249783443449873 -0.6236007600549195 0.9410862348374566
Ni 8.452212318010233 1.4993053680950652 12.147163609532162 -0.3560278538321094 0.4623635383765714 0.3191962868260568
Ni 1.8071939202529166 7.28554352340439 12.640200824397867 1.3990501014844359 1.4937127205663436 0.988342339610943
Ni 7.1398225404461595 5.396677455488807 6.420091795413986 0.09463459405744992 -1.1050377701231742 0.20253222377239313
Ni 6.662393494457276 1.6678254197389566 3.7384828036349713 -0.500792274666415 1.193699691536957 1.4100004298483524
Ni 7.176089607367503 6.003803784145959 0.43770258812140495 0.11595238169861967 -0.5171745726791803 -0.47133848818167207
Ni 2.7481887075621443 0.20978085006122368 6.437678335089659 0.5379868814388412 1.465003525557109 -1.250733701632814
Ni 5.191210042132145 -0.00793278885841002 5.116598251223748 -0.4503467164213534 0.6391541344084862 -0.5809649276622639
Ni 5.685389049066703 7.276984679474411 6.428542159904252 -1.1733720357231987 -0.2511199028731095 0.23831632335053796
Ni 7.78067862031609 7.718735021604806 7.168762648600378 1.688723696261027 0.9001031075568756 -0.43866953719374124
Ni 2.667279593246619 3.4333834601219704 7.41849059267765 0.8381230663096534 -1.0051671244777658 -0.803055790292875
Ni 2.081683675420846 1.457264988619449 12.606642985517517 -0.9302698609482429 -0.6548409490161239 0.27585751482910553
Ni 1.0813561504917568 1.7010403532717362 10.116756694356482 -1.7803639835768432 -2.528298921636175 2.3589210731285633
Ni 0.33361380776393407 1.6689377936546685 7.51551533901171 0.1686517689748644 -0.8006878042813308 0.6464486111873706
Ni 4.902562800764248 2.319060591764577 2.11774481527019 -1.1688756905147417 -0.8619031994483867 -0.3277657736626226
Ni 7.677292198364903 3.9299710783450945 4.490032958560214 -0.6161072798913518 -0.22016999145881436 0.3555596559464393
Ni 2.3213864644974285 5.551646770341303 0.8000919462454146 -0.21390395594444453 -0.4635110217174533 0.31576283566447555
Ni 1.198045093567198 8.077204410822539 7.437609634268606 -0.5321481632698771 -0.9567617365911846 1.894290593094686
P 8.436629890017413 3.031715351648624 10.382670138566006 -0.02838060802522209 -0.3088473394915649 -0.004316882207799017
P 4.800251980037346 5.166057521195062 7.045083216884381 -1.26955726209722 -0.7654464645805333 -1.2097400328292713
P 6.215026123711179 5.8924560745005055 11.058360989026138 2.2452055511802627 0.3048119930799267 0.3635501303510836
P 7.263185727015871 0.0512546966303087 5.6872037813887 -0.13000783135042127 -0.030850152611637194 -0.6724175244473065
P 5.1705437895493365 3.482677252981855 3.7608856465704905 0.8266335776128151 1.2722636052847895 2.1423069173418074
P 3.989101566162099 2.298964315898909 8.718122084950611 0.42874970697686804 0.2108559131467401 -0.2342113000432289
P 3.989818633644955 6.985037089050808 13.588882023532936 -0.37955653308166887 -0.008122886217450527 0.029973406433638702
P 2.234722423973345 4.40803445326112 2.835361130545226 -1.2604360165222424 -0.11020493769188117 -0.058007686863035576
