# total energy = -340869.4923885945 ev
CRYSTAL
PRIMVEC
9.26130828626366 0.00000000000000 0.00000000000000

0.00000000000000 9.26130828626366 0.00000000000000

0.00000000000000 0.00000000000000 13.55486082433522

PRIMCOORD
 96 1
Ni 2.378183529991857 1.6808718571903642 1.9959804571629054 -0.4601575318641882 0.9647519538855126 0.4374042973280725
Ni 2.249979241590663 6.672077907348828 8.794203864116309 -0.8213023952078887 0.21263640208593054 0.9593233266707738
Ni 1.066291449886803 6.3027925070953295 3.204193118917709 -1.5644242281492928 -0.3663624029888981 1.540578531879947
Ni 8.003974413008066 5.04685725069323 7.07931059152164 -0.9829540787158362 -3.313877638190209 -1.011952265720399
Ni 4.616141593633756 2.8613552362823045 8.910110987586554 0.06069268989436645 -1.5087063657616986 0.8947361868180075
Ni 3.756127259658228 1.036414469869303 7.7184631015475915 0.22360138573786653 0.2550457202900769 1.4047019004535746
Ni 5.168004422301697 2.3060935075317768 13.201092683537604 -1.3864825492320703 -0.692029642251279 0.6683968333236875
Ni 2.3338218640638275 0.7866119841538606 6.127718590525331 -0.20598187288389042 -1.9574618264365318 2.082274229628943
Ni 4.4522720076357265 4.868753034104098 2.3424830394241387 0.2924691552438576 -0.021415232450982473 -0.7120351388389285
Ni 3.331598156427548 0.9086408322960122 10.85307879090006 1.78022077313076 0.6400689329132718 -1.1777650225845715
Ni 2.1461321935633153 3.9910588629142474 2.6281249353292035 -0.6467720559650603 0.4116071337593105 -0.3027718227214463
Ni 1.8810920775866224 5.3625289381998895 6.638140769848479 -1.6411608588803992 -0.9149928801845144 0.504591336697531
Ni 8.065728815598485 5.899166176307146 4.661869302510509 0.0906774091819148 0.042774157742732785 -1.0356498664476552
Ni 3.645889909023293 -0.11841045505695727 1.937816663733301 1.5985797909850792 -0.746580738024282 0.4761755045589992
Ni 2.4405677015349068 5.075354295799817 11.870723367588496 -1.2681464977926225 0.45987471051644674 0.15811024601359222
Ni 0.49979390211667474 6.830122130535013 0.9438439906173137 0.024801889535028255 0.9232384080227584 -0.20328092901295958
Ni 5.953446703239126 1.6802976560864944 10.763765513716313 -0.09889516910601678 0.3708353511585872 -0.48824169169491394
Ni 1.294777182686474 2.074320010347043 10.01429044902066 -0.10870084234252894 -0.2821168654752561 -0.39448204404324966
Ni 2.43051918221718 7.573036484553546 4.810349372794007 0.6977750293754886 0.9384883922032935 0.29039016122764183
Ni 3.694798877241649 3.415903844307058 6.530677180997562 0.686017117508612 0.05865303375651834 -1.5947349633176924
Ni 3.197133223732545 5.261238011215576 4.442267016466197 -1.3519022401540397 -0.8127357365848004 0.06874358522330097
Ni 3.29666450217274 4.756959783703838 9.55511942274117 0.5414807535247126 0.18473016259396574 -1.4190607402784077
Ni 1.7716326768343502 7.390107126430279 12.366044984010674 -0.14360408197761718 -0.6057290219808213 -0.3866959723399276
Ni 4.909011940531895 6.535807019569072 4.196449671637775 1.9195833062232037 1.0516482987584403 -1.4595576719511896
P 2.5633263407574614 0.6383088048555876 4.110551964891243 1.2321441115560843 -0.007695568872044811 -2.544233076367928
P 6.092977571479564 4.702318065754908 5.576415144868256 -0.2693953041435296 0.18899485140759062 0.03681794015929788
P 8.011948399305359 1.917544586374248 4.900760114990794 -1.4721797315905742 -0.3449605402743543 0.8310317066805107
P 8.608589652767044 8.130141213621334 3.723344081150495 0.9027932527945292 -0.9617352785463761 1.2625612903953611
P 0.5646823313772484 5.757820091673829 10.768373940640277 1.3046906154652433 0.6841337844429702 -0.6274502157079969
P 6.602247644071721 4.922533450397223 12.066143451982564 -0.5891842302482628 0.5483844226230814 -1.5221205822850754
P 8.576221380863398 1.6653776886939982 11.385079818158971 -0.3097351414131569 -0.629226076661497 0.4756137185182583
P 6.617093520999202 5.576307713693984 2.7232394959236625 -0.17690655278448886 0.6213978388663298 -0.491910655906069
Ni 6.327899913427457 6.875604414746403 6.155546969185153 -0.06478742878903035 -1.5540104890151365 0.7032046850314921
Ni 7.174050069136959 2.990874630437523 12.83501632655009 2.895903167451974 0.5820933848397523 -0.9569393998196294
Ni 7.0228869978890875 8.289065261079578 8.15502449629679 2.1714200326576796 0.30879283210454567 0.18233903665396986
Ni 4.215108429121115 3.8768484110928565 11.431464153781922 2.692751822038343 -2.881120352715844 -0.1729956477658569
Ni 0.4848470769306106 2.4056710925126072 6.784004520586117 -0.26411631513277745 0.8993772851344445 0.7137467222133966
Ni 5.189342476226161 1.5824056291847668 5.685179947511008 0.041452867828147964 -1.095209985399475 0.3094659469121703
Ni 9.119850906606493 3.7541360784109368 11.164975569214178 -1.0759681064507274 -0.33538138122635147 -0.0685234987926949
Ni 6.59033760182048 3.995263496803877 9.704696958037708 0.4635161639237759 -0.7085422951943217 0.7544855946936555
Ni 7.878224371260512 0.6137746734965178 0.05704873193112128 1.362098721071067 1.8257007598404298 -2.859268804058392
Ni 1.9248239745620206 9.161295260474537 9.039451638494924 -0.130715141830091 -0.2749036355562685 0.18006412457686408
Ni 7.207538959323964 6.218171934739503 9.625848959037402 0.48103900329888766 0.9419429264107971 0.535631236722471
Ni 4.883756353269737 8.186070253399908 7.553229324862465 -1.8865747125076668 0.13855417825853558 -0.6841165580517896
Ni 9.085935996245649 8.08479784903185 9.811482619133733 0.7215230237247057 -0.9866775503140104 -1.3494524930619662
Ni 7.309292951714625 1.960813417943299 7.0071853760906775 1.478456051517589 0.9578498274490408 -0.5058833160360772
Ni 7.19757379177938 3.6203009146685647 3.834683527452536 -0.3340816885783214 1.0938452438414645 2.140926749164829
Ni 5.422032842915462 8.32477686521705 9.941202983675307 -0.3230660541941081 0.9559680370452954 0.8206717036024253
Ni 7.582251486139849 5.643220664911106 0.3302008276961983 -0.9114393585053011 0.49964581976679756 0.18833587766735307
Ni 6.287696574848421 1.4349007746470357 3.350517156669255 -0.9489936626099915 0.5201930477905299 0.5292217336517014
Ni 3.00627618585262 3.3300422566622223 0.2812483313296456 1.0235561685079146 -0.5663250662619022 0.3534174127924558
Ni 6.5674621707469445 3.533744728914209 1.7001992811204698 -0.22033042829607863 0.06806609954030214 -1.7899014907536337
Ni 9.228652754481752 0.1817161267586374 7.396819722560684 0.43369702367981433 -0.5732418479863934 0.22110484456825794
Ni 1.186836636467019 0.3243708342302912 11.67462535543954 -1.4554539341954613 -0.1292429281599387 0.6225602346055472
Ni 0.9154006610978637 2.259962931751502 13.522695312768755 0.46350587951113076 -1.438160437222336 -0.981248151768323
Ni 8.783674682906794 4.689454108766592 2.111345794107726 0.23315457664394038 -0.563823639996287 0.5525632365911193
P 7.718827997087794 7.904480179800379 0.6835401076167368 -0.5464121293880589 -1.5893004225656822 0.1411885305575891
P 8.563524127421367 6.752688333285691 7.791523709099375 0.9351361879016089 3.8207778255265743 1.1316895683827477
P 5.449529666744339 0.2828449808507296 12.340033674005358 0.095096621295533 -0.7343412585352965 0.1831946997860458
P 5.112742196708263 8.56160703663909 5.111266870323641 0.43558858427557245 0.07022762596799519 -0.08051435260598393
P 2.6584862817617423 5.336273129660022 0.6314813685044094 -0.8732160533580445 2.3126576712856495 1.0228380593949675
P 5.1309128832533135 6.388265119798834 8.981721274285661 -0.013181274576964396 -0.3787304376359477 -1.1237785410657872
P 2.4868649808614665 3.0914431753879357 8.119211943900735 -0.4782696680838666 -0.9018506863756016 1.1787996344966731
P 8.509336213570656 3.3740427315733013 8.549240411897191 -1.9389766231481511 -1.3363743197217695 -0.13743780526590524
Ni 5.365427727643621 7.0577836069113875 1.2499089232039007 0.4609044373325417 -0.34561488602890156 0.596248850404528
Ni 4.755190873851593 5.217191229763862 13.380884310467465 0.19575145340513386 -0.062095483779164025 -0.20742554730895243
Ni 7.471319537395393 9.05865218250369 11.15743964279129 -0.5110723164361844 -0.4313812310624442 1.110733534956371
Ni 6.472496717213329 8.219281304343106 3.0107651419017465 0.4413447700330593 -1.2573316665653056 2.0863579127800134
Ni 6.259690379072563 7.220773368637357 12.441897875962729 1.1624350770957208 0.21807094283794057 0.10816965242940725
Ni 1.3630885914307638 8.706842870685723 2.701835686711498 -0.975119670273082 -0.016093820238069056 -0.5337605020623194
Ni 7.2421577291024555 8.845336472415942 5.561965651928609 1.3337515373869417 2.001334873670398 -0.8126634885859682
Ni 4.01953738540458 7.718429760838335 12.686969685486932 0.11725361700854645 0.7278566792522175 1.4177728747049194
Ni 5.243947148942583 4.640730366710774 7.712200604992157 1.560353657624345 1.5733806660116323 -0.6704439456607034
Ni 8.082908542173953 1.1288330636680106 9.277407058854388 -0.3946972453778493 1.245007340671998 -0.2533279662680218
Ni 4.208560684275371 3.231946480981702 4.072476874919779 1.304000274266438 -0.9835361764715511 -0.5969281358597398
Ni 8.257567552139864 0.5184396937686376 2.3489761425519347 0.48042836629808233 -0.266794890406205 -0.14544524895141403
Ni 0.515030606247112 0.7056227707146062 4.804845377374168 -1.863624274359081 -2.2658386540495816 0.1667329546855967
Ni 0.5403204603493399 4.775741716585267 13.263092510793387 0.09219513137802186 -0.21153596993290025 0.8459453905675496
Ni 5.983055105320945 0.2120432063511064 1.227787362611898 -1.8055471677106907 1.0109675332096266 -1.4101333558817908
Ni 3.3400074242068065 0.6352034882406256 13.215501426721493 -0.5526257143979386 1.2459887307486606 0.5093910720790195
Ni 0.10638001580006567 2.3775908062717326 3.3093784259693995 0.5904458705695057 1.9392141930802536 -1.6631386487030713
Ni 1.0099178673181355 4.246152333962609 9.144488764616584 0.48624625853143993 1.9248949482441045 -0.5987937283135688
Ni 4.471109508365918 6.271229968998727 11.046127054282817 0.6496995140245004 -1.1449063241833382 -0.8488679635309831
Ni 1.9891437595036003 2.664700619514917 4.997094389865571 0.4208299379091591 1.2041250006353392 -1.7428634155282243
Ni 3.858677724547805 6.307432422466925 6.366216723541035 1.0288649823153377 0.9313726070941186 1.4365398708997776
Ni 8.707268890859561 7.032277964329802 11.936287872342337 -0.967388105956779 0.5693566539993742 1.4089653037156185
Ni 0.27905710582681226 7.6193245025719785 5.876858463421792 -0.2032793863510628 -0.734562116296851 0.2829463033550869
Ni 3.0383944024368383 6.982276161752467 2.3351906854049886 0.7566640904022129 -1.5269707112885251 -0.7369966938802727
P 5.880208278571305 0.979086972563561 8.105427412884602 -0.9731718025180918 -0.35437154917560904 1.349973655672759
P 1.5368677771246158 8.902460220942892 0.41249032879647457 0.11503064121529866 -0.01086522484927806 0.5355633595990131
P 8.511642279294264 2.6218763307359594 1.0593927014630473 -1.1796686673651877 0.5284244345613868 2.354447610738242
P 3.24692201622296 8.007401097015034 10.543539941635057 -1.4505474980327793 0.02939825065645905 -0.006930665681562258
P 1.2289200205958226 4.615604437762394 4.691134110060818 -2.197667910610615 0.593947455964861 -0.9138438541817357
P 2.366949563233882 2.6358609060076343 11.890689821779361 0.4682593350357161 0.052092092709548996 -1.0246314038499644
P 2.514195101144059 8.047465515972165 7.21098231368556 0.03962275659794466 0.3158978185804431 -1.2092646358547494
P 4.681443077236791 2.47545504924908 1.836439606583407 -0.9496269253186161 -0.8395250888635025 0.6907726299157265
