# total energy = -340855.0959858203 ev
CRYSTAL
PRIMVEC
9.44951059373324 0.00000000000000 0.00000000000000
0.00000000000000 9.44951059373324 0.00000000000000
0.00000000000000 0.00000000000000 13.83031392509785
PRIMCOORD
 96 1
Ni 5.572924431308309 6.945768220166339 -0.0967195200814793 1.8114563341062737 -1.7700690294087387 1.3952543818874292
Ni 1.7547930044913602 3.1732401311684506 12.130374465743916 0.48480618365080375 0.15854579088911405 1.8755598494544024
Ni -0.19551320772435182 7.123806448067071 1.374147821311206 0.7441009090252216 -1.1084979607576328 1.1368893674161322
Ni 8.05103021933884 0.30143088135599155 12.435278042219782 1.2049811779880473 1.6291784897075425 -0.16488690261579342
Ni 4.1193156759481 5.795999026396286 1.399987507856217 -0.2129696170556332 0.12781622301574114 -0.03114120148949475
Ni 2.323615740371221 8.900418372372812 8.255245481310514 0.04157833766241872 0.4972418383109953 -3.6375296467947744
Ni 3.431769289765984 3.9157070725524696 4.871534512199354 -1.2204314511048464 0.6644357917934105 -1.0066352243828598
Ni 5.655390309705936 9.155432313053089 13.959903649019147 0.2885016859556774 2.7841504256569984 -0.4556575871113056
Ni 5.0880133489372055 1.41521539407574 4.224234536316691 0.6693126602697376 0.23522251491656263 0.11566107571044597
Ni 0.7014116529831748 0.7449474378982139 4.713232531992134 -0.6601232804609857 -0.26051985603077066 -0.44401254667320955
Ni 0.17416203868121702 9.460093982059377 2.2895672640285682 -0.5518590114352432 0.2164498622947498 3.7636106322869636
Ni 3.106233651998338 3.154926979760796 7.975402951711966 -2.127802038857413 -2.979342407014237 3.185898407234042
Ni 3.5109750870306695 8.431231275524071 13.63219462382954 -1.552583269650307 -1.0215314247684022 0.1024836577882235
Ni 4.959405510620292 1.9371213101728326 1.9103810852742873 -0.5845598441023738 -3.025677799745667 -2.320782614385629
Ni 6.137778372765458 4.1991734894393735 10.230573997410367 -0.29835775281415067 0.582274647612623 -1.1221340634838288
Ni 8.172541475247524 4.549589688433208 11.248291006275226 0.7941962830197161 1.569854655136245 -0.6664955025359167
Ni 7.8645441290240505 8.407427958498333 3.3885377790900195 0.6959896553402917 -0.7533661363772316 -0.3015569764777387
Ni 6.492078320587232 5.655834436700857 7.776536112700423 0.7370743411957434 0.15152487948659066 0.5351337282607622
Ni 8.59242102614934 1.4799539907185886 0.8744510898133964 -0.8302830014399444 2.520056222011408 -0.6038791132562761
Ni -0.09445730726053374 3.7286162135637437 3.9722595582229494 1.7399945786208615 0.6176735959372072 0.8943083552519694
Ni 5.2880405878418655 1.9971351515505487 10.145364926105804 0.9366284561764191 -0.26347585333530105 -0.16750839939904055
Ni 7.827615441871774 8.827005125063181 0.626064090867997 0.7150849814088459 -1.693704180194754 1.1185250059763316
Ni 1.1037689765087197 9.410663592475558 0.45597573617637743 0.2847833565638257 -0.9477448778045549 -4.331774551529817
Ni 2.028299637279364 5.999333593986538 3.1225803602646445 0.40815517065496804 0.1236237822009484 -0.9199075438773124
P 1.9217753050716813 1.4626802854692633 8.289184343331014 -2.1316746344389412 0.9058999167443107 0.6071187032394963
P 2.74465758106826 4.539242474402568 9.834155691253095 -1.2035956104944303 -0.6049355795452485 -0.048016379978278595
P 5.9309191377474155 7.7433258079418055 9.982444025151391 -1.917504569317304 -1.0646154004420696 0.13457256790296823
P 8.540288076553866 5.480215283495874 9.113817613628852 -0.44594087404417393 -1.3267617363326698 -1.1333379026194481
P 2.236340061113689 8.148010545910955 1.615007340168196 0.2183915594021529 -1.3212729453039567 1.8166594755737682
P 4.556289391399167 -0.3311505369247295 1.9093718775496549 -0.01235312224871421 0.19167831177702474 0.9403799527990513
P 1.379061566786944 4.891321787249729 5.720757298799047 0.02437920017531285 -0.622360202779599 0.4151166895744657
P 4.267153268194104 5.724664671403312 3.5160532539896336 0.4790407419219363 -0.3831907874001465 1.161497909993432
Ni 8.173741563084867 2.9690173095883527 8.797255231060745 -0.6677404306866113 0.6466316737324541 -0.7833655109527993
Ni 4.3661652395302255 9.2406102009729 11.237655582173412 0.39352199412282546 -0.1435331195303657 0.24779340960303778
Ni 8.079671685756075 4.410351150769746 6.150492689183931 0.39750000493396703 0.21531652002125498 0.36714761789435485
Ni 0.8520302361782354 4.1191739332901465 7.753232674781735 -1.0192572840222447 0.6137493211821367 0.37009975854414323
Ni 4.338090743744806 6.797892829878213 12.0168140279954 -1.3448180796137483 -0.6992791247248409 -3.1742284270952816
Ni 0.5189312101821651 2.991214209823947 10.334218118808424 0.03687938952485262 0.6613142154452932 -1.1007591973524784
Ni 8.112499285338217 1.9519381426842888 3.6920295986926615 -0.622777749932992 -1.873511965786438 -1.150039017424213
Ni 3.5949812356447293 3.8787878349107223 13.80630469020284 0.8565265085175056 -0.37195609502659166 -1.0260869053495683
Ni 0.7322217820671054 5.996772776632836 10.405001567337486 1.4838707947752576 -0.14420469167609357 -0.6050908741761901
Ni 8.453560468907089 7.502580628162232 8.015510454206625 0.5750416201992935 -0.4883895301266879 -0.010907905161755408
Ni 2.2202097466385258 8.359887471020567 3.9208249274556617 -0.18461394873107562 -1.410431860958816 -0.1461147642146129
Ni 3.15540890479784 0.8033284038563001 5.3824402530881645 -0.6388530582282997 -1.7308903023267483 0.20237230115576113
Ni 1.5520632055750445 2.3715625568017877 6.106955014366785 -0.030494826154747485 1.245044107447204 0.8979438951220277
Ni 6.270562894736749 7.404022233331562 2.0691810546864517 -1.2472786532046776 1.5131376620601746 1.0018647995774101
Ni 7.611542934086723 2.373168973591933 11.04297960108204 -0.13859711568132907 -1.0135813166833898 0.6372905988371863
Ni 6.2650632796081345 1.305053000313905 7.715945851180361 1.1264177784608471 1.0026237892306216 -0.45328574444501935
Ni 6.971669328529796 5.376620299552574 4.262724282608568 0.43999031288769386 0.45457412423913973 -0.7294854731048921
Ni 8.407843736961665 2.1101512974925236 6.35804457332384 -0.05545303876198192 -0.8585119143786505 -0.36019201251212807
Ni 5.007654711387828 5.524316149140623 5.850430096952722 1.8276586548977491 -0.5594833607497204 -0.3137373205940145
Ni 5.415996409932189 3.732329871202138 3.023583508145371 -1.0453087296936576 2.5326767389888962 4.4083546020784015
Ni 9.432123430889792 0.865220807927433 9.625649406549629 -1.297643993031107 2.1105383666809585 -1.012671403274611
Ni 2.693649123225887 0.7329720732032086 2.847399274210677 1.329053360580324 1.1445458555201258 -1.194155291017137
Ni 3.0606775617319286 1.6777889431802266 10.520747676871654 -2.040401500654557 0.07671863300897755 -0.23912056441938814
Ni 6.605718134224204 5.237929833499867 1.6005826623437456 0.520820911182516 1.0606445887197797 -0.5101125236260763
P 1.898444463572456 0.23234928967343274 12.2150439699972 1.6480012788410006 0.998077564620836 0.9944307118968682
P 6.667423437986838 3.182368358340687 1.600388947377875 3.333549148477207 -2.363097830214072 -2.378643234147839
P 5.88939798847743 1.27248998702661 12.203011908239015 -0.23459696551742176 -0.8928096592192559 -0.11507923506504697
P 6.428142932339456 7.396358680291517 5.767863108792421 3.084745295331784 -1.715675799369839 0.21875537049947488
P 2.5559792043104492 5.83633898684999 12.93527148834824 0.162894554776113 -0.5312593329070205 0.49989855920755194
P 4.971340242420017 -0.0961790080791481 6.55639830391359 -1.429367007300422 2.0246622355424293 -1.0423972124738177
P 8.418228749034427 6.786959746194697 13.23807254873112 -1.4410426438661377 0.8439599847064045 -0.8665759223337076
P 1.327268799570559 2.318286216432151 2.8139990342904007 -1.2561150205493852 0.9095801938093754 0.07115630842985166
Ni 0.4664760322776084 5.304907964138389 12.791850597324084 -0.26614388708576747 -0.4915062213787987 0.21134493696801665
Ni 4.097959782149701 1.0953400131157232 8.224735846661446 -0.5061016026944702 -1.8199093499696335 1.1089892985717547
Ni 7.8892357000396345 7.088342435046984 10.533692561347065 1.6816390215001038 -0.687600659945648 -0.30633665725456916
Ni 4.082727171174913 3.7059846358437576 11.413812412527568 -0.5909513494510146 0.33232048291284055 -0.3384721043365332
Ni 7.098632952014443 0.20526982734685095 10.24072466162198 -0.5569392541716279 0.04473590945479393 -1.4541930652051667
Ni 8.81808478712261 6.939711083916438 5.401843878011012 -0.2960062218628386 0.07483350017112274 -0.30269314696471095
Ni 1.4137412704330183 9.007575821786023 10.325242028755726 1.235448236228653 -1.1279673823361542 1.2120892497877385
Ni 6.174584216280842 8.22904954821851 7.86784389810122 1.1861067096810476 -0.1517799329201902 0.8420188018196337
Ni 1.486020576479019 2.15165354774145 0.598875014219264 0.09441527895779224 2.070132966280718 0.685649192646232
Ni 4.363755614345008 5.9732245963914155 9.374698755397368 0.7417835737459547 1.0668568881780787 1.0702692562937375
Ni 7.166253649369022 9.581614687478591 5.1574209487330585 -0.7271203153068251 0.020098570522087966 1.2689186000719566
Ni 1.577671379112064 6.689497494585538 7.780243155681446 -1.2126662053371309 -0.04366478787780222 -1.3243055614826933
Ni 3.34654415429352 5.065221129538205 7.479488859279422 -0.7841319568051787 4.093288021150002 -1.9179239162429096
Ni 3.471759618330067 1.3416604041081532 13.387522227473587 0.7045768827886704 0.6100885845010976 -0.7941926834752903
Ni 4.3816246387577396 2.497070955664774 6.331019918158334 2.4339502342502595 0.031731269665009866 -0.961485624429415
Ni 6.525293350101116 8.183332816273088 11.954978320987447 -0.9177118217775743 -0.668487593265281 1.9849392059211945
Ni 4.574130067280308 7.8575892892737755 5.045644578572654 0.9062146197712523 2.7814386831527904 -2.504496677010254
Ni 3.016661741681952 6.495716382141385 5.302126973189332 -3.94659810115821 -1.9529228009155977 0.5261142983709713
Ni 3.273962463910551 3.512316917525967 2.2872294551233807 -1.87655949436351 -0.3767406608994286 0.7529298201707614
Ni 4.008387871833314 7.373122333897594 7.311146774133795 -0.21135290738781665 0.49498775216949586 0.7752858192684584
Ni 0.6319709799004659 7.8715367668164475 12.200881988565493 -0.6080993219852108 -0.8372069822532873 0.6634757418729863
Ni 1.7950762678818817 4.789635604433543 0.9568130235951903 -1.0485105244604074 0.9377463718309463 0.2586298380969094
Ni 7.204429671911295 4.081640477463932 13.388905635815219 0.9860296323173664 -0.17959129870550358 0.5458223183228599
Ni 8.943612085006658 4.2527900121881 1.4484625519254257 -0.16285804511122276 -0.21969330893271197 0.4597543828884985
P 7.997810576032385 0.21993074293455786 8.23544025219013 0.6189982282859017 0.34131111644722506 -1.4003634209792206
P 1.4238333476793419 8.323875386389725 5.857718504424715 -0.5745700798795137 -0.5251714748417278 1.2512525502507612
P 5.1248758895157716 3.9064371027222795 7.9040109547047575 2.146713273939619 0.17720788607499158 0.5503240628479554
P 8.929390571658606 2.8657247099820213 12.707997530780615 1.4971294595573765 -0.24219868912407963 0.3596258555960129
P 6.64472571369314 2.951280578323045 4.82845324874082 0.1379070315928399 0.6322111274317498 1.2253705402776767
P 9.359900821906972 5.779027705483929 3.3472538125343427 -1.641679964608663 0.7016404258681659 -0.44912415686816204
P 2.562537164618453 7.407905982159502 9.56700857905196 1.022909021842219 -2.901485032415126 1.4726659271983735
P 5.372613707087741 4.848487156016036 12.724774191776048 -0.5163492485644074 0.7295569497727759 -0.020356195058848815
