# total energy = -381166.17282452836 ev
CRYSTAL
PRIMVEC
9.26059189895816 0.00000000000000 0.00000000000000
0.00000000000000 9.26059189895816 0.00000000000000
0.00000000000000 0.00000000000000 13.55381231910223
PRIMCOORD
 96 1
Ni 5.272804917755019 2.3008958547445904 10.699094881036444 1.2629379570084893 -1.0128367252078816 0.6427968733673962
Ni 6.434694306075056 4.260538908255434 11.836855797887974 2.332379060973977 -0.26363551884161696 -0.5832570661305504
Ni 0.8247973709016039 2.801930903807024 11.23219287646826 -0.061956387098138464 -0.6748677857600119 0.5665631504146372
Ni 2.3406886169400156 7.622346660284708 7.157036195518596 -0.1544816481220694 -1.3661901175316211 -0.9999629545690069
Ni 7.164716004149888 3.3435366047610464 5.625157464105694 0.4035531531065824 0.7858358268701627 1.0745390873136849
Ni 2.8300182781935086 6.250695611157462 13.446940225540198 -0.966348094728039 -1.2615441619847563 1.463655496169647
Ni 9.02628013180275 2.1444566804910847 3.875441835992075 -0.31242014444448774 -3.2651467486434087 2.029157038088989
Ni 5.433077976939618 1.846913871708444 1.8487937718075065 0.05786113398284228 -0.7731091233321137 -0.032322109171473365
Ni 5.872122625691096 5.434050339059823 6.091029120724039 1.1035161912723253 -1.1692233036621476 0.08870203062309885
Ni 0.6541459666873533 4.459187859117445 4.802874343829191 -0.032938916819865854 -0.9084571359485257 0.612338556877539
Ni 2.9039826234704136 4.5736672927362125 5.6821647400653905 -0.41624900340669607 1.2467513199462978 0.18925016195150632
Ni 9.291058967430303 2.665031577873822 6.794797041553344 0.1619761567269017 0.03244912166764089 0.1862028904847503
Ni 6.873637088318703 2.309137781287278 7.983439353007279 1.7192272641665232 1.9413888321340693 1.4583052876013272
Ni 3.292844126227708 0.6887666884624515 1.8530638306039482 -0.70485584748167 0.7830559501321804 1.190556517922285
Ni 2.5940491430988786 2.804144185204443 7.179372742508441 -3.076192777776083 -0.5030800422593271 2.0465772904479653
Ni 6.018226979695569 1.2825363759583892 6.239212477547426 0.08274324193650265 -2.0161025188978763 -0.4676088459359108
Ni 0.7799029487821714 8.887408299854275 6.193291981876387 -2.184615448302031 -1.1962448265563141 -0.03057041658768929
Ni 6.973632956642232 7.316719355016937 2.042369770579535 2.1796349643683044 -1.7194260104408903 -0.4737262716875584
Ni 7.99326113648051 4.742284144971331 7.826933502494103 -0.9310949279526998 -0.6144643449712901 1.1382037153521818
Ni 1.7779317247236355 0.11842259353098827 10.848105208691589 -1.4380408809253362 1.1232314103130656 -0.8552525269010883
Ni 0.8436482312053057 8.055714566372515 1.6630800153217038 0.7714327640709553 -2.5162093374614924 -0.6134526158773241
Ni 4.048823262616195 2.368896379017573 5.675712885883042 1.0180573501768726 -0.806712670319172 -3.206518140366923
Ni 6.65342021957139 2.5476350578944404 3.614368163072083 -0.08175825231541402 0.7704446891260731 -0.4298899912288983
Ni 1.9247213625080626 2.7908737574115534 3.647154361647062 -0.5396814955324447 1.0369045647903625 -0.5718323692333764
P 4.800801823424411 8.59650533526389 6.208608074358354 0.7463920190522435 0.9889684032307162 0.5791363590939574
Ni 5.723379003074639 4.278087729377224 9.497454403183278 -0.088856296812776 0.29161966275936874 -0.9662989866576583
P 8.655504564481264 3.941094800289134 3.169626398355367 -2.1240595410958454 2.50194074335762 -1.7524060649113369
Ni 5.104438101493669 6.819601536210185 13.469141567892377 1.4706424690104416 0.612168606958578 -0.911904728177494
P 1.296593954039063 8.68305482455373 12.94233151417122 0.43207774290883655 -0.0034931007549230163 0.3040110944451861
P 0.7605455341168008 5.866631094859844 0.9654750182161725 -0.12509368187825554 1.2441750745786895 -1.9249669391326205
P 5.667593199149752 7.13241506057585 11.099121879111175 -0.5312148528223304 -1.3273307214622625 -0.2462147522620082
Ni 0.834884007295194 0.8085700362041304 2.194226804098972 1.0250072991321446 2.0967371991318084 0.8998485683439084
Ni 4.848845772754145 9.061924148951968 10.658215851443877 -1.9786094070484246 0.5193756940955572 -0.5854491886858628
Ni 0.8486100561958361 5.407565047023771 7.134781141735015 1.0132686705389775 0.7361783117440354 0.10192444285064382
Ni 1.7124871237380481 1.6667861040884269 0.16750743335892193 -0.1728166989858314 -0.24596432681409897 0.05069058437633205
Ni 3.4168527086244818 8.526615650300224 0.06013272563178336 -2.5178664134489415 -0.9795010871702292 0.32284236821907625
Ni 6.499212847898544 0.2226348092195563 4.06099353212451 1.0532516386898183 0.6579450418627443 -0.059277554714394685
Ni 8.145421917405114 5.6781873159641725 5.818231538811865 1.109895612436108 -0.016633237681306836 -1.7791838472258132
Ni 0.32015624746195387 7.51937814205084 11.141111253639103 1.1358658112476243 0.12223564360417012 3.6374113760493545
Ni 4.58255746069237 6.729533022104366 7.160912679171145 -0.08307440002367628 -0.6314097145763771 1.436842489741861
Ni 1.149693189155184 3.99695468894699 9.030931726973977 0.6871514882233714 -1.4238293653116445 -0.5520814118586943
Ni 7.856435895280276 0.22760311662422134 2.080551189832907 -0.5267069376496477 0.4369083315282604 -0.8210943929621407
Ni 6.4521134789141525 6.618165147270254 8.876310406855673 1.1905138376098077 0.4131163713149853 0.04907284626725097
Ni 3.6444687900769726 3.985240040546428 2.162754683475013 0.8016558246215548 1.3809078833577701 -1.365385619352455
Ni 8.54181228115028 7.616447663422133 13.485080898190438 0.35801994456147374 -0.8639035177078669 -0.43771128704553003
Ni 2.9740760414497416 7.6152345259197824 11.438251226686228 1.0238356474215464 -1.0471856350013966 0.3658453541431635
Ni 1.8439134400232409 7.367597045382696 9.363027655212882 0.0938411516218771 -0.6070251150844255 -0.3028013904078011
Ni 1.2521986778080023 6.664625535432796 4.972486709663565 -0.38526232521719456 -0.569842078276225 1.734027048183517
Ni 4.745895775703519 6.154783663738795 2.2503663626237813 1.0264404320342453 -1.5783495799811333 -0.7311824011913407
Ni 1.3878663450556117 3.9349550280444134 1.4241400824350579 0.13006259584775662 -0.5778850031853596 -0.3162901689228553
Ni 1.8966432487131988 1.2707569034164807 5.386800022432008 0.5435139819046576 1.3647335875907527 0.16214559242523044
Ni 5.020546401999055 0.5373643499916058 13.166796216295086 3.716845608217283 0.9847201694773233 0.6158789659306296
Ni 4.019698701968159 8.492258855386323 8.451980838189959 -0.4161279044477994 1.9221040157625284 0.3165431654739258
Ni 4.222394531368546 6.37566729508282 9.510424787807647 -0.4505531760052047 0.5850766358377923 1.6529519379780564
Ni 8.82569571729195 0.8331967275018484 12.968897373354377 -0.8906357914963887 0.23111594894735682 -0.14130165909668568
Ni 0.1996490947570791 5.736362352527277 9.996722531364426 -1.2609150130411897 0.031078209462043246 -2.0608505125375283
P 3.852517241434296 2.3946408237239454 3.357034843107812 3.0050776069968115 -2.4022634446699405 1.280713792934672
Ni 1.609972374493609 8.66393170285637 4.049228876529195 0.9939010646456431 0.31555071965366943 -1.7843993299884817
P 3.4776299714330863 7.760070178872179 2.8644223021246757 -2.8826720134736807 1.4597638744247248 1.3722275819749528
Ni 6.22188591062454 9.23774574146822 8.650028776655768 0.7138487950088996 -0.026376176000683604 -0.004257746835089441
P 7.3775243996004045 2.1738775800709926 11.819615354467166 0.5653645021208457 -0.6082862411850363 -2.437051755993719
P 2.796180076410385 1.6249837935112454 9.676717231545894 0.10374195567535681 -0.8127704464774776 -1.231723221968582
P 6.72418966073905 8.66261669884619 0.1813121972883425 0.27273748114288515 0.2286021813865676 1.2134380505061488
Ni 9.20959354294039 1.8740844475244496 9.337166527052085 -0.07521890853499949 -0.713787602753661 -1.1684915677024457
Ni 8.383270952598808 7.7535044194128915 4.0507735432115775 -0.1335389844321313 1.2301643621218943 0.4777168809041902
Ni 7.6360430752921635 6.262780683222863 11.43434788731798 -0.7351413858390887 0.12020575765833491 0.08306514405229565
Ni 1.8780294595549947 5.480621854321817 11.462635290483476 0.7034823641729111 -1.1046945278511426 -0.05846122946068641
Ni 4.631629335692034 2.076178338469472 8.288495279772036 -0.984800902116588 -0.8420933638113111 1.0790709137457675
Ni 3.2025348367397433 3.415778479996446 10.642168172223851 -0.4479239659124738 1.1801484352150837 -0.7907576896518124
Ni 9.084168090025603 4.553090258154357 12.64532674576176 0.1291709372714227 0.3100015077006661 0.1479147935378291
Ni 4.749637054718402 4.831778502396648 4.257672755148735 -1.2114824694416748 -1.0271017197673278 -0.6918409232792408
Ni 5.171762602578318 8.441779370460267 2.1715642842840674 0.7227334990930392 3.7298361069396795 -2.43144777954338
Ni 4.074438059039873 2.7499049000802622 0.11850779097390143 0.42973161127416315 1.4646155460900712 -0.004060286112302685
Ni 3.405656653354696 1.3280799655504536 12.03372486304043 -1.7428040230451984 0.5012216488943497 -1.9078932714797854
Ni 8.695213981352099 2.4776990699726693 1.4673083302763361 -0.4992634967267144 0.643252472847576 -0.2162832548098985
Ni 8.30640804214453 0.46316293356920346 7.55214304126509 0.19522540569833474 -0.4067942857516994 0.16862708638451604
Ni 6.907002999929157 8.986135467125727 11.455031418703477 1.370754339863536 0.4143553859284089 1.1450119965232668
Ni 3.290417851223007 4.755360100340178 8.303959541719939 0.06619870731426018 -0.03903063153990052 -0.2788945018832164
Ni 0.15848761712007065 6.059899641990057 2.98067328692054 -1.1661575202526302 -0.9447143185083471 0.06773545567376077
Ni 4.497498926653511 5.04409608649125 11.669696562774002 -1.9525348214485598 1.8186168564104548 0.5844963378542902
Ni 2.459715001044693 5.989546927445341 3.0015049877719733 -0.3034071423126 -1.2117120689539778 0.08198296673171042
Ni 8.284534524735735 3.8386911781441473 10.01443711707623 -2.298420187530029 -0.44609051224816076 1.3316213784178161
Ni 4.08388386249329 0.2196195605877596 4.3370841804171105 -0.641954837082075 0.6164749476434157 -0.3909483198583783
Ni 6.82773233565342 5.3723840594556025 3.5353901334915703 1.6711995713343346 -0.3210109714372923 0.28253672662149404
Ni 7.29798517816766 7.6942181118552675 6.220345874237969 -1.244271748057554 1.5743965088706564 0.6125177627678807
Ni 7.877540783584528 5.073452161929811 1.2151887233946868 -0.414151497447719 -0.3503362027639708 0.1190580172071369
Ni 3.628957299111802 7.098067526253571 5.123842745176306 -2.5159954216784732 -0.7254257012132217 -0.8112663511281254
Ni 1.5410735728333897 0.2911631872149357 8.340907450169393 0.29026700538621625 0.9127313378438474 0.20266874935025742
P 2.2448970572124205 3.469758468555239 12.640068581839358 0.2823037846750815 1.3159512759807273 0.6762168435887386
Ni 6.8814622882384455 2.9676214090899067 0.061046746024775785 -0.6694743826585825 -0.06376824349589663 2.485286936851023
P 8.207754959606048 0.7214565768845717 5.368515910335511 -0.2809938076144064 -0.3099760537793694 0.4078391820764459
Ni 5.594480828301979 7.422892037951669 4.24425415788991 2.0540854258995527 -1.4846927764559206 0.3567701313147727
P 8.48099797597519 7.180033022691018 8.010465463593999 0.23939027314100705 -0.1721991200064905 0.2821274069982173
P 5.504810519635862 4.77691875763386 0.5419696422047277 0.06826947380035985 -1.066333411574441 0.06569399976369976
P 4.7708438095304855 3.782618295879009 6.9968974149125005 0.9313432965180798 1.4370314658242154 0.5152588437137062
Ni 8.64349357714883 8.92197808837546 9.910831470138838 -0.8077940763088088 0.9049727769443512 -2.5290460842148446
