# total energy = -340865.4716920665 ev
CRYSTAL
PRIMVEC
9.32827967049819 0.00000000000000 0.00000000000000
0.00000000000000 9.32827967049819 0.00000000000000
0.00000000000000 0.00000000000000 13.65288021472940
PRIMCOORD
 96 1
Ni 3.3052054043648176 7.873683763707469 8.37955077682682 -0.2632771070609337 -0.4867352823527167 -0.3868337834693725
Ni 1.7500785612844947 6.1159373564799235 7.08865771837845 1.346358941738307 -0.09639914215704043 -0.598310360919247
Ni 8.721754987632732 4.968223130872551 1.8963170698789238 -0.6597391576486895 0.03782041328188326 1.1564683179893245
Ni 1.388337201399353 4.010703200803954 5.623716683786472 3.1466296915414063 2.08157180424528 0.03268052095215662
Ni 4.879511190582504 3.1534156364994517 3.7028932902129132 -1.1506612243892442 -2.53471870911959 -1.6255720033032068
Ni 3.921002462861884 6.188669953582077 1.24611638288725 -0.3826554837219668 -0.8666229735215591 -0.8231682447720339
Ni 3.48481210240315 5.226271333211515 3.4538506091311536 0.6744075582941418 2.1503333871907095 -0.3555036058975232
Ni 2.368272987673732 4.26195108721532 10.66500170003586 0.02633349568820626 0.46570468693466244 1.6033718130570838
Ni 6.004417772235181 2.1745432741149853 1.240535273121158 -0.07130157575846431 0.5122946188790597 -0.4717629773136004
Ni 8.711363284006747 7.550048426544182 12.147254156162042 -0.27990237432244053 -1.0771194464463514 0.5958001929028836
Ni 0.4942281184926534 7.656894542641152 1.4548235823902336 -1.110313930920449 0.18928590028544823 -1.0487270113465872
Ni 2.8347895855544354 1.8740607272566294 12.322652867211433 -1.1446589840592223 -0.9386999939934673 1.1325881689376172
Ni 7.255424039360079 1.5331400877424008 7.336129517152655 1.7616424959079402 0.7189197817739038 -0.4860372278444275
Ni 5.102998116499322 4.345439190853166 9.073185799925593 -0.4814562933419643 -1.0982431157988441 0.6421659246516166
Ni 6.48725885965401 2.2143563720285413 9.900153656603939 -2.0382358604618056 -1.6058580698140474 -1.3515679967430723
Ni 0.3787636047475261 2.845694344565904 7.7042243683660345 0.3979700025918501 -0.20740420715271374 0.5365622331771727
Ni 8.315209900175235 3.081811761245362 0.6088596168573496 0.24419052274312786 -1.2054956557306207 -0.6420715651655974
Ni 4.774847891943775 0.8114176143583144 10.986472876300379 0.5303041680826027 -0.9580249195743242 0.14498399304427934
Ni 1.3802775677073866 2.065616951636871 10.565923242475119 -1.8812386450067344 -0.2067318636760375 -0.648095145651858
Ni 4.4803727572354495 5.973709075344031 12.261951885312863 -1.5445724835306882 -0.2903189416700742 -0.7931912387939695
Ni 1.5381493739606718 6.733553429525523 9.384389338684617 0.012599691041881527 -1.1073111395383834 0.3814534929940656
Ni 2.604203838758468 4.316325629796886 8.43738424553452 -0.3786437914594124 -0.44613062145747684 -1.3987132869703072
Ni 7.336673355861268 8.51448061189721 7.703678664001475 -0.1465035150125993 -0.7631746378272212 0.6140956487779617
Ni 0.7384648698543886 6.820343744189938 5.101726671971295 -0.25583402051932713 0.48256135348068513 -0.3331758889346004
P 0.547498192753467 4.438022367233683 9.242945565874528 0.1946314808680777 1.5791926447077191 -0.07034204005867241
P 5.77189174325411 2.9716541058420862 7.482270078809855 -0.8873650911649168 -0.6892286824673743 -0.2598634533936944
P 4.958950820814895 8.179166268504359 7.160253198180777 0.875770187238466 -1.2200961792526148 -1.3492920562247022
P 0.22545146162923316 2.837737321951034 2.6031404148685557 -0.3241469459631127 0.138443106601968 0.22461851414847125
P 5.7014352464075575 4.651537362112638 2.414362152193717 0.3552002157244915 0.16597756457681095 -0.9583877022303817
P 8.2820478657135 7.85242461418896 9.805375536001526 0.3974930629554316 -0.8272987220006397 -0.7207164686630104
P 8.916184322171683 5.9771885236855855 0.056045237482295035 1.0999194750600025 0.3756535984828369 -0.5454052853900995
P 7.38240991140723 5.492966850865817 6.186310831636825 0.06300668273952374 -0.16828461544343276 -0.13356443835342804
Ni 6.8652687393988625 9.304735158018296 0.26836621255503307 0.0012958359932880908 -0.6465224018480994 -0.03310526719440105
Ni 0.9208644548457017 8.862061643142992 3.3157930018652593 1.654792847841537 0.07664407101730025 0.41431501960877676
Ni 7.445077294674162 4.2851505189189325 8.042897825291844 0.7852889532277573 -2.217224492586304 -0.007181348239787632
Ni 5.511194309470103 7.0950335975780545 10.417434752808347 -0.18631241947942107 0.5517281422843336 -0.5819234349207913
Ni 1.700862557396978 0.7464993171910675 8.275488219403094 -0.06099376607455302 0.8205596035045933 -0.667102025771664
Ni 6.750810747037257 2.5434953942361105 12.362669321623233 0.022244670330813305 -0.7185991652096915 -0.335384466550145
Ni 7.774561463231966 4.8927760043671995 12.18784429977761 0.7905275759188772 -0.171722180370072 1.9563418538994757
Ni 4.374440812552615 3.4650734624816217 11.501473208109317 1.7462243615806572 1.6792805485702562 -0.4895948632886987
Ni 0.633768922236583 8.208783556666388 7.475184317522334 -0.5708527789289265 0.43308767223058964 -0.849451346838279
Ni 4.360317797032201 9.295406878282224 13.29765959047327 1.276663534124698 -0.2196380302147443 -0.12429612567762464
Ni 5.932058306322468 0.21021651516428017 5.809642358518021 0.33294808919451047 0.08696550754796636 -1.2591628062367732
Ni 7.626633603177335 8.422811606930827 4.2979535828566915 0.48818487031504953 0.13798930689400107 0.3488372496209412
Ni 0.7562949437419169 8.735514200243438 10.35557333291061 1.5882827799344452 0.6869972220336943 0.5005300221439638
Ni 8.648238815032746 0.9037899716167953 2.223179991830892 -0.8091536756604968 -0.7291748838430087 -0.8022006413814314
Ni 6.102327396344993 6.473135844133598 0.7186599991467338 2.208852466472525 0.36047072009481146 1.4360811860958043
Ni 3.4390942034166607 1.2512394741183008 1.5054071120870582 1.3351088227457846 -0.07324712952060933 0.6906042226586622
Ni 7.5352257900435635 5.788290859030125 10.038089063405291 0.8725465380948456 1.296052223063955 -0.8720361741173304
Ni 5.088819131300491 0.7692696480268196 8.053015277493587 -0.6301107932592954 0.7637847606073942 1.2731488361032202
Ni 3.2629109840414663 8.12691857370262 11.502046897313086 0.7592027976636667 0.2643577417196221 -2.0589882625178086
Ni 5.578068746898003 4.351875703871056 13.4938109254515 0.80075825250795 -0.5217981874941207 1.062559032133673
Ni 5.598908123828388 4.922477247046853 4.782317045528448 0.2474272845128707 0.26030671157870006 1.2417163286255517
Ni 8.673471811718821 3.6044193051790674 5.733445238321888 -3.2562918693559406 0.4937446237910142 -0.6296582791029092
Ni 8.308316301450278 3.350410247965823 10.148759774194051 1.8447150961594039 0.7349153858712117 0.2553606804273344
Ni 5.927888565280445 0.5734821159582959 2.910794543188004 0.1945504911184972 0.3182642619300906 1.3954240746960742
P 2.879360106133388 4.964874278447301 13.335109835129678 -0.48784574180807594 -0.17532866677440773 -0.21553377823838366
P 5.844717623153625 7.5318116396601615 12.622852767193786 0.0992738926016742 2.4542660629894764 -0.7191123574006841
P 3.25045773059381 5.733841690210672 5.442215412133743 -0.5195878101063632 0.33790234787599227 0.8523312394892353
P 2.2689361367642995 0.18755812368536093 13.693975286372188 -1.5587927408951283 -0.8928891063069397 -0.20017889304886816
P 0.21942632574770418 9.01087568977255 5.250078968753918 0.8583900440888056 -0.12944835930252546 2.3485279028196975
P 3.3811562579759165 1.2095047505791139 3.6902506726866147 0.1261768876401053 -0.3845730124596538 0.756544019884581
P 7.179426544350299 8.234744159171877 2.2286547592079926 0.060785763828804996 0.03596073436532517 -1.2422961123884217
P 2.533187645127751 7.188409677736137 2.66867344567041 0.3551341383732464 1.3461074878491335 0.49206157966163644
Ni 1.4483926663401854 1.8060109265819833 5.019890606674707 -0.08788262004559703 -1.6573102149467522 0.1972403792458345
Ni 0.9743668032719435 3.811889574789048 12.862883397222525 -0.01524021398852214 0.2876563072362465 -0.35913580333347184
Ni 6.359172250598004 2.673177139126986 5.291951750833198 -0.12829804774816614 -0.09960607913011232 1.949942892351668
Ni 0.0753445154282547 0.3319347076444703 13.33033095742089 1.161872005503399 0.5004958264719188 0.9250780323346585
Ni 3.6037943104367507 2.346967196756543 9.744784627803842 -0.8028511304812367 -0.9850240738709874 -2.5455970465949904
Ni 6.495131927751255 6.47785595368005 3.395294198743908 0.28718888068152476 0.43836897523418694 -2.5428986738272203
Ni 2.441052226174566 3.3029946020673684 3.439979457163614 -2.0467449263740813 -1.4205105853510567 -0.2679999664578997
Ni 1.9809348281928079 7.2882409274715805 13.017666610055196 -1.2341943092168939 -0.8761424829762201 1.4961640103203135
Ni 1.7151907950715848 2.767971117804951 1.1033778448497948 -0.7224848734173428 -0.435555931265424 -0.22076803005412945
Ni 6.069836998024255 6.082691367500562 7.901358904028448 -0.8962785916044629 2.481168029586643 -0.6750300223694891
Ni 8.235975492097038 1.352012880107088 4.9798881446825085 0.4192697925108908 -0.4931167603990281 0.39399379155292147
Ni 4.700492174167545 8.17044432695113 1.9394323788190495 -0.11323421143650822 1.0673924489665745 -0.8519365751539779
Ni 8.820019086372515 6.162382861285826 7.919230022346815 0.005874456502906012 0.3147881304560321 -0.1750425029925566
Ni 7.334984937229039 2.623615988889234 3.214202438571592 0.4096716072994945 1.4872299410554772 -1.0131234032103646
Ni 2.569418683622655 9.055390240673088 5.903314145143736 -0.26444490211678967 -0.29694878828176596 0.0812201204237569
Ni 1.6554245068025706 5.639700691114232 1.528767923030104 -0.42335964630954825 -1.8377967717730155 -0.6209059868315758
Ni 4.406166291934996 8.288232515178516 4.187228768045462 -0.8143989832198362 0.33598327647640847 0.4895326425921957
Ni 0.679642603494665 5.627312735624728 11.367333478332574 -0.8988476378832198 0.7812026989735256 0.01832425223048457
Ni 4.081551485399421 1.7796678646073154 5.741049651962735 -0.5877125307987427 0.5748978955325776 0.24676471122820726
Ni 3.813148892553418 3.761684773249508 1.5150329639467113 0.26730602571466866 0.08443271382378362 -1.2276518801126857
Ni 8.084465572623754 0.277362405532501 11.479792420346739 -1.7553103830423253 1.6973623457726315 -1.0957486315117644
Ni 4.358769302596014 4.483758922779644 6.788512855246539 -0.4558691889014794 -0.19987473154488802 -0.2915697833580398
Ni 8.719534857055546 1.033797273470459 9.103112786974858 -0.2051388081573048 -0.2763969322723433 0.1556011064384933
Ni 5.988027984738902 7.068466656889722 5.519900392947778 0.04230904518085616 0.6389209353517576 1.8423627938771434
P 8.897313212265608 2.3297471923637536 11.899222660603671 0.9204040238977568 -1.12361630445631 1.5812389857137863
P 4.676742373959504 2.373235632493322 13.212274114737106 0.4059414508331009 -1.5726273327853755 1.9094405613622472
P 2.9335200982810226 0.09382477041338722 9.76666970489264 0.9734116864430397 0.8471772060921215 2.380598558101997
P 2.60448368715055 2.4374048687977625 7.274855778878291 -0.15942382261869317 0.17770565164701654 -0.7552867504387121
P 0.17413752762907392 5.070451748500165 3.9168616394870415 0.26011567861381657 -0.5828711435460413 1.1513104279374688
P 6.47094369839562 9.134745916387853 9.774956948610168 -0.8167224891466902 1.31466135352471 0.09841437281485631
P 3.686237646744156 5.847077677926852 9.639889054999685 -0.3709605638825418 1.5903175509762868 0.6478645176982907
P 6.306542096327084 4.296503035357732 10.801694579976367 -0.8493528735872018 -1.1254448730246167 1.0759380245437404
