# total energy = -381171.8876726995 ev
CRYSTAL
PRIMVEC
9.20361895249549 0.00000000000000 0.00000000000000

0.00000000000000 9.20361895249549 0.00000000000000

0.00000000000000 0.00000000000000 13.47042665303312

PRIMCOORD
 96 1
Ni 3.4135854040877067 4.904599263008862 2.9697040722487382 -1.9730311416296988 1.2718481150139258 0.8258540191343132
Ni 4.80508053275995 3.3539551577839335 3.4888001381312823 1.5737956420618637 -0.39263959151787214 0.1407936091120156
Ni 2.0991981938493285 0.42563147609027996 4.5695461218503945 -0.43212710808953325 -0.8750443648160349 -0.4394380399286496
Ni 8.012983463565249 1.4485023436136804 12.559528821634542 0.9818037671614769 -2.254924321129923 1.4821329861485442
Ni 1.191482084580007 1.0277589094761608 12.67304441537763 0.6127432485151253 -1.2011864868323054 -0.9885847946390522
Ni 8.124743006838395 8.693379391717592 8.168426142821046 -2.6391592335238676 0.8438077753992564 -0.5022356919811608
Ni 8.504603966198733 3.833279625680292 9.46464448915631 -0.12805353583752785 0.1616892216141022 -0.08947259024053622
Ni 5.691950445412811 0.805792473423994 7.64290411028172 -0.4065245770300805 0.956022801542631 0.035881544387957556
Ni 0.9036517912005226 8.311015048039517 8.830187503958227 2.3966239869959756 1.2376164475245652 1.5340227330393
Ni 0.07266349090799808 6.427945434827865 8.038382690409595 -0.4851630527695902 -1.1882150142733021 -0.736661422028041
Ni 0.04310606908293749 0.9254698899638696 10.445466783398642 -0.5343533984513119 0.786758081574116 0.0981084115386633
Ni 5.798592776624698 0.4011084337571416 11.752893296727073 0.6189234091839082 -0.14228973404156783 0.545768582266789
Ni 8.175519371841933 8.970251856535683 3.6035545389668995 1.6498496449036488 0.16877415348534158 1.1418004315645045
Ni 1.8850760021133686 5.302812238286736 12.25870762029738 -0.5210212001187802 0.8848844908349084 1.7318022726180562
Ni 1.1557076182452692 7.97505535042775 11.453903615534141 0.7511117931254161 0.5263876066370161 -0.7477942987164089
Ni 6.807070104682985 2.9747844698347365 0.3385992954879694 -0.04677582270295816 0.22338001375567984 0.6961673185687365
Ni 3.2497517855580775 0.08455272569349184 8.548776734702354 0.47931096486418734 -1.4326197099097648 1.3322996354317636
Ni 3.1635967098288567 6.003612589352411 7.433358878182566 -0.8672130416970741 0.9259213541715602 -1.561237860001511
Ni 1.5475240784465705 6.555857329121712 1.818197905992614 -0.6461706749356356 -0.7643586308329933 -1.073531729095093
Ni 2.558550808916672 2.501175449222626 3.2293998232719945 -0.0330481887042205 1.4019747313303985 -0.15937291477609972
Ni 1.7639839893615947 3.2329827920767573 10.037528344118728 -0.4589956503456031 1.7522438283018593 2.7875334831966185
Ni 2.558863731956389 6.767466932921118 9.52220392122666 -0.4177250737315903 0.2915885524111172 0.16181366300710842
Ni 7.477157979762289 7.175325300717338 1.6763001925471668 0.28583056688141745 -0.22161160900134735 0.12203046957189952
Ni 3.550691713577953 5.881268884441767 0.8998976350857967 -0.9722282076578997 -0.1300937061960082 -0.9445564527742443
P 6.787834541359188 8.892628535448166 13.476218459248695 0.9216394389667546 -0.8352670849180969 0.3308333568443528
Ni 7.704745065824907 4.641891167547386 2.9363243875297194 -2.283389261338835 2.060488501212419 0.47168892954255537
P 8.282207721147895 2.9548034133869066 2.0630905565134796 -0.39092080905455256 -2.0611456751804442 -0.402054714184185
Ni 3.359284053077942 7.707975536029047 2.9235810569181733 0.9934932876842631 0.7072405456637626 -1.6991760019426025
P 3.966842541926681 6.6588090091886984 12.410316992316643 -0.9549082283222136 -0.19613634754837833 -1.191068167451381
P 4.549505241880265 1.8559925666572916 4.8668110448773545 0.5548422624332832 -1.004391936874638 1.771953390915645
P 4.532791470111836 2.852164656359637 11.412751474725674 -0.1889079481207392 -0.5526277712804676 0.08342407005361116
Ni 7.00076026264917 2.482096347418687 10.908715290310464 -1.0262663683502262 1.6636235587592896 -0.3318296593193511
Ni 5.400913611238106 5.175783891399149 6.9655840315374205 1.3765686325524678 1.4833594023564778 1.2056473508171366
Ni 0.6926938036132336 4.645545004217026 3.2995810981855294 2.2156620331951906 -0.9879209358028084 0.28858447547747074
Ni 9.24926876453772 8.774720974806456 0.7793182639020302 0.24445637481000482 -0.15725509710214855 -0.25437311970308446
Ni 5.121068377542701 7.77441646025608 7.075610533387662 0.13026597010781435 -1.467360712935376 1.8257835493622232
Ni 8.667351557708168 2.2693178840297485 7.426043841948234 -1.7959518107127717 -0.43439662085000025 -0.4483019180771828
Ni 0.7147254263330934 2.537897888295331 0.7420454484241754 0.1264730787242854 0.9748239934095341 0.950116463360525
Ni 6.1739623700032125 3.2149436991989373 8.398015936337856 -0.17972936694526465 -0.8114841235658864 0.2558494471382948
Ni 4.232725885879406 0.8442589982621819 3.090654349270758 -1.26370697396403 0.9017149321286857 0.7144396345153632
Ni 2.4793720762493834 0.7905549621135253 1.4584026763732065 -0.792008788450094 0.3077242816307152 0.5603955881513446
Ni 4.168512237405656 3.467472592250786 6.265485916587346 -1.071288441586871 -0.4218997739345702 -1.1706839473680741
Ni 1.2853866073516382 4.382993370275409 8.08053158313575 -0.1763231694771931 0.04990305547803019 -0.163950249734137
Ni 1.5392224142752473 2.6972861589372115 6.361812831831143 0.03214367461208013 -0.5839769750157104 -0.6940955236413723
Ni 5.401125294470856 4.640473810249843 1.4976689956864366 2.1388097028218263 2.1352294416697357 2.959608161810103
Ni 7.144677250062675 6.840304372224724 4.296379033967309 -1.064947844080824 -0.3068585911963102 0.7647800346411281
Ni 5.351674250576709 7.203046600588763 0.544388530748634 0.89011437177528 0.5143638427032625 0.382103982093871
Ni 2.4505831565953935 8.191027469545567 13.527002187147284 0.5807975488464643 -1.2773420482489615 -0.7360243026646742
Ni 6.02073132034871 6.932478614659094 11.541865361636788 -0.08925250380993016 -0.08359607685510119 -0.10011104379098888
Ni 5.785726117521029 4.717609339540154 10.168771028061803 0.5213410453520441 -0.4500420406967411 1.148015559236281
Ni 5.900403207958599 8.621591164958922 9.633240980422814 1.1212364913702237 -0.07450259919426523 -0.8226463108302928
Ni 1.2696024010835458 1.7947792979173014 8.615307854393775 -0.7569883065108511 -2.994470778015243 -1.1711488028196344
Ni 6.2742542042326015 4.641605855364114 4.811528588101889 0.033810777901857894 0.5227453818987384 0.3170188195587637
Ni 4.948113972767194 0.3217723192081132 1.058695953761622 1.2759407970260606 -0.9020435191126981 0.08076863470863509
Ni 3.3420088605617857 4.7833968068313055 10.733586070408922 1.8803762970064393 0.11576700516069094 -0.0422985036578949
Ni 3.7811595323297333 0.9971752841532038 12.8327769013632 -1.0598555171595812 0.5252686625412244 -1.420063213400993
P 7.252589680671062 6.554237492210235 6.519308838444615 -0.19391774263050474 1.4111666822423117 0.3101223495492466
Ni 9.20601175610621 6.816089651121896 3.5606785603543423 0.21535997166468074 -0.1276267327127544 0.35718485025468805
P 7.247619726510846 1.229364179623429 9.243042516409227 0.3099917375086532 -0.05300329166990871 -0.9373882171605792
Ni 7.184584141245444 6.572884023929858 9.115625776807637 0.45398688427710204 -0.7952200962985402 -0.02500706356729887
P 1.9951604867621464 4.3435834745086614 1.3477429655484776 -0.06631723516999546 -0.7793787583909094 -0.6014306517157835
P 1.998832730669417 8.423409641010913 6.928446509256149 0.9222680736896892 -0.06350341987028418 -0.6695571721803759
P 8.566369452067635 1.0701967958331136 5.40741964937858 -0.8794424938837305 0.07751413232707942 1.251515831214477
Ni 6.628980080608589 8.897129105048805 5.8570090656067455 1.8478811525922112 0.2208724168424777 -1.316250809499017
Ni 3.2231165127068473 2.754661518631257 8.277212917216879 1.5722738061006987 0.10797347725820114 0.41729904193776524
Ni 4.13606027746321 8.40522329023205 5.190263024519245 0.012477306531404317 0.36430346357734034 -0.894073356423028
Ni 4.098030924518746 5.931566661266914 5.078754740039753 0.9786407960524629 -0.705683742699604 -0.034176902992025006
Ni 6.850363927589753 2.226843183197535 3.9532469562128467 0.7769040715981717 -1.1842408601169023 -1.456603474418872
Ni 0.1496950193056968 6.633149319931881 13.070637987109242 -0.8206601336381996 1.6726784698727064 -1.1145899325879836
Ni 2.1524043142200817 6.991188499081346 4.661710240304068 -1.040190434630486 1.0545819274654677 0.8467123506405612
Ni 4.8987549650612 1.4589300437313182 9.832225980293389 -0.7652109515309595 1.2111541395679786 0.07321447651046101
Ni 7.467181256966597 0.8146058588014431 1.7344790281637807 -0.6336799986677926 1.3737051949617438 -0.34673562989690604
Ni 0.429970061999772 1.9645768614391894 3.82667879026602 -0.8538525612297683 -0.03898640856552641 -1.605693519211725
Ni 6.606541657937097 2.74209857894849 6.152010818767044 -0.92398942725617 -1.2772667149263357 0.46688970838169913
Ni 3.777082329194594 8.319427155636623 10.85772908279794 0.2905002044429449 -0.5368702513358947 1.0906719883198055
Ni 7.046502248160785 5.313175513072668 13.161630484887738 -0.2412746346479135 0.6988224968033965 1.503036826180747
Ni 9.293077990098137 7.850788089184727 6.139025432980659 -0.9038193800661983 1.1237186343621293 -1.354758221545596
Ni 0.8592544543978106 5.627101747240811 5.889701240000267 -0.7866194991137226 -1.6142349810238328 0.5084341074823889
Ni 4.90237198725558 6.681956110508963 9.339531415344169 -1.7519877464269957 -0.45768078818892144 -0.6182438666183804
Ni 0.13200290285721045 3.5306738426548625 11.886452531525936 -0.6985396754556551 0.03678682981104632 0.1403081848351648
Ni 4.761473786813465 4.282176929773552 12.962012276042676 -0.41419726308398985 0.20266823512962515 -2.3749372460511613
Ni 8.052301323143844 8.144788488617932 10.767288802148355 0.0105849746046979 -0.16653780795565512 0.20404506087249374
Ni 2.545187154396981 2.9929155989007086 12.491584026093104 0.0626248739200728 0.4912593954753152 0.2500084149764855
Ni 8.605567664601633 3.555624853262908 5.139034761831881 0.1299335264690601 0.709580506650849 0.2986305468595631
Ni 2.509118172260156 1.0281270542287693 10.654986245365114 -0.18653970499887873 0.4471698613552686 0.024037500565177956
Ni 5.9034496057864345 8.72567489014018 3.4539119802884493 0.1610094219382582 -0.8547141378991151 -0.5284136359281093
Ni 7.743354246754731 4.591795870336175 7.113516557840003 1.1541167870380122 0.17781698041390023 0.6591357197367358
Ni 3.3677513823879397 1.032498773165996 6.579777534422454 0.32358438859142336 0.7067270963624538 -1.3870366219633272
P 4.125604966489127 4.674241887682864 8.734022572405578 -0.04681798879480324 -0.8067779763394686 -0.7256648138072213
Ni 0.6248143537653839 5.804602739711033 10.23914097716105 -1.0841562986884747 -0.516628213257407 0.94929859544492
P 2.1102149255711398 4.157578338253181 4.9888528710908595 1.0671235115759041 0.6144185793350193 -1.1279784380797477
Ni 9.08503018678022 4.987201741875409 0.9204640416902745 -0.13129852513738677 -1.906435455987336 1.1426951754646322
P 1.1564070932752257 8.402324150305256 2.678755592814659 0.12356953192424523 2.3258381745316656 0.6690408946655897
P 5.21853470079582 6.628510696049013 3.173902001816252 0.594363460456357 -1.118999374509589 -0.4633415860191246
P 7.6075732583738755 4.927746364329125 11.280755014401633 1.8036612635418872 -0.08878327748299548 -1.8350138097112398
Ni 4.4586655241741004 2.6257372262677356 1.286469873286189 -1.120273356126006 -1.1256312780038098 -0.6016947040104477
