# total energy = -381176.5843469423 ev
CRYSTAL
PRIMVEC
9.18116086886274 0.00000000000000 0.00000000000000

0.00000000000000 9.18116086886274 0.00000000000000

0.00000000000000 0.00000000000000 13.43755697754886

PRIMCOORD
 96 1
Ni 4.223067835616865 8.124381881757452 7.37939584768427 -0.545318382103248 1.667588971164941 -0.5296066277949459
Ni 0.7779812907037957 3.194511542815097 8.723742765851462 -1.4113787982531176 -0.8816302455636688 1.1442499215462616
Ni 9.201175994787738 1.3862176031980546 3.113804546484916 -0.5703092477206306 -0.7197972992828506 -0.8203081496154195
Ni 2.435183617044358 1.5725584481462793 3.0775362059351044 1.060796798026928 0.6398105370455627 1.1619190566912505
Ni -0.15586857137790755 7.594215736135889 7.999901863824015 1.4989012067458187 -0.23069068848448013 -2.8278218984030197
Ni 8.620219666161958 4.664984661094442 12.515888216364495 -2.8881448636627938 -0.6492678258037206 -0.040810863368774875
Ni 7.896422833707617 0.8830771232835076 5.156555041836553 -0.7011424031858247 1.9713583819129663 -0.47398081090052563
Ni 3.268575969115715 6.952884092355424 0.529230585309175 -0.7124532002129536 1.2363656058365997 0.018091824504704326
Ni 1.1571292723373874 3.4088549290075125 13.047101932463422 1.6457831881437592 -1.1428674393764382 0.16051499880034292
Ni 4.880852120023426 6.209026422976965 12.283418463884077 -0.569876016837954 -1.8502756209663165 -0.30600627049834395
Ni 6.457184025366874 4.469288213022339 2.670929207792292 0.2594500200053596 0.12385800969894152 1.5649235363832146
Ni 6.039817624573548 5.325477388014786 5.328542059577838 0.8370084930892359 -0.34745142501700804 0.12488799362535265
Ni 5.346199268535486 2.8187358016401913 13.485125945650003 0.3770962444666344 0.45375985586796047 0.01923365141863139
Ni 7.853904876821765 6.546434092066799 1.1857956115264807 1.2112616116801203 0.6697510333587369 1.0195825285721472
Ni 7.872726257002286 7.167098942292946 5.379645320174325 -0.6694106193001825 -2.242291977077893 -0.6000844221005343
Ni 5.086491765527483 0.8718816154824698 1.3798761752513784 -0.7279188999487206 -1.2211511028796904 0.9085844055550094
Ni 6.926286268753974 3.1165634853845483 6.377880828563327 0.433794211379311 0.7538996402831983 -1.5918622697555875
Ni 5.946775738354327 4.790234060325014 8.411548401274676 0.4719452685277356 -0.9909085576762224 1.3209140193026412
Ni 5.637343067025492 7.497923718900129 0.4708815524012398 0.6527334157548178 0.7400236536320545 1.562481245490309
Ni 8.534339085572398 0.7553717634684046 9.675054278160157 0.9523453526910437 -0.023326847651398537 -2.3562761793065485
Ni 6.233016796836333 8.858213723254384 8.713610436501597 0.25516141993233477 0.38983914595459956 -0.21213709385200885
Ni 1.291917897913111 3.9915924028796437 4.193511841920702 0.1644845249710522 -0.7065512329062219 1.1930173207579517
Ni 3.9290411525528675 5.882755502257363 7.50462045777997 -0.0376643473199932 -0.9840848498861696 -1.3162286980118298
Ni 0.2666530513526688 8.653942070748812 5.6535836228310155 2.0465734337932235 0.33826127387730776 0.460511058548865
P 4.440349193349654 0.596888397419564 3.515520740129112 0.9336156374920245 0.6966095483124778 -0.07935195686676656
Ni 2.284878829271034 2.7197628853738407 7.0489658610028245 -0.033932391081386716 -0.6899452489184247 -0.723251062159406
P 1.3042114725773637 7.082788340245275 1.8503647739590932 -0.3769378645118992 0.28657361569502904 1.4160486929249612
Ni 6.9750382340020565 2.275587494274601 1.9188562354940635 0.32310513496215965 -0.22269867141793906 -0.566946501895985
P 6.5865557659150324 6.57473961162609 3.1497772536484767 0.06236879204520872 1.253867362165789 0.5616443729567812
P 9.728909132727427 5.723912234694827 9.435126668547724 -0.4655766459972304 1.1920829818691405 -2.4221223883773964
P 3.269191106906981 4.445958882759556 0.021268159603989093 0.4359444249530944 0.47163005128016194 -0.18933835078993844
Ni 8.73446085327719 5.6507934679837675 3.4780156971840244 -0.17318590939979206 -0.0020067460173836408 -0.36082656077233344
Ni 4.557537533166324 3.005544885802663 2.4522734302482716 1.0936938058652648 -1.331938395437603 0.2804585039362267
Ni 2.5885273691297566 4.109157170299925 2.165368573821362 -0.7095036306663265 0.20145313177560145 -1.066373006563125
Ni 6.464629946989509 3.414859408343152 11.481600124710678 -0.1522221626639314 0.30267437791163354 -0.1921529374205981
Ni 3.2444111531961384 3.2885082697849404 9.070794326522574 -0.058795472871653584 0.09685525585785254 -0.035568641133229065
Ni 2.3644060464045342 7.255678784235224 8.788310199147821 -1.264930561958486 -0.754940422842887 -0.3731321176125638
Ni 6.144262512833845 0.3601916383854343 12.847446567740663 0.8461924735813492 0.5054835094944972 0.7425955281242889
Ni 5.615629621109916 7.749395720434022 4.945478312750592 0.19527965597503788 0.7175552973262094 -0.6907332920373588
Ni 4.155769925020172 1.249702919342361 8.21363929338623 0.389775896816832 0.36242141606327904 0.06203866239929961
Ni -0.6089212271096086 4.126454477743877 1.4607300701585788 0.9123916951162415 -0.7396019927136036 0.30040769336464396
Ni 2.2977599982433614 5.980534867585437 3.5732748338001215 -1.7844813481793267 0.9741745327509931 -2.8082576031178474
Ni 1.177520631059796 8.536414027972787 10.49149361632745 -0.3169941369684154 -0.1975563678243565 1.2862429502830168
Ni 4.655390347782909 5.487506518466415 1.6684878095200242 -0.8551771935784628 0.24499219270881675 -0.29034928068737736
Ni 7.252704088050596 2.7072306005219327 8.534165561628294 0.48952390084144726 -0.8353167072091099 1.3496286136285145
Ni 1.7271324758142097 0.44546809857700415 8.530067091329473 -0.008466385599798322 1.092994208695079 -1.2056658627598977
Ni 6.49483596688898 4.893320136747888 0.4276336932108272 0.025689434346304146 -0.10603460836427546 -1.9031608990011224
Ni 8.103090769250803 7.653131246681453 9.848506609207204 -1.4727816268406313 -0.7314850200334241 3.0466022086031597
Ni 1.0849745275380132 1.7319893100168906 5.186493889949071 0.13884805534987055 -0.15703501067154244 0.8791804984715955
Ni 3.7725758057058214 3.5680287183683412 11.473537229064565 0.8903380577503118 0.794371889365632 0.6809165630572531
Ni 8.755614248367882 7.987334690560067 3.15675126359244 1.1318821440095281 0.260390529541758 -0.323709601315378
Ni 6.568321980042586 5.918920095687154 10.657568884459838 -0.9574240527655318 -0.2616403427884591 -0.3410861449206125
Ni 8.34181013806726 -0.06888441522849531 11.8686549222523 0.15974212519006037 1.5530252422837318 -0.12355616218780657
Ni 8.356536720413384 4.9759781298041 7.6667845512992345 -0.12073926156430173 0.2748403864185009 -0.3050680749547907
Ni 3.465199714455249 6.9763786835173525 5.119239130809377 0.6540716749502671 0.23441184608980922 1.7106858023544151
Ni 7.545739205719718 7.197066252004762 12.416316688396792 -0.412921738805676 -1.6564126428331472 0.4115333430985815
P 7.241365354136964 8.742081216960035 6.675065831033226 -0.06559346963009348 -1.291147586673486 1.2422958552781056
Ni 1.012764695772257 0.9833666180463889 12.930155057182725 0.2112364364146104 1.029335494193853 -1.2363046706916774
P 5.29661181763061 2.926568538332983 9.598595405054136 0.13383003330998888 -0.5627473762129728 0.21327197878740045
Ni 4.193265786804195 1.321481236538125 11.961925419382007 -0.48840778495913306 -1.6206470551977636 -0.17687724220845022
P 2.0055144604257156 8.062280508322797 6.653888564923768 0.9883672793116076 -0.29973355011575475 1.1192582845979306
P 1.1691841368139844 2.542226773885674 1.649218388679596 -1.1937971363467699 -0.19946284081845003 -0.652815691055979
P 3.1132582674016276 4.946038363575475 5.657305665526227 -1.3088717434261266 -1.743077331311243 1.008547096693592
Ni 4.573062876524989 3.752257896271922 6.827461169180748 0.07615479008570757 -1.2847385978233488 -0.29006131713331335
Ni 1.5698867302767519 9.30896282567521 1.5058527224381928 0.21364993095210946 -0.9767600340899824 0.5874376798708012
Ni 8.128476679591849 3.31285670892579 3.9002242423223294 0.004584791157205007 -0.04333928621758343 0.9349832072635123
Ni 3.52368371043082 2.5144262181848847 5.027702036888492 0.48597834958203395 0.20726588180263658 -0.7040351513525875
Ni 3.698254306895421 5.409613548002247 9.803074551799746 0.8644776450437822 1.037133392971717 1.1903294895131435
Ni 3.1980187463414196 2.1461423044379324 0.6345522744510532 -1.5171822644431934 -0.14323590000492106 -0.366380400711027
Ni 2.109169768834538 1.9946347845652679 10.723708132530296 -0.6064350469089104 -0.8681682065214918 0.061303326895171845
Ni 1.8889228960781836 8.455261745331017 3.8176231724647134 -1.042769765321888 -0.1454655606663882 -0.1256341277627578
Ni 6.31428843457193 6.763632819350015 7.356014184803424 1.0206924738068743 0.6546902823708725 -1.133815356476499
Ni 0.4206202042742905 6.280409950246992 11.44967263711177 -1.3719781849683081 1.9468881646857439 -0.5157057014431378
Ni 6.7576834269807575 -0.16047475988355026 2.9167290880210492 -1.2299442756912882 0.05045867087118407 0.2085390920881054
Ni 3.832923577377317 7.801067294900351 2.7618878885661666 1.302058320048719 -0.09669430479995605 -0.41141301547063336
Ni 0.7864013335152865 7.8188603850417415 13.2561909401791 -0.5215511044803212 1.318556060593426 -0.6058254383493696
Ni 1.233516532387113 5.68460768418126 13.612245547389245 0.5521444038861459 -1.5922705609375998 0.9187394917111402
Ni 1.712561973206167 5.052916259517645 7.629320823578935 0.2428224387510076 -0.0057880674366868065 0.1820112210009059
Ni 8.201678076752481 9.543357867630677 1.001962141664744 -0.015317604193676846 -0.41578106263134207 -0.6797009454825972
Ni 5.636792197361673 0.8159261112638331 6.190736632022031 -0.8639127736792477 0.7293674594697891 0.5288705209598699
Ni 2.638151544678887 6.810282298714517 11.629909846184868 0.5458876243431566 0.4259448905382213 -0.4609592018298771
Ni 3.5648061308349934 -0.5027695610075746 10.161561248575655 0.8220433871389713 0.9265481891222817 0.36843342658531386
Ni 1.0397481281383798 6.304271787851467 5.621279707628497 0.13628158017427497 -0.28441414614986504 0.042950278309280866
Ni 5.787069441651805 8.072168618788368 11.104528921709688 -0.5483348003320686 -0.26575436495683263 -0.9431307760713111
Ni 8.106322537945216 4.429414430522824 10.092089239039085 1.0584028438734545 -0.07964737661999831 -0.9254320732399675
Ni 6.432459158622413 1.0451007450384988 10.65782412073741 -0.5353448158303038 1.9324069403504334 -0.7120477372444188
Ni 8.866026891319565 2.4205029405035514 11.165198952134519 -0.32800462914630607 0.49758328081081404 1.3065577505809693
Ni 3.440594202804616 0.0847255905277497 5.380169564471061 -0.2043664487676545 1.5628576549931212 0.6290774668987748
P 7.529745623146806 2.224466789472092 13.091540588243792 0.20111014661388588 -0.35129393869154985 0.07696545891246101
Ni 1.688351251481272 4.516350844634705 10.704707719709033 0.3085112963083848 -1.6969843936079225 0.3758060649003012
P 9.145648332674666 1.553076024369174 7.446610209715284 0.6423189052897131 0.3947602374053008 -0.0013919952515201834
Ni 4.201354389701288 4.773551890672327 3.9013801505002457 1.0185795412289298 -0.2656540919335425 0.09564940847520946
P 8.565830468020781 4.7848079941363855 5.49231928309599 -0.7196445757550703 -0.3350335109686295 0.1100362733245008
P 5.009792346001593 6.992335541446009 9.047413581757834 0.5307422840612859 0.25988967864593954 2.3636981828022328
P 2.785564266717156 8.853595599239357 12.620862857618166 0.10533963917977986 0.15066150304503084 -0.7297235572576272
Ni 6.126313342954372 2.0234544491441246 4.2665452238338695 -1.4558686531353764 0.6194751679223203 -1.2046271370827382
