# total energy = -340884.6917291011 ev
CRYSTAL
PRIMVEC
9.09743230112215 0.00000000000000 0.00000000000000

0.00000000000000 9.09743230112215 0.00000000000000

0.00000000000000 0.00000000000000 13.31501175524727

PRIMCOORD
 96 1
Ni 6.376735791129924 2.218745398154051 11.43919287353359 1.4392665258023212 0.7900768615347038 0.07856314241688406
Ni 4.900104310933857 0.7859471648197911 5.983260030473636 -0.6805792343224925 -1.5159219096735312 0.31573763885349493
Ni 2.8861693993930415 1.7779384280320008 4.6308940129366905 0.9960821314573619 1.0838444238750107 0.012349265593972281
Ni 3.4317969810176763 4.22793145019093 4.1299038911626536 0.5410107558668296 1.017414574386551 -0.007802269653238177
Ni 4.172173289463683 2.790209686658337 2.405556615555529 -1.4204164829753538 -0.8518892668558101 -0.05831004859480281
Ni 5.42145084655082 4.752025410271856 2.4012162307483877 -0.6016625652209315 0.35381361978961 -0.4874940148956121
Ni 5.4120713941589464 3.27744994970776 0.41487746943599985 0.8459351061549045 -1.2730578190513109 -1.2037503909047398
Ni 5.756809482362293 8.173997164729665 12.458510093243833 -0.2809992069310451 0.20912813182235596 -0.3443445039569102
Ni 1.778293227879996 6.991058081785632 -0.024808697063665123 -0.5658021038788965 -1.10462099430073 1.0500871249189077
Ni 0.49247037670615246 0.34124558405859373 -0.050553519880117616 1.3100778479190855 0.5218863763325529 0.6553340866024585
Ni 8.034178732323552 8.66476723139504 7.110322686074422 0.9126089533333702 1.4348249450911998 0.3203666529850741
Ni 8.770324734889616 2.6627273720440576 1.3062675101071677 0.1768913832758373 0.025494801836994804 -0.30473897375014614
Ni 7.006423644433425 1.3647148717335786 4.937872299881347 0.9750615633416367 -0.46494004085449603 -2.2329789272070837
Ni 0.6340418842586415 7.413697480203928 2.402214219038774 0.23357572334175902 0.9228733113738558 -0.45392903445597305
Ni 7.744507400015462 4.039232515649477 3.705367678172384 0.07385956629362764 -0.8792550604632727 -0.12331293582874892
Ni 7.836600704150219 4.197673391359339 12.554044955904141 -0.32227929662675464 -0.2810858531075804 -1.4834640462551418
Ni 8.502359875333232 7.093231340576253 8.918234423316418 -0.9272763255375579 1.1430127067050508 1.664745845289191
Ni 7.113600490823979 0.87121921444104 0.39900336033941414 -0.41562679644166484 -0.34167621309612767 -0.006256522432673096
Ni 2.2028521844502653 6.8371113374837105 9.149996052229291 -0.042257880227946576 1.1942362807667175 -1.7481681155705893
Ni 0.1874171063726702 5.260926658912986 0.9187487479243984 -0.5346837852075372 -0.23869144730176953 0.2928085408611473
Ni 6.870953784523254 1.9783821472852952 7.048567498172857 0.14972022217768408 0.8673580519153707 0.26233454064200623
Ni 3.5925577018875066 4.643292903009323 0.5173836942378162 -0.7506713631538878 0.13400872497969823 -0.6956646679007051
Ni 5.9154050144161525 5.25546819971306 4.54505246407225 -0.12206543657489302 0.7379922250243226 1.4927673259339387
Ni 5.840178349209167 2.939380279160323 8.996074780736969 -0.20638142231515422 -0.24536243156404197 0.8341234582319569
P 0.489318116518195 5.896145750872412 11.881077889347624 -0.6563357883940955 1.593848704057997 4.854028338504118
P 4.101113248112642 6.354565349346224 12.490852373746593 0.6263734377040502 0.1380445856119687 0.1197226473743293
P 2.2586103451775124 8.871633737640249 1.3093751928783257 1.480064790765606 -2.1206335461334316 -1.471823890913052
P 7.002420774353479 8.310349475543825 5.435267116529033 -0.6728782661338089 -0.8459315066104786 -0.5449129191347131
P 4.790816860319332 1.2204932822395254 12.59932924316993 0.6985617869428421 0.4492858792570069 0.30288160882643317
P 4.131125676280237 6.571793830639292 7.934202503360901 0.495099852267328 0.058798558195447125 1.14858942946188
P 5.061920333915673 1.3070098605583576 3.7097617378283245 -0.8976610737742863 -0.2737954900937543 0.03917307065503576
P 0.15503661665550725 5.640289573307865 3.5642555909358884 0.6486178509245475 0.7740938558428863 0.10778938627185307
Ni 1.1134074101689708 0.2711826212547395 4.35314304577804 0.11325812269590817 -0.5296403092463589 0.3919150546470218
Ni 2.187013555338479 6.881270272411114 4.261615601913675 0.02026569222757155 -0.6572274469704293 1.4935533121703437
Ni 6.40228138018558 5.768263149250139 8.943479797116078 -0.5899812722282614 1.1776482945010494 0.6829575047466819
Ni 8.95890540281507 2.3037245104649036 10.09388373399895 -0.13916558659028935 0.7895649548952919 -0.35146877370651725
Ni 2.656768554084138 5.534422757125294 6.895071986498128 -0.23638696753830907 0.04514394352648999 -0.10875920638429011
Ni 0.5813350022241529 0.08408938346126493 8.830941834047998 1.060273064312974 0.5763328282068912 1.0872367373860115
Ni 1.8570315018389332 1.6650756866415242 11.346905794097236 -0.18527086558878417 0.23046828806102887 0.6095481386165954
Ni 4.149748119583985 7.034525611881046 1.3906598380540285 -0.5303851578321833 0.5881987264065418 0.4174728485114681
Ni 5.824585350761377 7.8750737440776994 7.963455295956507 0.22655686882176468 1.4024524422977653 -0.5595944324062878
Ni 5.291284789496577 2.9866414383996855 5.268350163424887 0.0764790061943457 1.3743703393495685 -0.7347104689492573
Ni 1.1022266662411218 7.66101116912059 7.078166902927657 0.9695249497941238 -0.3622802624997245 -0.9656873212155884
Ni 5.482822122821991 5.0351920787000335 6.942766183500685 -0.7212602569816223 -0.19205446416952085 -0.23628129519838012
Ni 0.7127173859367796 7.80537831752664 10.924567520678137 0.8293977706215135 0.4472397953612556 0.31855376814605135
Ni 4.8159348700709925 0.7536922196642264 10.450792366731731 0.2633251866900497 -1.093724401992884 -0.4657527665637785
Ni 0.047776073890555104 7.530963378682345 4.959388636304257 -2.0139394498082863 -1.5591406111528503 0.6145355645288577
Ni 7.6972553382081 6.308841656114841 6.868335543593688 -0.19549897107469555 -0.9893044464138963 -1.2344282796045707
Ni 2.1565189632748907 5.535832859085275 2.1966177143007495 0.3966589970899104 -0.5578178001218393 1.1239094102166967
Ni 2.634125045836444 5.735221276226585 10.988333241051677 0.41166138403601366 -1.400424613234459 2.1489938424436796
Ni 1.0528549027777883 3.541384646888197 3.7697729480155147 1.0501783990811333 0.06013810294247707 -1.3115819432684381
Ni 1.4396049319565678 1.32831604630207 2.291087267673874 0.6152287339411404 1.9498891562955964 0.20853934919842151
Ni 1.5622110230189128 3.4039315468020526 7.889716970624702 -0.8885992206823342 0.925581197223322 1.3611911216551331
Ni 3.969245971274422 3.1399058753016167 7.303336532613417 -0.10389570764440172 -1.2797537430142476 -0.3911511798978038
Ni 4.506039946427176 7.092567228040262 5.765280101297378 0.013159934420725721 0.8032403954998554 -0.5525722354521838
Ni 8.394027655078695 7.442163344931543 0.3373946410930458 -1.054842894436338 0.05289401978555407 -0.8932529174042616
P 0.575248820216235 5.710121461338923 7.953934833368635 0.9341085179680428 -1.2119709790423192 -0.9871683739074999
P 9.015054753118312 1.8276558939113297 7.702587343103228 -0.8688125249737101 -0.5445285392121009 1.737690355967717
P 2.551847870829554 3.682594986390291 10.110021668623531 -1.895720897783309 -1.1862782022619054 0.1746766350127056
P 4.1438711785120645 6.2663657461074145 3.595665384658665 0.3204995790185125 0.41842184268829874 -0.4233151662248581
P 7.096097031656215 4.220271412447033 10.297071238743408 1.1485205238971576 -0.5108758841546621 1.9311602124275256
P 6.637322633334407 8.293264498248055 10.033766083857362 -0.911742491568017 -2.506901172686689 1.5916889774025167
P 2.865618300505319 8.852010576816513 5.597604422364442 -0.3319551291536219 -1.2876244040115759 0.06562072332360312
P 7.173052208943176 4.118734973896404 1.3068151755135604 0.2564253742464229 0.7660270196743517 0.7466714979658754
Ni 3.013042186063329 1.8334145683672518 0.28784001924651464 -1.211792544482926 0.30952868182930565 0.4081952798642841
Ni 1.8279379143033259 1.1554193511444038 6.936708203531967 -0.3942390747945081 0.8208241700198895 -1.2534482723504994
Ni 7.26903921397388 0.7984770579132219 9.002478463121681 -0.011406699175044872 1.0914811144846621 0.6804835892848926
Ni 2.8726506154412244 1.5202354717714794 9.158624056737974 -0.4420376823350258 2.0789189400034647 -0.16995197584352664
Ni 6.572849132751277 2.0341585028765423 2.3663175718536587 0.897612737034854 0.6383758614815651 0.8338614628198219
Ni 4.522215180522958 7.276162503229783 10.083072345810294 0.0550750865972729 0.3096541516635764 0.6457857807923909
Ni 7.415753499835899 6.501152271160245 11.191293309996135 0.6599487025563344 0.10659690862564868 0.2767183201675041
Ni 7.821216946638426 4.0625219415691625 8.371067556197405 2.577803456124206 -0.5341173711811059 -1.826720716464512
Ni 3.256616830428041 8.417180619518382 12.460454214462205 0.9921182617136074 1.8069011106354238 -0.14038146127526147
Ni 0.39034169533233104 5.078195639763452 10.150672633771782 -0.4714917259300848 -2.7261563656407177 -3.45054668361089
Ni 9.167391251956255 2.8905634590489826 5.848033071997862 -0.879297226555118 -1.6786927943875865 -0.2735340089022515
Ni 4.095763958096714 3.2255581975804604 11.57019862356142 -0.843255245329896 -0.6469417487737051 0.2623476532681288
Ni 1.2139522286316138 3.8751876218276915 12.60080757586991 0.8529506182407891 -0.978704816521179 -0.8912777959557618
Ni 3.346790576410824 8.789574901001355 7.846110249819691 1.085560121014537 -2.004626142827161 -0.3929416961393232
Ni 6.123254043317346 7.66987206788847 3.647594436257164 -3.632375356287344 -1.1274457055047291 0.4849172553073713
Ni 3.373900923770458 8.635000433891442 3.2894731158387973 0.9972985203629663 0.6021608450135887 -0.015348457431612275
Ni 4.2110921035591575 4.539027234858731 9.140635704444616 -1.0575507802858044 1.812650354414375 -0.2808701375523486
Ni 5.394640714447181 5.1220361645708605 11.056612197440353 -0.8381606044158081 0.6770629936391178 1.8798505064099562
Ni 7.912728015125191 8.808997918321094 3.236759865601909 1.4410038202084021 1.6096859282005695 -0.9497462245052998
Ni 4.829035172150816 0.45443037454186597 1.368090928748733 -0.17953550576690372 -0.2945424928331185 0.3831331946893337
Ni 6.056797302558243 6.011746819294852 0.2853591495401481 0.2945545770179766 -1.080781725789287 -1.012181865232702
Ni 7.935298743916887 9.053473208453793 11.659729181101815 -0.4169169760079981 -0.2864861981875453 -1.6225843814297929
Ni 0.6235998518091825 5.096072093643212 5.6995575233006655 -0.31706947029104104 1.3990223335702938 -0.09213239646088649
Ni 7.416363027779892 6.261789737811476 2.2657491000678163 1.2583148564141813 -1.7295322456369568 1.2280347173734012
P 8.87159734791225 1.7286303465926662 3.5864778880819888 -2.1485199881310546 1.0885680546029253 0.25971870028571403
P 1.7734897837840609 3.466867581377203 1.4461569024828793 0.9649792394049703 0.15940196824182226 -0.19443504858655547
P 4.880453857814122 1.2170544529435718 8.203924077036461 0.6359608242821693 -0.02580924775362007 -0.7171148673546811
P 8.486866948637442 1.9645813429414816 12.23563028719244 1.0270338426438699 0.6951391344145382 0.5818082494991658
P 6.368766440698032 7.898517826341384 1.4408703847477506 0.4768966989957399 1.3098947853740022 -1.0632252049627624
P 2.3670881243440482 3.6418748807588406 5.874157257728709 -0.34116456356703184 -1.2937575134925074 -0.8198538356868202
P 7.221459644614523 4.019045314041749 6.184396974045321 -0.23302833547872123 0.41681336055059826 -1.7512840354917516
P 2.7355341203390746 8.917484794919629 10.417917886456975 -1.3425660503547783 -1.2763262053899376 -0.8819174377867843
