# total energy = -381177.4103574793 ev
CRYSTAL
PRIMVEC
9.16595555874738 0.00000000000000 0.00000000000000
0.00000000000000 9.16595555874738 0.00000000000000
0.00000000000000 0.00000000000000 13.41530246921572
PRIMCOORD
 96 1
Ni 8.879721221609067 2.736101933890387 7.700906909369885 1.018442244320117 0.33047031707797925 -1.2654990328674462
Ni 1.3906496306884448 7.7368915347966265 3.476106200224866 -0.05520878396165976 0.7029712288644474 -0.35625205402777355
Ni 1.9662716477544309 0.6892477867245608 2.049228129688439 1.1424444929064066 -1.8001943880392093 0.13036572891047227
Ni 0.08041842880461998 6.618883255981235 0.7696249687285949 -0.7201125165304243 0.13328187411600273 0.4566027246333943
Ni 0.0649563781583045 2.7625640479551876 11.774436352259327 1.7673094643857306 -0.19342511926480238 0.22180135641465026
Ni 5.070496693896476 3.606867724037977 10.507092657029192 -0.02539170060022724 0.4043517377484778 -0.5330195101312368
Ni 3.8701231372888083 6.803870573631326 8.739573759173734 -1.032232099015358 0.838346238064053 -0.5361277167429154
Ni 1.3838668234809794 2.123632774967629 5.692059397455081 0.9386863671467124 0.6022014684435371 -0.2718468510078157
Ni 1.0761565251541925 5.741618803252439 8.37008950250274 0.008958494744868442 -0.09842157190370791 0.36463359322324945
Ni 4.87141213640168 1.7414307547826373 2.976425959206573 -0.8774704577590243 0.7288488679621578 -0.4795752742691677
Ni 1.275937695281107 4.044386286786556 0.2818210564923462 -0.4007984731795807 -0.012337181409114236 0.13830169592809727
Ni 3.630928357713108 7.977552867282049 6.076380586594621 0.35326571770594 -0.19192308079797912 0.6142298603629808
Ni 8.8384285912447 8.934377815363279 2.096141324079317 -0.5231307902626152 -0.8330227689686105 -0.3941742829948437
Ni 6.563502551727848 5.0315780460547215 3.5090807258044032 0.4935700458863629 0.15150585332319713 -0.06748400178458701
Ni 1.1269175877419542 0.8773790271748692 7.731829177471378 -0.850639196498793 0.17427862824333856 0.874552769891597
Ni 5.296153356924302 7.135183207848956 4.437702028240536 1.3300694605496644 0.3185100593923095 1.207399814731869
Ni 2.658475455187651 3.9798854566258335 11.733238131238524 -0.7030275360236796 -0.5192931616840798 -0.24058300789752757
Ni 8.951463156761543 7.462563647077393 11.613573829974168 0.7485648583338462 0.43408371759527176 -0.026118551463922758
Ni 8.682534016941224 1.3922903367561967 9.847999031319658 0.10515066309742536 0.48974835814742756 0.5980211118136024
Ni 4.667460456437743 6.909425719308586 0.03176003645117264 -0.5589490855128051 1.6802267145336098 0.5731469742797419
Ni 3.9830293794260503 3.9784464015831684 3.2125629759655023 -0.3598405427099803 0.7707956447075887 -0.10470097715451644
Ni 7.513709679803957 2.891877350769948 13.300333325473495 -0.694940645250487 1.003942250931729 -0.17440615496013834
Ni 4.382197583585391 0.6020905472997671 0.9053049443626867 0.9604571831649008 1.3527813003248832 -0.3021470446532538
Ni 5.055876994577682 3.933221576229608 7.672533693544603 -1.5928914823510503 -0.1467523977986118 0.3823387238124964
P 1.955657471070316 7.707138842640637 1.263898212487856 0.2617737830425298 0.7820892153435369 0.14571187234923938
Ni 5.716779063344017 6.074480483980962 6.735071826849549 -1.456229378908905 -0.8096704673959152 -0.19394756742717567
P 5.647741085118842 5.0801667771449575 12.812123361400369 -0.40880823085793466 -2.0707963108963305 -0.23461522034986693
Ni 2.9241506807395234 9.449916992909081 9.366926596939036 -0.7545383023084619 -0.6841029312050348 -0.26761892896939715
P 3.831204489447054 2.304972042254786 9.194513137298676 -0.8809990397375731 1.0021435071600933 -1.6571189248715525
P 6.5337956893502875 7.288868786832163 8.145275190802435 1.3843999556714286 0.6386059752145002 2.500452845958184
P 7.378484335571879 7.302049431108292 2.7055178895536978 0.7442400057062473 -1.4806630864712371 0.41333800040748814
Ni 3.352118317663535 1.219090438117998 7.027298076236375 0.792092606413152 -1.3479247435635302 0.20710621629632076
Ni 8.335895904816997 4.23090431903617 10.220313735106417 -0.3758546587500495 -1.0137561516983573 -1.0593199563710853
Ni 8.043758565200324 5.014153564296084 12.503424056455087 -0.02896039178809206 0.9629182431108837 0.4665737198031771
Ni 5.0825315937118845 0.6124911572164037 5.0004605430971205 -2.025561093207615 -0.9769181569344013 0.0721325563001919
Ni 5.022824558374817 2.69019882781608 12.623518241041106 0.394228790381863 0.8496961158592334 2.483866402354413
Ni 6.335856876316211 9.055560915484765 3.0604200273242097 0.8299940094446158 -0.006562226598549989 0.22616220448650726
Ni 3.1591474526111436 4.624545451916994 9.383024764909944 0.3359313401925505 0.10203500028657911 0.08650579430272844
Ni 7.778917441615855 4.861375414925767 7.620468315462756 0.5990567521669683 1.425487469740358 -0.031609656485481044
Ni 8.02573829632211 0.6225352114568639 12.233911045257585 0.7158126036034897 2.546696450306756 -2.26726664474536
Ni 4.093057511477963 2.821400317502108 5.512817300828825 0.22914905502897312 0.5843613549383226 -0.8652317496009874
Ni 7.402838279828953 0.5043777933072474 8.188834562007893 0.8657925072004636 -0.42558390765437676 -0.2628109660577925
Ni 0.34185714963853253 0.9668983333798843 4.008961701252215 0.6375276545486569 0.7566538059895679 -1.5839206463110076
Ni 3.112932704043521 5.467474234646919 6.79299975018801 0.27508952631482947 0.4482697792876667 -0.302659208402982
Ni 0.24824524421982366 1.7166276786969596 0.649304385037138 -1.2407670773384052 -0.1012019628623225 1.1895974964431255
Ni 1.3846642616256408 8.759097244784412 5.759055200753467 -0.1761071968116451 0.9411227445023469 -0.3786206515309608
Ni 3.0211081599835357 6.32222710021148 4.3255226463891745 0.34036675025608476 0.27355534905849016 -0.09997374688217621
Ni 0.320312570799144 8.307591433659358 9.219613190348571 0.6626486179860007 0.7003960119381034 1.5996488556795416
Ni 5.748548265750876 3.701836190898179 1.4975640875939031 1.3698215436366215 -0.317821260855401 0.36150481778628063
Ni 6.941240751493873 8.596584850475814 10.21528345862607 1.384392499472261 -1.5603773117734288 0.22995766697319747
Ni 6.412970061500545 8.311661117983837 6.229663780123223 0.5902309263452222 0.5751519205249127 -0.5243746899720453
Ni 6.795080422128678 6.056313559811778 0.9826802758796329 0.2982590224527573 -0.0993350848569128 0.8565972138544408
Ni 4.124001777873103 8.491103032444041 2.7852580376375715 -1.8092654971025421 -0.05500978057697623 0.939925381760136
Ni 6.513593923018862 3.984120128152657 5.810785104857214 -0.04060003290954943 -1.065633557293939 -0.7539271510870241
Ni 8.79668682905173 3.315307839629507 4.4194031143094765 -0.3591049500955364 0.2849029128608255 -0.06297685794285283
Ni 8.128864463742643 6.383794824552758 9.618677819208663 -0.8715502356198476 0.9398438777899233 -0.4377801926102525
P 2.8408871392900426 0.4967673003013574 4.35577396653447 0.14912064092047222 -0.034555112267050166 -0.07947871225261796
Ni 4.9711560661741645 8.841774165070005 8.076589185275592 -0.09261987762026629 -0.35264839583691526 0.7086978469355794
P 4.5415110593596575 4.999011405503202 5.14447328904514 0.6251899589189104 -0.5971880743893457 -0.3664595906883947
Ni 8.368856681463004 8.251019155166821 4.726090491981732 -0.33849035916897835 -1.2869140082081125 -1.3220141943453554
P 0.9557433653103095 0.4417110708792467 11.36662465188831 0.2337932386692038 -0.21907547284305495 -0.017088322940854443
P 7.584938321438029 2.4240928023469768 2.268312802489573 0.829862368962758 1.8950992050389104 1.7861929315537948
P 0.9351107990616544 4.202709839346759 6.403807772197055 -0.8631789808370167 0.9189217829252755 0.10121584681939343
Ni 6.865933259579635 2.975764177206061 8.527088574466351 -0.2600881678099908 -0.5658357853303093 2.063833506425252
Ni 6.953614791669654 1.017466910898245 0.9844538883048283 -1.5361089261443674 -1.841143062537429 -0.38572152424180023
Ni 8.60059953906618 7.871337772795415 7.2188143041214365 -0.5070313135975912 -0.9213859281950519 -0.9424522619470478
Ni 3.7751913342513492 1.6023465432068527 11.171807763360807 -1.6951249718016805 -1.0283908708923966 0.8815148030317269
Ni 3.1973053261309796 8.732845947700383 12.737266834505869 -1.3316447754565839 -1.587390864247795 -1.2822765094361013
Ni 5.644707153786854 1.2159923450962098 9.857886347717892 0.35377582457313905 1.046364424651682 -0.7702199747097768
Ni 7.497119300012723 8.122512456452409 -0.08655136975396475 -0.7503319775365981 -2.7471998165745783 2.229957109661624
Ni 9.324160080900398 5.610582300768754 3.6353325994201175 -1.6668564638742904 1.2515723954840252 -0.1566586011687302
Ni 2.090681164277307 6.315884258876931 13.027171347317491 0.7516977475358732 -0.0640898885013735 -0.9385598688711773
Ni 6.240521771228579 6.7077105325319755 11.649929676606181 1.4509789291432431 0.6186292749822572 -0.6645684607165329
Ni 4.749229947110444 6.276672300453232 2.4880418419754156 -0.467621187231085 -1.162825884776236 -1.704352918157852
Ni 8.349223204384097 1.0092175507810572 5.966173718406836 -0.543310864754916 0.6181723899504967 1.4743615697332413
Ni 2.2955036100313917 1.6493587299191368 13.225221068415365 0.5213706130383988 1.4748248825229053 -0.8599874704829126
Ni 2.607292758638344 3.3202207918770763 7.470431703438052 -0.19764918464847897 -0.19066324024894907 -0.059828027901225996
Ni 5.859016363675705 1.500723592518786 6.979163976548154 -0.5062617824214184 1.9325545216718911 -1.2583457096521167
Ni 1.8431270331161902 4.318567519214817 4.274303286017125 0.5069197277203915 -0.5793872987624988 2.0318831787709004
Ni 0.99791592742051 6.5233464998685164 6.074704133299694 -0.12473758409041744 -1.4626928751460615 -1.1968318094080357
Ni 2.1368592490221867 7.170829609510892 10.408678707426713 -0.5313372373328075 -0.10678742736989996 0.6145371071907545
Ni 5.639601716469883 5.641444073562722 9.591565838885742 1.2263151635791332 0.36036890440962455 -1.02001601656514
Ni 6.8731102028815885 1.895702954929733 4.340534648611319 0.383135765792495 0.6371754134155607 -0.5168254168698777
Ni 1.2869093442369666 3.1075156242332342 9.409761857645318 0.13490783975519993 -0.3099351732391049 1.2015292148837047
Ni 4.6488718983070125 8.315336666213827 10.68068669176188 -0.5796238402533372 -0.2810267177348708 0.9570923804577258
Ni 3.879224931284772 5.907953401081999 11.29776449320344 1.0994469062989582 0.04862161766244529 0.07574572757274697
Ni 7.663591387177571 6.145177500185261 5.4107672166058025 0.5179718717694951 -0.3172502188432794 -0.2563158452517521
Ni 2.004154542603694 5.628785888760682 2.124098405516466 0.5256566420082625 -0.029515750070929814 -0.12979905777372486
P 6.844549084964747 2.50432241246447 11.208216772535799 1.4225515270404856 0.13437767828334277 -0.41617675540786386
Ni 3.8600497519901533 4.812227560538701 0.7210215721092621 -1.2158464028373255 0.0023420178696153216 -0.8392252982348966
P 0.6854558308573602 5.461947163368404 11.362667708818766 1.0838374818964753 -0.5490279697443512 -0.2803430614042849
Ni 8.464200952506323 4.454654463281357 1.6520947676913373 -0.009897461619370052 -1.174402790980558 0.692527150712988
P 3.6151720798892795 2.777852862039042 1.2663601881850521 -0.5599207053974551 -1.267329915428598 0.4290428127372547
P 5.640078346165543 8.944662017642706 12.68412812301322 -0.9217021738838901 -0.48695536878332263 -0.594413339857686
P 2.0501309763234867 7.988231205655965 7.791835939559371 0.30889387645878413 -0.975175977432314 0.07327078366969317
Ni 1.5951787658605852 2.8209786835405626 2.5804869212353267 -0.18078840433739832 1.0802225108517074 -0.8682129437164983
