# total energy = -340892.6289503127 ev
CRYSTAL
PRIMVEC
9.07987837001967 0.00000000000000 0.00000000000000

0.00000000000000 9.07987837001967 0.00000000000000

0.00000000000000 0.00000000000000 13.28931980269481

PRIMCOORD
 96 1
Ni 6.3681725289454425 1.9038143677680284 11.42565193748764 1.1212174652068303 -0.20439267401989958 -0.17876546037009858
Ni 4.697202556033445 0.44956020218348625 6.093591566260866 -0.01085828287074259 -0.19839300479303898 -0.34795484701598783
Ni 2.8301616947061787 1.7859121502042492 4.869246270931787 0.23786946562110645 -1.71407914430668 0.18633838762135005
Ni 3.5384194287552724 4.214915749093306 5.0129571341022885 -0.7337090242679365 1.4333311341544928 0.01626994080461714
Ni 5.24569075444509 4.513897976273909 2.9470124623820966 0.388750283765795 0.5375371954959324 -0.6988307243335126
Ni 7.407055865470461 6.64989390779422 2.804112432328919 -0.07766814140644043 -1.1799082941798196 -0.17501602062999536
Ni 4.852795347729473 4.581288831780906 11.366541022850603 0.34920234626984376 -0.3027597385365882 -0.2834273567565635
Ni 5.5738920294593655 7.8942004072120335 12.418975169502088 -0.30900546233598397 0.5935054833314359 -0.3346995246679784
Ni 1.903478412277088 6.504697576561075 0.37552015191931026 -0.546106168111866 -0.5176108888856505 -0.5275847122689108
Ni 2.7061941185492073 1.8930365524235382 0.2855421915673636 1.4496090453789099 -1.2922058527346714 -0.1772780771912947
Ni 0.6846963582804175 9.161778634286064 4.4535031668687886 -1.50171167961142 0.11005452815694594 0.7866652647499937
Ni 9.099309072727435 2.1043162367124544 1.032913316652228 -0.781305543099977 -0.042961334052874396 1.8392869831652967
Ni 7.080507128276487 0.7097459260751772 4.69797343768698 -0.6277448641302802 -0.17108968899239566 -0.44733081241316514
Ni 0.7361556596143384 7.364634674830648 2.597609671926048 -0.19742035646712452 0.4562204015933111 -0.21638198517129187
Ni 7.572473085306959 4.081278102724133 3.5074634002346565 1.148225361254242 -0.3470266787747636 0.9588589854398455
Ni 7.573689788976852 3.7311489220174034 12.679313435346423 0.7933596460510336 0.5112306963909194 -0.02479186223269924
Ni 8.128615620985164 9.073077304799689 6.892611762132643 -0.48085645497443635 -0.004207096102812109 0.12151290650553266
Ni 6.975534657174842 0.6626985375263346 0.3844729117589627 -1.3011378651169785 0.17887961735045968 -0.9584473518237235
Ni 1.813878174855496 6.498014786254803 9.157523803392696 0.7339589354952134 0.2957167156468778 0.7315562395909917
Ni 0.04183099856113446 4.777386959830575 1.4451869992804074 -0.4954335814576628 -0.2352716229869432 0.045272241574238155
Ni 6.398490242033271 1.9646404713844903 7.100629954195997 0.3849077700912532 0.3703635537284912 -0.7559817196232077
Ni 3.629381647896892 4.502766045682211 0.8081127858346845 -0.12699449844539418 -0.11804217434811283 -0.6026701805498395
Ni 6.161305665429418 5.866609140727838 4.889180235386121 -0.3877732645645064 -0.3751671457647216 -0.10576927051803076
Ni 5.273938255318475 3.0867862903939027 9.241578959238145 -0.30422809555199865 -0.6641784243669658 0.19486390859385794
P 0.07383938495742515 5.554778885988302 12.62926514707445 0.4923009493659522 -0.6048453338242874 -0.5797858197524982
P 3.930034572654063 6.204026492047637 12.563098259139851 -0.5836345040746271 0.2442655989554374 0.3785185787354578
P 2.1968220351367735 8.535021886363461 1.3338222939727638 1.6029848620313103 -0.7341363416133421 0.9594670513374897
P 6.368208848457977 7.824630380952991 5.907261571107241 0.08929544123272365 0.29365751912500393 -0.4189828573980913
P 4.847601657437099 0.9732176578633897 12.814451985571065 -0.4089779236665796 -0.349648689778643 0.2636409181582556
P 3.99466514520847 6.124386880938519 8.328336620410107 0.09541363831531954 0.6807566404406211 -1.4204056843420765
P 4.758446334044049 1.0591405446409055 3.934502780683569 0.6137732324415366 0.1870932635095036 -0.6809715846649046
P 0.19040686043557672 5.6156140694828975 3.74624603539001 -0.1520298441474672 -0.0628398181443563 -0.4017155856772114
Ni 1.6852163017034933 1.0434686749824469 2.6186468415736046 0.23147127540424653 1.6303262301587405 -0.8490255721547699
Ni 1.9449734553472824 6.382110141880398 4.931905601943407 -0.6272627822875392 0.043130512640887006 -0.11538853877534967
Ni 6.016617807371749 5.626001450067647 9.259240230195658 0.24012740841734778 -0.03008627786241915 -0.08377348297322992
Ni 8.665526974776569 2.407039373684068 10.283527662621042 -0.438407027560974 -1.2048770483100153 0.9741375088654707
Ni 2.2687709894667996 5.249195587404629 7.11375945797707 -0.003021303324827055 -0.29186340333905864 -0.7976366761598327
Ni 0.5200055286946009 8.945305259704773 9.393222911933904 0.7323712792931193 1.2479376269449152 -1.1886508162591398
Ni 1.483679326651846 1.148886060112634 11.57619359297799 0.2796843447743635 -0.948587171200192 -1.224798984044923
Ni 3.902141187027884 6.992041875621585 1.6790519724386457 0.9693781398036145 -0.18924964773087408 -0.045411852475895985
Ni 5.622687294548911 7.925217270916144 7.943305296145932 -0.20113637186613104 0.07352892242708627 0.7465038620397595
Ni 5.35434057619081 2.985899764452343 4.885685390292529 1.3911532152348625 -1.5807188515442583 -0.10449940266667165
Ni 0.8118482476988154 7.522234119594184 7.190665117780185 -0.08455175590015115 -0.35481635002251155 -0.5213700988177665
Ni 5.239116922676421 4.493885924867627 7.044894030261188 -1.1232810326040785 0.28320495633311227 0.45695547998712266
Ni 8.37668697147111 6.995165353699516 9.336158601828162 -0.7486113953010656 -0.6119372076740622 -0.5437343254455798
Ni 4.678634205250393 0.25311613077693096 10.454242083360636 -0.17127866507475017 -0.9832327862985196 -0.4677302020051235
Ni 8.311856641597764 7.372779325516417 5.0991515092359965 0.4232804563321807 -0.7826294041177232 -0.35250467117019935
Ni 7.249638018269596 5.983548891209463 7.230160771685378 0.8378153052612475 0.4178366596087901 -0.8003602457385829
Ni 2.2138740462715276 5.374670423331765 2.5749517440316576 -0.45414269312867594 -0.9572484464196159 0.60459079461132
Ni 2.4121967444639085 5.212848835236142 11.36057372694125 -0.19069177949403932 -0.5161749277700722 0.44531018243871057
Ni 1.1169067293263704 3.258541265167599 3.8426461935457965 -0.4543797488401465 0.9310378494625191 -0.6013568610550546
Ni 3.748473329496163 2.789120645542661 2.792059802094482 -0.42319226749374866 -0.775354981943497 -0.25470016402520007
Ni 1.1965100209229553 3.2463833083468137 8.631625433789438 -0.7728975215419399 0.14024287881486813 -1.2380784747626485
Ni 3.4792912623497787 2.765612841054973 7.383678811227896 0.28107274048145786 0.3453156096209279 -1.3616066119259969
Ni 4.115908757925386 7.0977861363645784 5.850038363134161 0.03249488730391178 -0.6525464965549922 0.18571926598011243
Ni 0.9183570341806515 7.215933510637963 11.364428135208932 0.3456454821565209 -1.0410265573785362 0.32210240472925816
P 0.2144667215137825 5.322915117970692 7.9798508976455444 -0.172455973212303 0.7625629723851512 1.0452817331104645
P 8.465306582054282 1.7356731844914735 8.123069631421208 0.9234191565749968 -0.2860141436471332 -0.22011445563053061
P 1.9525460737106395 2.9849463772483236 10.699071917352915 -0.09243090153791178 2.187013516220562 -0.7266953119542646
P 3.945824480728257 5.93679659869996 3.77984158448404 -0.13579744144900485 2.498241440129162 0.7203747690528756
P 6.858585826815083 3.9108397102797983 10.49272805481738 0.42301460426530374 0.6638773481867792 0.7404530278599893
P 6.366474591734474 7.85590148124484 10.12113222622738 1.0204734158175328 -0.5062838939086055 0.47111197399316285
P 2.211713035275749 8.675306003526371 5.823432504227315 0.7215250806072347 -0.48082123086112677 0.2304592891999644
P 6.765299158871281 4.029777033950799 1.4990488363684582 0.3815689355260074 0.6573670578720873 -1.3720710017924307
Ni 5.3876092496720345 3.04921375467739 -0.04935186161913048 -0.6878251172516283 -0.06291720834951099 1.4433813193016432
Ni 1.4046662271339403 1.3174812372958649 7.194997127637689 -0.11781411749770676 -0.6735475242866916 -0.7847479931226228
Ni 6.871842448890025 0.8548814221248281 9.339534500518203 -0.3185540252563675 -0.8562506291482995 -0.6333604105448447
Ni 2.8505278613596685 1.4893270108508965 9.303493740242818 -0.9740320936358579 -1.1628973614441198 -0.05656298399670904
Ni 6.298838579517871 2.138574616910232 2.383944703651456 0.33743543554190275 -0.9076109858981465 0.6847364510239755
Ni 4.353002535747904 6.905229160786984 10.378772860278243 -1.32596212324951 0.21701961875529077 0.31599963426563
Ni 7.894100528552565 7.130519097035924 0.26228771567960124 0.8536864679655491 0.48102563356244904 0.26949197762239396
Ni 7.497972685221415 3.694030380207567 8.410159034222524 1.303661917090413 0.8267950428913438 -0.552324638217752
Ni 2.8783576878389123 8.472634043708034 12.482205624848307 2.1290909328721654 -0.20726793868516563 0.17054975732852562
Ni 0.19361568936796328 4.653501102576805 10.316458564635697 -0.42504654709366796 1.5679895769030479 0.5956459267132065
Ni 8.622606390839412 2.425171890316711 5.69849973702475 -0.19481762873695482 -1.2765966854425046 0.09882369243813303
Ni 3.8932338265788995 2.221246907315947 11.30869221127412 -0.1400356479000685 1.6378662472895278 0.8223979422649126
Ni 0.971238244430282 3.3833714297472555 12.61272070112736 0.05444593765370623 1.1924794459766108 -0.31512597341142506
Ni 3.1332934261938012 8.378457547707146 7.741520440421239 -0.12666591146138187 0.011349877795180452 1.5973130084575136
Ni 5.3935565698494905 7.986370250145413 3.756518101522463 0.05088136023089947 0.00761380779151592 -0.2639221968441003
Ni 2.8477221790164102 8.333366872896079 3.651719056093169 0.9630249438920769 -0.2778712028250247 0.35492973567192426
Ni 3.2228936636153933 4.309074085337926 9.157523803392696 0.47799147472181547 0.12664122887103352 1.5188907624938681
Ni 7.294438136980392 6.1025770136618 11.43005023045552 -0.10785932027784004 -0.5034307407305266 -0.49869682558996686
Ni 0.5853325279018495 -0.2529091095554867 0.056183561926792205 -0.6730279043377958 -0.9133437746168658 0.7659221186653713
Ni 4.4135290033859595 0.3729178588462429 1.810364262017823 0.010344062238485411 0.057982747162371104 -0.7519327463648147
Ni 5.851345865585387 5.744457540197571 0.16296292877700738 0.19143277142512194 -0.8874630501953619 1.423045950178401
Ni 8.267238120449639 8.602385502236059 11.28859934895245 -2.5287095268110322 0.8131221733899416 0.18609953213766658
Ni 9.026533849487258 4.686579098617224 5.791764613261032 0.824842032930031 1.6837352419075002 0.1725145943643803
Ni 7.968746206688247 8.886658326840356 2.2472371504853395 0.5742450924399272 0.8875442970552585 1.1096428729953534
P 8.684158884706555 1.7343293625277125 3.2923892348737414 -1.5489657275023776 -0.6861631561681731 0.7395953078453843
P 1.913330080051959 3.160124466078358 1.7040761165746316 -0.5063016345204183 2.0115218415057297 -0.04797010012137545
P 4.714862919003144 1.165838192587919 8.257424588162928 0.6150783244062052 -1.0709014905610976 -0.0657140543683578
P 8.625548271354672 1.3442668777897537 12.40321431703792 -1.8046722213049051 1.5960307993109804 -1.095413873880165
P 6.0998076508310755 7.7541069674899274 1.3197212432314045 -0.10993162942583647 0.203445736725598 1.4201981963169605
P 1.8550281825566164 3.3343582475825055 5.9725922022657425 -1.5123053959668664 -0.14969939624207768 1.1383099019127427
P 6.956548631997649 4.036505223647738 5.912325419142307 0.47817196616373775 -0.524208082487194 0.014898257268071117
P 2.4246270976287 8.453638938652706 10.32281084737791 0.6229636406915529 0.37600326851277177 -0.9955673966044724
