# total energy = -340895.3867171267 ev
CRYSTAL
PRIMVEC
9.05147712713386 0.00000000000000 0.00000000000000

0.00000000000000 9.05147712713386 0.00000000000000

0.00000000000000 0.00000000000000 13.24775171289443

PRIMCOORD
 96 1
Ni 6.389139051614414 2.0806087534341393 11.53361218989702 0.0026261247689374125 0.4485333173616985 -0.2221708239389271
Ni 4.823224445791581 0.3259708481424828 6.12124338628833 -0.9530783742023264 -0.4562774800834916 -0.6517011178355615
Ni 2.8061842166821207 1.6457124287541107 4.612827384184718 0.25941093923730807 -0.8093269680135675 1.4807944698427788
Ni 3.508298251046496 4.344193118319707 4.8964481808377665 -0.22290873054621613 0.3522897269459158 -0.01522375892828991
Ni 4.986703175369827 4.496746714926305 2.6877438273195566 0.4769663758914109 0.9823835509243469 -0.17786583137396467
Ni 7.478900699712666 6.2540548059898216 2.5919230794616737 -0.5275299477715752 -0.4323153128409393 0.28467228490725816
Ni 5.040496104326337 4.69308230671423 11.611230417120286 0.5431244597757227 -0.024348346937377422 -0.34294145296179646
Ni 5.656403869906967 7.807813277942792 12.448607916357668 -0.37963212351461073 0.5661175782367862 -0.13784635355823355
Ni 1.6877203344056606 6.495276673176593 0.29215090875949407 1.1706682636387904 0.32792543916893846 0.2780545224804244
Ni 2.976098546544412 1.6427797501436598 0.3300096172658875 -1.234262443450668 -0.7751469796977488 0.5895493268971653
Ni 0.7896200952729989 0.0786193206007824 4.484947209257836 -0.7788177436811167 -1.2448543600339013 1.6554428227207103
Ni 8.581551651333394 2.315322608519323 1.3909214921076896 0.44626483304249603 1.2292577911472249 -0.1814484065189004
Ni 7.013374176212373 0.5154906776042689 4.782398663061405 -0.6316632253480798 0.06430791804945053 -0.036417876507401796
Ni 0.718258249085363 7.471686672390045 2.4406728955708314 0.8311157817538848 -1.022017106155569 0.7215927006203766
Ni 7.875952798249809 4.0142215172580284 3.831646886246239 -1.216638045500685 -1.3542635412973645 -0.2821070952832431
Ni 7.597294021393827 4.064493421586559 12.627412607118677 -0.04527069891234139 -1.217481367337587 0.45446176703099156
Ni 7.9559950110652915 8.734910829410145 7.061223905244123 0.0021404433817705073 -0.20421912455651278 -0.5995491184223545
Ni 6.987414539623568 0.669382082539955 0.47680013834386176 -1.5387746459019886 -0.1700440213367007 -0.5538019940942269
Ni 1.6631908312133097 6.606564585261446 9.174226990403394 1.7824640606389817 0.5878122896014005 -0.15268753233612414
Ni 0.06883376860770107 4.787534471220571 1.538130191431969 -0.5166935192777038 -0.4626034223015194 -0.6701778364835103
Ni 6.531853692512493 1.7650652070177038 6.923566324653634 -0.04344315878529938 1.009229210362281 0.7119135256593997
Ni 3.386085205989994 4.3211661603413525 0.26761144894223127 0.5479514488507209 0.8270169290941628 -0.10938552711437935
Ni 5.889244069213252 5.589386732771851 4.616205395473053 0.4526036307763302 -0.1782162727348479 0.6870722982460038
Ni 5.312981773736864 2.995224317852691 9.234676375687451 -0.6994117936479632 -0.5861696117916549 -0.03276639579774356
P 0.1152533642429969 5.489811432174415 12.323774468653866 0.8827615309546345 0.17959001315392298 0.7839823186011918
P 4.074250914000343 6.300561295806168 12.610958831877698 -1.6064939036258332 -0.36454668993639794 0.48516999474812567
P 2.3462515060869475 8.464090631803085 1.2968422484616913 -0.21623723206331147 0.233887598155223 -1.0323074323379833
P 6.410518640743687 7.637754124445418 5.674448894838433 -0.7434349933064487 0.348369051735271 0.38811213596116384
P 4.772735306010425 0.9848912333430581 12.686947793206267 1.0140947659846986 0.5050978440203043 -0.2850564077195542
P 4.01445685566504 6.2411111936041905 8.208651609389662 0.3294855845672067 -0.1338853120279565 0.39646025081554304
P 4.845056608780493 1.0188523757702537 3.9002045847995612 -0.14496728087373098 -0.8959500046204506 -1.0596801679239816
P 0.3186536339798642 5.536580414829351 3.742423760114151 1.1810856023173724 0.6410577791891023 -1.0895494446795881
Ni 1.305901871983914 1.054125982390398 2.496220905955015 1.1327833156675589 1.3085341575810499 -1.1023393973554048
Ni 2.0092107013377323 6.5401357941438585 4.9223743269609574 -0.11377028644563633 -0.11471028176140245 -0.5202866359456007
Ni 5.907528053142605 5.762097969086702 9.26976985791146 -0.019112552459734828 -0.45196599719233127 0.270191831902896
Ni 8.663340799247077 2.5270728659665016 10.142107782658117 -0.4183277403125957 -0.057975548073519505 0.5694085902832323
Ni 2.4939625623954247 5.059042581094281 7.259052990768853 -0.3081832235450047 0.24385190845678648 -1.75955450303066
Ni 0.5016283402835732 9.069308602819078 9.067741792117014 0.14670380394886345 -0.5717950882375378 0.7735505817449064
Ni 1.1917355901517666 1.002767900798738 11.475692692488336 0.30172075574911267 0.2417312625693579 -0.5532121830290279
Ni 3.9694529110626906 6.718006372458576 1.7274409317706025 0.15616057848638912 1.0677562600638966 -1.5376575015784097
Ni 5.7614824686375945 7.7578853297475865 7.966191500122924 -0.4069680923254023 1.1345085258887817 0.11844429488253792
Ni 5.3905891391874965 2.8630999052701287 4.7878431265928425 -0.3778788882689299 -0.04931221597156669 -0.09239464898333764
Ni 1.0118555839002583 7.553919342686173 6.966886694498132 -0.3990884324670095 -0.10098778996898738 -0.2340506060956485
Ni 5.086233218581299 4.369301916052394 7.198218917704104 0.10875792083270946 0.533639403103423 -0.3996116519603311
Ni 8.176425635140317 7.1444486174405775 9.02581263431704 -0.7397583157858098 0.05133438860791804 -0.4927822598777449
Ni 4.750885040067128 0.4769069457747362 10.576422097354651 -0.4555346883801961 -0.8223817443149967 -0.6703992084656971
Ni 8.292872889225038 6.994882008307586 4.916638405863913 0.8363903998892628 0.6526850790153856 -0.05767781432744261
Ni 7.060496166477827 5.954840124429106 6.854757900182072 0.9204996689353565 -0.7221987096354917 0.670357042373852
Ni 2.235796329903827 5.178585440378922 2.458531460072126 0.7140506266070605 0.9580940822493629 0.7225383523630976
Ni 2.1340215203485533 5.29387410538297 11.437433003542305 0.2742377198374954 -0.37919992107319855 -0.03625615411855691
Ni 1.3065807327733705 3.3804551871761044 3.6885584193400995 -1.0539957159446944 -0.5760888305168852 0.5508922766465996
Ni 3.65027067081477 2.7725127215250933 2.7177766286450993 -0.3049516039815845 -1.4118253988722331 -0.3807410403080734
Ni 0.8944316754264402 3.4763917939420543 8.184209000378361 0.47294928431221767 -0.8508885935054378 -0.3116806951753019
Ni 3.5224638128531485 2.5562638799131183 7.218421814798321 0.29687422629008875 0.27929327998353193 0.024538094350680318
Ni 4.337033399860243 6.842373669086952 6.084811190587514 -0.6052726511696931 -0.013629674968292654 -0.471518208292646
Ni 0.4549453466619684 7.403148887086546 11.235828546880478 0.5606496131436796 0.32311310538195964 0.20907748109007862
P 0.3464896417907263 5.62747534879894 7.772680874366855 -1.3945974650297206 -0.12720121513956156 -0.060611957255102066
P 8.510678584914166 1.5567454594265773 8.039358210862794 -0.22947944178519833 1.365350138128829 -0.17599612515507757
P 1.7479307606918293 3.100981777372775 10.274148016502787 -0.2216674019399473 0.6996318800785692 1.2262074343566751
P 3.8937463558225347 6.290269766238012 3.7875055474203583 -0.00044120130247665945 -0.959742159375747 0.7522178817054013
P 6.767590364520457 4.030821926429531 10.416257113576672 1.2673381429587143 0.43648332817569985 0.13505542107665772
P 6.416438306827746 7.837728410064829 10.217527406071262 -0.540631775260856 -0.7264896237013617 -0.0014125640768104704
P 2.522574281801705 8.600885606617107 5.7003886181774135 0.4043959607228519 0.28457998230376796 0.6680273657994107
P 6.890771917636584 3.897738057264537 1.816637808618832 0.6231230490875527 0.7635685308315302 -0.9257341778614187
Ni 5.331618765276735 2.857180239186071 0.5976925728779414 -0.19543572193692796 0.13415064987420122 -0.5193163016125315
Ni 1.5115242793716015 1.132955297262052 7.1087432553583385 0.23981476227293536 -0.22339158371990558 -0.6007907041389394
Ni 6.851216962304268 0.7061862939533932 9.315421888280811 0.10402477702309826 0.5305152556521445 -0.5526514254295514
Ni 2.6465795193423713 1.392316324743092 9.41044791644117 0.8677871690329892 -0.44708784316442357 -0.8145702186903777
Ni 6.458256131458247 1.851841718864592 2.537447669124831 0.07719711530729285 0.4474570535783842 1.5197397407577247
Ni 3.777968911050078 6.855652186128716 10.45136326786875 0.9223079257886889 0.3422122881052558 -0.2823850315349782
Ni 8.353735021869085 7.061500880446221 0.41369142906057466 -0.9669098807687798 0.26617705431654803 -0.3995062367307184
Ni 7.525651579413216 3.842252502072984 8.232789183619568 -0.14533340596389807 -0.02481474505083468 -0.28788642096918166
Ni 3.0309957557184366 8.503889977019604 12.298656619443985 0.5614330282769234 -0.6153212936549467 1.0366919345589243
Ni 0.06343094187134897 5.188189057680428 9.994236515203328 -0.8692275010239418 -1.9459260578827906 0.5077787332865772
Ni 8.760607973160361 2.1305095471977666 5.823778355268973 -0.04642229601828134 0.6241466052560606 -0.6886388714021753
Ni 3.722990238581318 2.8121672431065283 11.475546963705533 -0.8091444196891161 -0.9295905754930313 -0.3928493935358331
Ni 1.2152332249441438 3.269140120659672 12.581442869899861 -0.8850999492798242 0.18316950297506518 -0.159251558706887
Ni 3.17359272741301 8.35486645651818 7.90158205592108 0.30042569108677286 0.24844878379884955 0.5767123230334971
Ni 5.6326165878444225 7.778513646269863 3.452655200151789 -0.41497450756964654 0.7341913632209937 0.5789579245345642
Ni 2.999496615087669 8.581298209971996 3.329636573625132 1.0226154018612001 -0.6573981682203388 1.0076214995555293
Ni 3.2393064518323706 4.394917596507875 9.433048549843745 0.8713861992381574 0.15167220369773232 0.01778354923566615
Ni 7.275459698328431 6.158597927515087 11.417958750362104 -0.6383807465775715 -0.03091880106604352 -0.24427639758871475
Ni 0.3667730970319584 0.22577914194822082 0.4087131166045625 0.7032627919629372 -0.8111308539915256 -0.32655041319828276
Ni 4.772110754084125 0.31979955099246626 1.642177826910342 -0.6296037717158899 -0.36591194571504077 -0.1795535034890327
Ni 5.89960801059895 5.555045428302559 0.6466664953770311 0.37637222181641633 0.46627830004994536 -0.6961151251745624
Ni 7.74258833329184 8.913903790896764 11.586006665627249 0.481417726794545 -0.15884686706930062 -0.3370747097683743
Ni 0.12177857415124992 4.614931852632033 5.8110999511650885 0.08126228651560198 0.5382859007364987 0.670249056041078
Ni 7.950283528956668 8.84428887980733 2.5016789467022433 -0.48086493961486865 -0.40685033580061547 0.19288210227713876
P 8.51922317938412 1.5840266116855237 3.5879412937177784 -0.08695033803931478 1.0281869824117067 0.15340101346338098
P 1.9611835633530041 3.232970417797446 1.4508802873278999 -1.5574159151522597 -0.20417207336866128 0.6549589626512269
P 4.784819028062746 1.071894032119765 8.296457274193367 0.03608389020675076 -0.6158648248632425 0.06885697087271367
P 8.392031821871607 1.8236463674091774 12.40703629190681 0.3216979702019879 0.18480678146817206 0.1740549422683067
P 6.281055362455794 7.686206681858204 1.3120387735205983 0.8164597224036068 -0.1588692356668038 0.7037194198843816
P 1.862631079678349 3.194293455752828 5.938742072241801 -0.15832827556166926 -0.3564443725442377 0.21451690693809505
P 6.875149068001898 3.802480311288043 5.940530644135089 0.9433678317827818 0.9447436290843859 0.7114234733968586
P 2.2210695765112236 8.418353517548121 10.30741310033386 0.10669358210451303 0.7491245874920582 -0.4991151440743082
