# total energy = -340862.91558582505 ev
CRYSTAL
PRIMVEC
9.36994038642953 0.00000000000000 0.00000000000000
0.00000000000000 9.36994038642953 0.00000000000000
0.00000000000000 0.00000000000000 13.71385488362885
PRIMCOORD
 96 1
Ni 2.048053434429492 9.190683942845869 3.3491567813849135 0.3357850444226734 0.7751462083668006 0.502204067412277
Ni 4.77885693658404 3.460581300095506 13.786538450001581 0.9433665462312012 1.6716559421454629 1.271374774921933
Ni 7.8179502135072 4.0430730069299115 6.806227164861193 1.4743263456199318 -0.15883118334001678 0.8436116002280503
Ni 8.104717235475269 4.766310586562303 10.787482927852789 0.9739446761283742 -1.1746159354326287 -1.5680350854290026
Ni 8.120889752381554 0.5781337476147566 12.260583709389241 0.314945996190135 -0.39060224937286925 1.392516671241292
Ni 5.170745318442968 7.610940123118683 7.242616204045165 0.8917197685891868 0.6326417872112652 0.31399288824824634
Ni 6.342428239404939 2.5273633590089593 2.533730233422529 -2.5670922403542886 1.4248549783626816 1.5762027088414599
Ni 6.149950926375431 5.212835090136501 5.757967908119774 0.14357785672537207 0.548847735412745 -0.45527629251248686
Ni 3.803174426193154 5.904861398729008 6.13249285366408 -0.8010549578127624 -0.5652390322865748 -0.6320010683034728
Ni 6.739976065187041 4.241069214778539 12.503921995199173 -0.9126470056601571 0.3423328728435201 -1.7390476413265599
Ni 3.8533410863995594 1.666471986867733 4.158000009313487 0.9072266059755342 0.1984328568920389 -1.1946132044901618
Ni 0.7829081702548143 1.1094852574486873 0.18991369737159314 -1.3465939405672485 1.49226981747223 0.6479555347502002
Ni 2.490267765479419 4.389573398120214 8.467372340685344 1.6095429748648025 0.9732695044382205 -1.0191246150991222
Ni 2.095793280105928 0.2966935366902703 12.231304520033063 -1.3995735780880734 -0.846494321092484 -3.03278304333188
Ni 8.614498205813277 6.958914089539464 10.240052600515273 -1.056284511978871 1.1809174521706243 -0.21801823522313424
Ni 4.936084534317227 6.905233701731751 4.1496757543774825 -0.006751202680904502 0.3204360727704288 0.12553102652599027
Ni 2.596007541428109 2.0217613820314395 8.403370026676027 -1.2355132851386335 -0.9033411548781991 0.04830640041487164
Ni 5.387659435697038 8.88139158446835 13.621683720888488 -1.5356674677315745 -1.2712302789242687 0.01194997327302458
Ni 0.523402052508732 5.322519610938926 12.302438295581995 -0.1143690963718998 0.33854409522504925 0.03766023355493514
Ni 6.518320758156274 5.255234069858949 3.20001825308695 -0.5680595324545056 -2.360168829492735 1.2947389035691703
Ni 1.0505202233286068 6.779001866412233 8.754540396096974 -0.07720277173424768 -0.8388056941989748 -0.03515546485521042
Ni 1.6888661441134012 6.158496311901812 0.985924792100191 0.5055040783197875 -1.7148322204226207 0.06754493692950948
Ni 1.7985600348560966 3.779665246055337 6.0984556086387185 0.15315444467021366 0.25671693734491274 -0.5048361057184854
Ni 6.846409216715722 0.54589365713321 1.674269651160555 -0.5490786204766286 -1.1713238949449183 -0.5743260821895076
P 5.830435963163174 0.5049844979137168 3.8624111885810684 -0.1639924158259821 0.9502828137350603 -0.28985768576293947
P 6.351329682661586 0.16184885227442733 10.718131314943244 -1.148039470495681 -0.5631070735452367 0.5069053295426883
P 3.552106876654372 6.467470092310146 8.15391504385774 -1.4085310443916774 -0.32598014251710955 0.24472248398719784
P 0.6264545295879417 5.262861201238854 7.22632375190342 -1.07629669343474 -0.021819409867936616 -1.281973890594018
P 8.782707373543087 0.03253711758811042 7.038525787044828 0.538620401257782 1.0019311340389712 0.016863351414241924
P 5.686476200852525 4.317612256845429 10.646079285247838 -0.14595355604640026 0.48337510763123204 -1.6040662680209472
P 3.067399866479296 9.1184042236019 0.23966995419416592 1.548904792357455 -0.2069277817369275 -0.16386514621949844
P 6.892865380575146 2.940512135340868 0.4303557346440198 0.6850483258374396 -2.1512625838731987 0.7739077079740091
Ni 8.430285180102045 0.3020418985964743 10.10543747963605 -0.14746485048460412 -0.655883017127393 -1.7023649411935455
Ni 0.04977687069116711 5.8819518947684815 4.851070129252091 0.39030760095058586 0.83389745826408 0.7324977775686546
Ni 0.16186478117288658 7.96200367522055 12.247432061226053 0.6480203265498646 -0.30436924911555324 0.1904197567795753
Ni 1.832123160903789 7.656993379546491 6.74433683538877 -0.2139355805133283 -1.2200874375018664 0.024967725688931193
Ni 6.9258756801469 2.2461058619197414 10.913786911712386 0.6092784298949765 1.8496349020585243 -2.917125310055544
Ni 8.18136334688513 0.6016466757286815 3.798243963622999 -0.2359318822787614 -0.06593156969580259 -1.6064550799680979
Ni 2.2492916416115936 5.902012936886882 10.662713740209444 0.5041226245912286 -0.44636484895547 -1.3045810864705725
Ni 0.4447207900721932 2.3097464962346286 10.366001463638632 0.6317465290905055 0.177684568601094 0.6159126473820424
Ni 3.8700757997220543 5.780906458895139 2.028841308899568 0.6691866762148346 -3.539720511664085 -0.8909965172699171
Ni 4.810752213263644 0.539627041080531 8.944669602094782 -1.1109718762194223 -1.3185272642380195 0.4346251919210386
Ni 3.5823905236075104 7.841721751972581 2.220698331883191 -0.5893971175900171 1.2501914559760985 -0.00874560740311397
Ni 1.6591915432778233 4.8051583589223625 3.329202556585593 0.2556666417035275 0.10054298912208491 -0.041293716542464366
Ni 2.168700785347997 1.346891434073584 5.732569748023494 -0.6316472845084798 0.7009197456520574 0.3661155770854146
Ni 6.110597177240784 2.60698911142473 5.077417902370151 0.6504618461118217 -0.42924644410762847 -0.644006063184149
Ni 8.61655022273244 6.087097367043238 0.9568845362209022 1.3161034852878752 1.5202051104299175 -2.158458073180373
Ni 5.952470065241662 1.4658896755045423 12.716295439398326 -0.7653793587880239 0.5991575394108908 1.313317695012622
Ni 8.545769693931696 2.8279791526963165 12.697781374418529 0.9250862598647746 -0.38282800474408907 -0.3085406068844235
Ni 4.617113027640637 1.0321551403991047 6.455371625433323 0.4887430568113647 1.1867222317778596 1.028639496568093
Ni 4.782136415678593 5.68741319487954 12.567266539401523 -0.6015782330372413 -0.6718788783350171 0.5099148057929734
Ni 6.674152234789207 5.0131991427405955 0.8477790777271729 -1.5246232941022713 1.2646791080693123 1.7849508316165779
Ni 3.4742051932483102 8.67120508432825 5.545540118267054 0.48108245494231344 -0.471889989809768 -1.5061136653338578
Ni 0.5910071085519214 9.112875958842508 5.23674530371788 -0.5692221853040391 -0.6874710763463192 0.04212623974608874
Ni 8.494178802804226 2.6910374756480127 1.981940072877311 0.04263968904739754 -0.5299727528851131 0.3455881465560242
Ni 3.5180471437723617 1.8985185576581014 13.061898190310748 0.4607334589723162 -2.196175899446121 -0.19265147432357144
P 2.9253984216851094 -0.012874297931191854 7.725467029052723 0.7158920506911735 0.411628216805233 -1.2104177756225865
P 7.2465806257734675 7.089521686965142 4.396620530197396 0.39970292612255676 -0.31451482218998733 3.2076555964054756
P 0.5543725160836726 2.7446803836946456 4.449665636054793 1.0707168853541174 -1.0750144842882066 0.1998842446265848
P 7.0830939079398165 7.517512448684976 8.504194331958995 -0.2563490124825327 -0.9120235131435455 0.3910509068745136
P 5.417502695457479 6.986911471066684 1.05174674850997 -0.5713711133262418 -0.10374966898484067 -0.6983352727543328
P 2.587209167514434 4.8457020904713195 13.013007715969136 0.6637868453555019 0.7902288137315358 0.408701015856109
P 2.785926860763864 1.922992841643744 10.690306340316992 -0.03441190182096654 -0.2654864560074266 -0.03444892570648906
P 7.81438026626427 6.265313630981569 12.44780542292122 0.7372005823609626 -0.10332697962512527 -0.006112026435008829
Ni 7.591113329507037 8.108924338656568 0.049627888640871656 0.3457426698560174 -0.12048472235133445 0.18200016525731239
Ni 1.6535320993546498 2.9461247295626904 12.460106280507878 -1.3370620898174135 0.5871152635343759 -0.8271115456904982
Ni 4.2520976344765105 0.5939680096772901 1.7406725438670838 0.4872693004793157 2.4441469722776037 1.0349165878260564
Ni 2.7623520910441566 7.049952429204281 12.547491280461363 -0.3065783409517301 1.6479272310699555 1.024262964766952
Ni 0.897200827682101 9.224874854891661 8.645817231166268 0.5478318925537211 0.07013866579861469 0.1625903932721329
Ni 4.6214419400454485 2.7517734284791526 9.160004884413329 1.5096525317250515 1.7495940493838387 0.9133522592572979
Ni 8.316749613848588 1.7772996403831165 5.768074325695163 0.5380239053243637 0.35912988979620086 0.5135284912861608
Ni 0.2678603564909518 7.638768845721041 3.0053090202850923 -0.78609036608313 -0.9037952116964822 0.6832639802435071
Ni 1.3038552984127658 8.355841004655671 1.0278299759704015 0.24276021805450446 -0.4127942120888762 -0.34449979858785185
Ni 1.2745461252477235 2.075797827569419 2.416025043748852 0.3259318057776774 -0.6479408794621809 1.4176684879165713
Ni 6.086375881642436 7.335726237503715 11.789760139712453 0.7117973117965096 1.6527799311765665 -0.7462588359084891
Ni 7.09542474933534 7.178189431741611 2.374183575472479 0.6238848669542417 2.578308420785082 -2.067431765299472
Ni 4.253193917488119 8.93010590393288 11.221896783627813 -0.05742558910732045 0.10262378291051358 0.24161144916204194
Ni 5.069343824839359 6.503778610856994 9.624904777851327 -0.32703943701955934 0.6132261016888148 1.1218674400860034
Ni -0.10844394071065651 2.1606145268948542 8.065543389193808 0.36342774584060633 -0.4256952364212604 -0.3153352612087537
Ni 8.167139777555036 3.934681537884768 4.506647053819682 -0.7395140609854877 -0.23890227776099499 -1.3363974596502208
Ni 6.788268737339416 0.3764607752041199 7.886673103424618 0.6520554158511866 0.4779166556198221 0.8771896932938119
Ni 0.3358458321091095 3.957225614174759 0.5727919446667417 0.9129673651140534 0.5043632798471249 0.8237580558372329
Ni 3.544442265513386 3.964908965196285 11.159745032821853 0.6981416686862879 -0.6937412256257471 0.1499696191843288
Ni 2.6205286751151022 3.375071225190079 1.1298957983391642 -1.1143988996231 1.0366986194271437 -1.3701804696379372
Ni 6.73264877189578 -0.2699198693623317 5.727907265745065 -0.3189067806100959 -1.0686952269383982 -1.741323067624298
Ni 3.7382688499417953 4.526290196602034 4.003335090244187 1.8589644069895663 -0.4402615642712095 2.00186940601763
Ni 6.643521900046074 5.212441552645154 8.626591050725938 0.6544509126665567 -0.49987156262435845 0.1669638397494802
Ni 8.520142907292824 7.316976987023136 6.736135326670304 -0.12118920461752676 -1.1685033947769876 -0.01937969007819243
P 8.827795526123067 9.19508781477284 1.6316336119492727 0.013553056094086337 0.46290784091581566 0.2294401039068307
P 2.4554865471966068 6.994407423282808 4.340517075835821 0.17841913277427338 0.05672162106176038 -0.17908247738988514
P 1.647029360807163 8.036822648277731 10.544198987696426 -0.17761232060226187 0.4813117973443001 1.105886748387031
P 7.165249544228529 2.630029794549039 8.342837401548751 -0.9994600467906595 0.42704120892619357 0.41740779960148755
P 4.608858110262632 3.693274396764515 6.015198067374236 -1.6623143530295628 0.3432029341532992 0.4045371142864065
P 4.184278006801136 3.274119488719438 2.379669675500654 1.457169117114355 -0.8519196058731134 0.7632656548791306
P 9.125834586236133 5.201666121334476 2.6707871607361557 -1.2284787468893552 -0.9628542226421676 0.9266019251783526
P 0.8866502749379075 4.430623106443759 9.704705748150149 -2.267135518484134 -0.0777964394541886 2.056318171884813
