# total energy = -340868.13419114536 ev
CRYSTAL
PRIMVEC
9.26271888040526 0.00000000000000 0.00000000000000

0.00000000000000 9.26271888040526 0.00000000000000

0.00000000000000 0.00000000000000 13.55692537144160

PRIMCOORD
 96 1
Ni 3.4675636642542518 3.2141078866275774 0.3973410006832563 -0.4783961663594019 1.2094207018166396 2.0505640430098557
Ni 9.117988930353324 0.8274025559280092 2.4084560472519545 -0.08228789956663893 -0.18524592588811967 -0.4733904856146944
Ni 9.351826269321469 8.848925471357612 10.40088661511843 -1.3820060015179554 1.1051776381351484 0.5315465251301362
Ni 7.439917721130691 5.200303440503623 9.90950215557957 -0.8698306818255793 -0.6902568666215726 -0.13096093929230995
Ni 7.165954283829804 8.164605060756395 12.68305938406489 0.02432494989860972 0.506282865467341 -0.015615080829437623
Ni 0.5678259736433763 3.7508824476576472 6.41828243349245 -1.206371887687987 1.810915116890823 -0.3833959614324171
Ni 3.7661751965836285 7.860806405835528 13.702255797813237 -2.263856590622546 1.959372670306 0.12111412840521721
Ni 3.3610146085937016 4.564149168251955 3.1589669209362565 0.04784180207362728 1.2966098953396379 -2.102786490649682
Ni 0.8707326287328851 4.741048574059587 10.471355528067603 1.3163929915038362 1.2901831658776877 -0.43006611179544646
Ni 2.3438847074349276 0.36557172735416343 3.1789632785264503 -0.4534366682005868 -1.0870372197806957 -1.2054817717735498
Ni 7.460832940437091 2.695506780105548 2.5965846471982705 0.407341416504421 -0.2171466312514583 0.5944380224480343
Ni 5.435604289060083 8.046672123551307 5.137112245804688 1.8066195748392626 1.3330177445447107 -0.26679669017841795
Ni 7.189861361345224 3.2885894094100236 11.72969589244957 1.9613832729781253 1.846771721578116 1.2962016041576259
Ni 8.295505804440207 8.954992865634667 8.164590240406133 0.013387219940183397 0.5223049519272102 -0.760998970332141
Ni 3.022471495028766 6.429920113535215 11.561562723821554 -0.33211530888056995 -0.8504821020956386 0.8099543171849213
Ni 9.2303734989293 4.876830770610748 12.41387365717952 0.4836286184029348 -0.9567931040497524 1.2221042108215792
Ni 5.910309370651628 0.9642119880066636 6.755334249312334 0.23243415353814809 -0.3206520454359768 -0.32974063800080633
Ni 4.035544325303482 2.442032477041047 3.1309045877162966 0.5341261129318543 -1.519860068385673 0.13324999243680277
Ni 5.6535838532485325 3.592795623963079 1.430987255936469 -0.2027469108863605 1.2095058053312784 0.0025150531123698623
Ni 3.0020935134193407 6.955440471085534 2.507814454220052 0.1817883063568224 0.30664904628866546 -0.03868636082660434
Ni 2.4358727689636526 6.571046898899394 5.942664974087938 -0.24319344893718114 0.46358635504007906 0.1371809520600928
Ni 0.18330364966433935 3.7529758221320693 3.8534615019919247 2.1843508817867345 -0.6845608446780598 -0.6574804435214999
Ni 3.152436704102328 8.867404595589795 9.368363927669408 0.2997564329338902 1.379551626440192 -0.07955070314113395
Ni 1.3197892416532957 1.9726627215436052 13.164533660638329 0.6400956723861493 0.008649962365514133 0.6529326762498174
P 8.782465463154148 1.8493481446498465 11.652706025385383 0.7494724577497802 -1.496048824898688 1.2388423495118663
P 1.0375264082060252 5.567672135326981 2.4509154244789735 1.2159423049852416 -1.3605935972804504 -1.8466621925834457
P 7.65863830283221 4.297364338108934 0.21215609280761052 -0.6147664495927413 -0.615001705531999 1.17127530109517
P 1.7085085035719827 7.470762575112228 10.130019704750284 0.5849223696481152 -0.7663041845951383 -0.9302729462720367
P 6.899660377789192 1.7984031906262852 8.505154479237968 -1.412489000598161 -0.6320033822963179 1.8423681931937816
P 4.2525327785682 0.9500029771935468 11.22139215054354 0.04355320200060241 0.37332392190839575 -0.325045289407666
P 5.679760296897729 1.3415103175051597 1.6381914992129893 0.7183088876627823 1.0647812365959726 -0.5938404980733515
P 4.922560813886079 6.2022610080822895 7.326542041630982 -0.24203593829397027 0.2643549135061447 -1.9660757933577881
Ni 5.428555359967004 3.8333947477379895 4.53302921151869 1.2409485972215917 2.3025491220967376 -1.4573166984358128
Ni 5.78839346431379 7.670420481290023 1.2872289321290007 0.7904033916361871 -0.9772565141104267 1.0143202517319434
Ni 4.912612653773114 7.980406632445024 10.942526882393697 0.7439157895976092 0.11636401531474153 1.4822368587162602
Ni 1.431034495802927 8.088511824883021 7.623858645856269 0.15120914801838475 -0.5034266269654685 1.0944923905071602
Ni 8.726713158014546 1.5396398750622466 5.028955182140777 0.8397014665403667 0.6010251887472488 -1.6213332826315108
Ni 2.2345938869760182 2.3361132862666056 6.956993829047307 -0.018095166938813998 -1.317194404359209 0.11714871599956599
Ni 0.7553858426484115 3.813757783641635 0.8769488393956509 -1.3132210215337576 1.7199656849944442 1.1301232523368925
Ni 4.820291134363508 9.250853370446771 3.026014485013132 -0.9248571745731039 -0.6323785062475497 0.2960386177626708
Ni 1.5826281535392193 1.4944841203595445 10.90822796052936 -0.7463210566049922 1.7959178721510427 -1.0366484829154985
Ni 5.244338406217807 5.261437385331896 11.196041015149525 -0.1739829513797907 -0.47680825304699176 -0.03256353575831811
Ni 4.608276761155272 5.916978528269258 5.069029409247601 -1.206488358661193 -0.29761393266959063 0.19908900241879907
Ni 9.415461148256353 9.230957050220843 13.193450942813993 -0.6063175474944397 -0.5720681393932665 0.4645970556927806
Ni 9.10419674189131 6.543490310132103 9.255231857677124 0.7935671340761494 1.5760558988509503 -1.0964446291375245
Ni 0.32614033293992684 8.43088044135918 4.517940242408802 0.39543875152956415 1.3273502618462882 1.509529632993942
Ni 3.545842901791182 1.0454923464715276 0.9948021172180839 -0.5596975336430554 -0.8185741976434483 0.1770585049813209
Ni 5.246339153503096 0.27617722712118314 13.155748898020883 0.8823262431894289 -0.35051258044083505 -0.4961601752110422
Ni 3.3905256310517133 2.1203104610228 9.39066577599714 -0.38836101874717627 -0.19717970121122816 0.27422897808674707
Ni 3.7502711082093643 5.665690226868314 0.7005477678655585 1.6387774462498872 -2.609154459631661 -0.06605241154438302
Ni 2.5649024434269636 4.347068087798103 5.1851579688083635 -0.2424959086495243 -1.1912216623101097 0.850083323995323
Ni 1.8770529369197506 2.3714135080454772 2.1747882160399223 -0.4364702155495773 0.5895704099430878 0.7590058511615122
Ni 2.745136428043411 0.24323899866522236 5.407627172854126 -0.38708986534423656 0.9140567415234903 3.0930802975600407
Ni 0.6385996300447992 1.2246055420994562 8.76624644233683 2.2512743830821615 0.14969579669765187 -0.4742078393096671
Ni 2.4093999183092274 8.958781317670237 11.783204767068355 0.8264494866264671 -1.1792950860758529 1.253483239353493
Ni 5.782474586928143 9.001788121585037 8.961940831091589 -1.2013703207083375 1.8392175633799424 -0.2673996138697395
P 7.255413623095177 7.91869839904412 10.442845805524126 0.24488600614825567 -0.443235816408185 -0.8053664407039227
P 3.361996456798519 7.836158310807037 4.3793884929025415 0.5205697144036583 -0.5017096442743617 -0.18092621546684326
P 7.741196916507119 8.645173443420106 1.2807950475717707 1.1221314923806676 0.5874590200270399 -0.07425345929793664
P 3.948910115306687 1.0585620428582994 7.6341624943755075 -0.7858772216310594 -0.34072824736056156 -0.7518427577541696
P 1.8771177759521442 2.111094055703992 4.594658711808829 -0.3401263521105045 1.33904672434761 -0.6052736796109576
P 5.537716502361127 4.863344251872874 8.853215036486395 0.3668532265823875 -1.4434139723117916 1.492345922125804
P 5.623239186088317 5.906900690091507 2.9015346580800703 -0.05605133446761315 -0.36036530486519874 -0.04865272801069685
P 0.5289105126726147 0.2868969717196318 6.413903019990207 0.056110212730006596 0.7340116431100198 0.8812409805450501
Ni 5.499813456567598 2.512317988155735 12.82761708051458 -2.08153195214628 0.38526669609256875 0.1846877393918045
Ni 6.5519749606567546 0.8192884141598928 10.91268795968615 0.8797456269464463 0.030128443954264235 1.0460378945501987
Ni 2.5378830923566493 4.718679107883786 7.7424686878139255 -0.7911418124641085 0.3996396769847892 -0.2487521739718813
Ni 7.500838623423956 1.7419747070060059 0.16016815663440312 0.9082226513402165 -0.58141281383296 0.5669022789216108
Ni 7.01869557854497 5.934975991117946 4.751756277123448 0.3319726126551186 -1.2892627109459474 -0.20941892358989742
Ni 0.5735058728810577 7.155237318047028 11.935381976096187 -0.9034051753469151 -0.8563025654321575 0.2675376821095005
Ni 5.696775911541598 2.874443984074123 10.13880446736773 -1.588150111011323 0.7121377258550639 -1.6402344904113881
Ni 4.345326696642388 3.234522919112655 6.534221107315489 0.8422697414881752 -0.5431288306510968 0.5328153645402308
Ni 6.934562302654788 0.6394869985167004 3.711696515294615 -0.5383733182439824 1.506377974738838 0.6037598140695924
Ni 8.533789248486775 6.599603861309328 0.7871440007148082 -0.6041141120852177 0.9959373783493816 -1.931932057596544
Ni 4.081978335216229 8.189642189979248 7.065476014145079 -0.2846391176764775 0.16217644566316583 0.8340352693935249
Ni 3.9046250561818416 6.6056616794786756 9.234651948795387 -0.34672380282236415 0.06310926975565906 -0.6886591831171495
Ni 6.780097202055349 4.216009877892763 6.8556291171625725 -0.2392997703097298 0.11000979096193957 -0.1643469709519234
Ni 1.6578229056779958 6.4262428141266055 0.35742423979795895 -0.9588343028494971 0.2616776237842977 0.3595950023580775
Ni 8.042707679856383 5.132991262160128 2.3905058242697255 -1.0866965486118252 -1.0153618056225802 0.640667228618903
Ni 0.7206589831702779 7.753247713813419 2.2805323414269005 -0.7412544407153621 0.054524870520757704 0.5797986752683048
Ni 6.814850923418331 7.332785114178598 8.082719846746487 -0.0776876817904662 -3.340393167982234 -1.1339235999195891
Ni 8.438420294554668 2.1040173384541734 7.240875785760636 -0.04111708175528403 0.3666354541446266 -0.5315023021557621
Ni 3.4090510688784628 3.0984350528373525 11.772386837649425 -0.24724293641620648 -0.9446883503664182 -1.1880118971235605
Ni 0.4421827492147951 6.166154929757954 4.26288016186633 -0.8077367407083121 -0.3283257599311507 2.457914715485657
Ni 3.4474450387744016 4.427514801560763 9.938961306811668 -0.14748130554483632 -0.06524354248984247 -0.837160702396384
Ni 8.406362024395477 2.8735918139340924 9.789902855241968 -0.04928213406457964 0.12533845089920995 -1.064214051238593
Ni 7.673190034245121 7.87099539664024 3.4395272666472487 -0.4009414265153482 -1.920909995454427 -1.2768057161295172
Ni 7.313703913217045 5.924305338929738 12.17245107769321 -1.170731769886874 0.4325264004104809 0.3470145945899056
P 1.8945687383849423 -0.372102870459984 0.9862970887118232 0.27452208384713367 0.6883920454986918 -0.8808401455622056
P 2.0991173601489983 4.54360445770209 12.813382134088506 0.5312968710131754 0.08005618202264277 -0.3055642978649189
P 5.497451463244687 1.8807487617661873 4.845977580182188 -0.42026120988988264 -2.5233840008330604 -0.2507977436470003
P 1.1019856691242005 3.399825400840742 8.997948724595442 1.8248780068288186 -1.5300184969759134 -2.412083001863523
P 5.177915448889996 6.5774752258252756 12.918190724865234 1.4391171447086506 -0.1889046056866295 -1.1924385654363465
P 7.6669284362596795 7.669818404560653 5.834520878230505 -0.03580132596932544 0.6322288680435628 -0.10246154630103645
P 7.6413633320587655 3.4684436225510225 4.802866107543667 -0.839791712261328 0.6486276211165604 1.1020367785133214
P 0.5865218454981319 5.976584124476825 7.017660932842348 0.23033741891011944 -0.47607703130792206 0.19524366053077985
