# total energy = -340892.43899825437 ev
CRYSTAL
PRIMVEC
9.06251320115044 0.00000000000000 0.00000000000000
0.00000000000000 9.06251320115044 0.00000000000000
0.00000000000000 0.00000000000000 13.26390412275865
PRIMCOORD
 96 1
Ni 6.3828277227344685 1.9641094197315088 11.635415051284333 0.5019513279715226 0.42206278187499574 -0.5593401503036366
Ni 4.586655734805094 0.6221995301268144 6.07770649761817 -0.5800228754639689 -1.5745728865475206 0.44932418869411
Ni 2.7478989974267822 1.6271470545452302 4.851949026982855 -0.21791230577288925 -1.1531215130042787 -0.6983612408962618
Ni 3.5486354747750695 4.447618657544917 4.949903013228591 0.1946433079426196 -0.2810454867879482 -0.16006402730585337
Ni 4.893766181565154 4.732000321240937 2.4102107249345113 0.0996850119971638 0.4834237014809803 0.9811836170789747
Ni 7.286831537807935 5.9954143466560375 2.563475041641354 0.38230632791266417 0.11060294446124823 0.2949325291826856
Ni 5.25962890129339 4.460143050764416 11.528640520957167 -0.31791844855489765 -0.5394647515359484 0.012661397517752386
Ni 5.741935852915512 7.688146809109748 12.08747495890544 -1.0082020546493475 0.9594097157369927 1.905583906620318
Ni 1.861775520864222 6.47021753736228 0.19543672180593216 0.020122224671171796 -0.30594353558120857 0.9340288137700431
Ni 2.749367124562498 1.5046490638448127 0.2571769053706829 -0.8128835750165743 0.07490806216280002 1.4225417568484726
Ni 0.6999232681931798 -0.18692974068064686 4.6562667110696525 -1.0854079117073887 0.6100932124867879 -0.7385025890018379
Ni 8.510914256006952 2.306445855235561 1.3923119629256562 -0.030971508680849885 -0.6731950260432794 0.14834391065544775
Ni 6.741512932021428 0.9194644625643981 4.95043407650114 0.39840786146021706 -1.5736133508477286 -1.12726701383502
Ni 0.9093688228780574 7.472413682778206 2.587416388969338 -0.2919194533879747 -0.08129468241543418 -0.2678094477136484
Ni 7.682138362869133 3.763163286853214 3.9159418528534253 0.30539717615943535 0.17274805053142508 -1.6604762713795596
Ni 7.60829700545055 3.9873517379848953 12.629146809386937 -0.13178369230392142 -1.5918944085451034 0.25171151371052136
Ni 8.20821725316722 8.863219456012777 6.65676846499186 -1.1850746688721074 -0.07791779552340129 0.26320434484146926
Ni 6.817275542234898 0.6756293891023601 0.34487756420068594 -0.09702623421807806 -0.8716654210414729 0.5251997569765019
Ni 1.7731803919830145 6.338058907608326 9.295397115960757 1.065653354788281 0.5221301169122428 0.3186036475473803
Ni -0.03912830692077554 4.559268819964768 1.3896457715470913 0.08716785336675956 1.6208799971441765 0.7319550176913072
Ni 6.3773630272848605 1.9128337201396641 7.051528820508096 0.6061046601526852 0.42215277048564076 0.9492697990895135
Ni 3.5535020443545715 4.263522764736728 0.47257471871443707 -0.9433220661465109 0.7591747726392086 -0.5633626411994684
Ni 5.865965408343929 5.44980574044766 4.8679987378307095 0.05078931473772543 0.6132728957663502 -1.1493047103613498
Ni 5.111647123521168 2.786115615521305 9.643428434749277 0.0617373291087969 0.5831431662605053 0.008233700763701949
P -0.003238035960439388 5.629896002428772 12.705639858162993 1.1254150482279457 -0.647809238980323 -0.4523120676778403
P 4.1882132801824286 6.094521990830024 12.455111212463674 -0.9070306879146444 0.39535519067682234 1.0277930894073979
P 2.3996175532744 8.458859180281333 1.2355721724129685 -0.4166310693364631 0.8143701868644297 0.8829713329725954
P 6.207314029910988 7.846477976937445 5.975998818411858 1.1619067153960763 0.6189470633329921 -1.188952663770275
P 4.5584803813178105 1.1493985470543733 12.418197783764928 -0.04072087475812987 -0.9424969991420541 -0.12422053524468285
P 3.9371001023827783 6.319979193807384 8.254697977033713 -0.022282465547284202 -2.1250998094349014 -1.141909189228227
P 4.58165322752784 1.1988254939567982 3.7382060317973678 1.0982978802961794 -1.0362265648867315 0.251534878923341
P 0.24608348298284674 5.619202236872325 3.670175557831999 -0.0590240439426919 -0.6030429905082259 -1.222114238123908
Ni 1.5349359829038343 1.118866940139399 2.5568566882634953 -0.35647959665754736 0.47205171219861286 -0.14292273963987645
Ni 1.9841466363800715 6.434384360234999 4.853010247276635 -0.8743997892535006 0.9056672319082145 -0.858591104356018
Ni 6.478736299754704 5.586540939359246 9.198556912585268 -0.7575547205372825 0.6338782307215277 1.113800603917469
Ni 8.435496021294451 2.268936113169346 10.162710440159792 2.19872154868611 0.5379215754185446 0.10750502226221484
Ni 2.3116930503687665 5.427113207436352 6.943428444502193 1.4011293526109676 -1.0452562791891675 1.3841960671907387
Ni 0.7039361490308024 9.157760196987422 9.017663711936102 -0.5520631570262492 0.26511056072524664 -0.05266442027325124
Ni 1.4931124845623067 1.1132934945315898 11.486434584559298 -1.0609438651277534 0.002076680023370617 -0.6260690190897541
Ni 4.002196134579353 6.906468796986212 1.5248448744740855 0.1855148632787902 0.4346881839484901 -0.707719027962078
Ni 5.586386876635126 7.838339840098726 8.171373605819987 0.14178991158701387 0.19245504204204922 -0.7941618302373549
Ni 5.393826596513616 2.8570116561552745 5.008370723282805 -0.47084869302944715 0.8752639370260087 -0.30346859167815476
Ni 0.9447398118329832 7.434242377249601 7.056582984110495 -1.0487648065630584 -0.04148346395576727 0.8197954716450591
Ni 5.513053019954815 4.839472665083228 7.229305422873479 -2.475622931398698 -1.1040553516052471 0.18233158045480213
Ni 8.369339675055414 7.282399968861238 9.307891602886752 -0.012897424787958434 -0.3711855354091543 -0.7072156059630981
Ni 4.803304174968161 0.262684194632253 10.38408498094802 -1.0576569668463658 -0.4031019245017768 0.781409415667693
Ni 8.044593577640399 7.043421496214201 4.685832254079273 -0.5579867215995358 0.8338239247136673 0.5240990677131554
Ni 7.266585883356154 6.165128031042124 6.959690218158539 2.0933862803817047 1.2429635707690916 -0.2041571609703258
Ni 2.217669476090685 5.169130644643662 2.4212325534681987 -0.5249508741904895 0.3530451170547017 0.07016411971991142
Ni 2.5343046242065306 5.091174906239801 11.477030414628855 -0.5616983661231681 0.9866970906980361 -0.7923301763452547
Ni 1.1176072508069022 3.4535606489677098 3.878935986520209 0.18604579608159572 -0.40911239236191477 -0.2927949140143925
Ni 3.6109493154243313 2.8588604088446945 2.858265001728543 -0.8645362661958594 0.10556615336828917 -0.8695342336310832
Ni 1.109269738678147 3.1397620674782774 8.096618747072514 -0.02713619409515972 1.2609396956315382 0.3447401967334321
Ni 4.0788106210320665 2.891974832016946 7.185693890680862 -1.2844123248321815 -0.01812730572833007 -0.3552788914812268
Ni 4.213833004951984 7.006999255729998 5.751865648610596 -0.42346069066378683 0.4178294605199385 0.8896677711561646
Ni 0.6998199555428887 7.31152688623278 11.408044751773952 -0.07586065588405644 0.001657847318397145 0.15966884874996373
P 9.32460106469436 5.593047823824948 8.02700958331059 -0.9888239072330519 -0.6822355389789928 0.02736039429082385
P 8.39072720616831 1.6113873441192461 7.894410515415923 0.5067513204633273 0.027876157584977794 0.5604367258019252
P 1.599968577508125 3.321891394925662 10.258077985142977 0.7580586567568944 -0.6961254095872076 0.33704437075107113
P 3.681664105794632 6.194336511032317 3.614374039156349 2.0557497009758534 0.7894927068964596 0.48392763770059244
P 6.95016823555671 3.765030164569001 10.340791542968137 -0.08946976202705881 1.2877874119520016 -0.018982968860406017
P 6.466909720050328 7.810608549757432 10.132747052821419 0.347399231622834 -0.9127745323769572 0.0576922125051458
P 2.309273359348791 8.446606662457336 5.891322320231165 2.581535669473128 1.0637911047685613 -0.04890032524512869
P 6.760779835049399 3.9856298604800435 1.7735302049918948 0.9514372390544776 -0.7953674205096818 -0.9650232052690282
Ni 5.141798104882439 2.610982548251528 0.5878680114340281 0.959568352802044 0.8060403268424957 0.24648163277014973
Ni 1.2721049755580096 1.2252517823996787 6.841296639678897 1.1278316280892384 -1.75997822083164 -0.1787870576366534
Ni 6.892249713801411 0.753344064655542 9.364714466798175 -0.12952035019104147 -0.2210300254662645 -1.5113959967787196
Ni 2.789622808123292 1.3597757280945075 9.286814915976048 -0.6258088234498319 2.159924630423571 0.5250316068297539
Ni 6.400961811614511 1.9430028265273012 2.6512690443571465 -0.07669575019084211 0.1423298432508839 0.17449897178426077
Ni 4.127630379551202 6.826727743485216 10.34250254545717 0.05015116693309427 0.30410982480657944 0.03824027442812124
Ni 7.95956001644028 7.312859075670745 0.11126681811219331 0.385810998631813 0.5301786982483321 0.7341178296705808
Ni 7.761897541396498 3.907837247313484 8.037886411633343 0.6070896497737738 -0.47631408701939265 0.40560797875308213
Ni 3.016593450802286 8.333977748613673 12.383313451767952 1.3602274721902832 -0.18502018303055878 -0.5276464187447817
Ni 9.050061290315544 4.974078173396707 10.468059134356993 1.0058962893343064 -1.5471654410688451 -1.013386169953448
Ni 8.645420076675414 2.5335433730991226 5.769440580427221 0.15654187308520784 -0.5888407308659149 0.1981847454369748
Ni 3.3261235885823233 2.884869821681137 11.629526230217742 0.8262448268148286 -0.6914305752146995 -0.7528778838869034
Ni 1.056933725043841 3.485397257781098 12.532545856359487 -0.6614841653642543 -0.28953244121303684 0.3187293744919672
Ni 3.22157843649828 8.367989360591084 8.301891014436423 -0.6122549960247972 -0.24110802716306215 -1.244653813987321
Ni 5.605146278924826 7.608922318860206 3.488473074755554 -0.7312343374751986 0.150949723709411 0.6342050179333271
Ni 3.136617375403627 8.539995860812578 3.7421581937966613 0.42502109317237124 -0.7301416186316523 -0.5750079387478806
Ni 3.292175414197196 4.248787118300472 9.07390294999851 0.00012007051763205128 0.6696355908267951 0.27769482514816046
Ni 7.342058493147755 6.082622911020181 11.43905576563633 -1.1840577975718187 0.5313436650907107 -0.5529833548476734
Ni 0.26395294647793316 0.0699471955036645 0.5852444138674252 0.9577924918485441 0.12262028063709848 -0.13113731696917416
Ni 4.677824617430395 0.46223076616687053 1.6165647579009395 -0.5062077892550314 -1.2586760964083419 0.15724969778550982
Ni 6.081607909543637 5.656376665950754 0.3492946331262895 -0.7083936854315994 -0.1825627226290017 0.05799303157501626
Ni 7.933686541301588 8.918120160877994 11.430898597519924 0.427825909611018 -0.21500978741411356 -0.3251062245525885
Ni 9.393294914624756 4.982479123117747 5.80356819257338 -1.2787255588600495 -0.7779114298167634 0.08948570286665879
Ni 7.696439008672586 8.696496400977223 2.7547937574567354 0.4171835994058235 0.19955462920130793 -0.551260972839928
P 8.513379259592844 1.4922424832966974 3.6526667823616124 0.2962543333179027 0.3948743943856619 0.005857744332357653
P 1.7107578011755513 3.255653486067975 1.4544536158244328 0.9675413437051917 -1.4422783160454515 0.23399969825305508
P 4.73290657255928 1.1506672989000533 8.3822437875773 0.2724844845918146 -1.0232034131541863 -1.6127727946560095
P 8.576526851454982 1.6542983440427852 12.42892779937411 -0.1936477767985697 0.5322003566640512 0.8574698462673814
P 6.2147452907214005 7.623286402255942 1.3142130368134968 -0.2552935746348249 1.2459789605566478 1.0493949839478895
P 2.101941182738289 3.169677423496778 5.987763773026586 -1.2765804874925886 1.8298343223928293 1.5307780008497573
P 7.1398556989990745 4.0983312744291736 5.9256094326093525 -0.7617412478148042 -0.04198148663810834 0.6996095114810661
P 2.2642689188798797 8.3428227614807 10.289274780525615 0.4046571848040386 0.7365809464990928 0.3332795043920002
