# total energy = -381164.3082464913 ev
CRYSTAL
PRIMVEC
9.24683537488446 0.00000000000000 0.00000000000000

0.00000000000000 9.24683537488446 0.00000000000000

0.00000000000000 0.00000000000000 13.53367825558680

PRIMCOORD
 96 1
Ni 2.8698662447067123 0.5843130599840314 6.462628792178608 -2.0240922219715722 0.5092411767647166 0.3178246032895107
Ni 2.9927381899179903 6.626235820189348 4.098728098080503 0.42919785025788015 1.488890873697668 0.6826983375480241
Ni -0.015980380472165212 5.518501958921263 9.719995683905744 1.5077239472437711 -3.00499404614407 1.0548238682729447
Ni 2.146218174245436 2.865187346130786 8.680311131728482 -0.6873877726038936 -0.2765334578502076 -0.17193995280783292
Ni 4.769526807038125 4.982056065672685 11.303652128444128 -1.652816955062089 -0.12261976641646623 -1.3485724044498582
Ni 5.722292958357699 7.498831910929317 9.177105671254868 -2.039231648716172 0.5927084413514373 1.7029570662515896
Ni 7.655824677771362 6.806086763473465 8.617704509795347 1.4028309086831066 0.5710579529611972 -0.7234007003633929
Ni 0.5917114527717755 2.8384454989339907 6.7144635729014865 -0.13593679524034652 0.8634713152664548 -0.7700762500430608
Ni 7.902252833993559 3.136905596434324 10.689805601737465 0.32454546695311204 -1.290171853023778 0.05728623531597876
Ni 5.48511163726579 3.3624636457674604 1.320427713567963 0.9494556898480745 0.2764259857380659 2.105648128468193
Ni 3.5870230369065257 0.7919849561246499 10.440528495611627 -0.2806220260972845 0.27858751216575894 -0.19852875903995484
Ni 4.741684586460826 7.821805368360047 1.251570231086754 -0.1571054588981617 2.163835278331886 -3.225156838514032
Ni 7.448529127820545 1.1156121647990909 11.980052570123679 1.4824844559506918 -0.002112418357312491 0.7397014944059453
Ni 5.1563126737029785 2.3085278712873962 3.630152125321219 -0.41654236627739877 0.48831213992153316 0.5483849368437136
Ni 2.697172351813437 8.574109380890087 1.9416902020491158 -1.3035716713694518 -0.7178368331223702 0.8714347930879057
Ni 5.453219302901424 7.714421871992002 5.112306060634421 -1.165607047065799 -1.6269416299572237 0.19884140518436721
Ni 0.2964905216175821 8.923907907033785 2.8502869960018384 -0.4601341348254205 0.07280592821813268 0.12795583391739898
Ni 6.2210302579449595 0.8223413911738753 2.0738737102365947 -1.0930420312138789 -0.5662674735510893 -2.006015309865203
Ni 2.501555554632177 2.101408011204056 3.885099390748952 1.5448586473125394 -1.9948024718685196 -0.7317678413811656
Ni 4.690642056541631 5.3345546676744275 5.292548145044551 -1.666561558341691 2.0450294863448715 0.6727234857234995
Ni 6.32025804572809 8.449064429423192 7.042885265590982 0.9522327383725794 -0.39420642178435983 1.3539709497576102
Ni 6.413512378017053 0.1895212834633745 4.145473623714652 2.68028839946401 1.9655368901351826 2.4773957070284043
Ni 5.286730036380573 6.758992632154905 2.9286603965156277 1.3711019530109418 -2.7023160686880106 2.3716364638127025
Ni 2.8292079106388317 5.474736688249606 7.095463694825317 0.5020544292082901 -1.519766480230602 0.5237815364727365
P 8.43656270832704 0.3043040973026762 9.069823890073257 -0.2462144951516921 -0.37973985273706856 -0.7727404271387853
Ni 0.4705187328201576 6.928653563125445 4.477928785887979 1.333548163126884 1.1700005481478044 -0.14014414845347478
P 4.711354967233479 8.823524264859369 3.214627095071428 -2.3564522998730966 0.1926211353062683 -0.21616446984384707
Ni 1.2308832115332717 7.33471908103695 6.788100744461541 0.8674909779488091 1.0292581039886985 -1.7950236424715476
P 7.008222579421581 5.3768219510549775 1.9995874108503935 0.9729260050558729 -1.0062014792795508 0.07942111954180514
P 3.805534997870382 2.4883048398904726 6.849326813909723 -0.23078170553638963 0.8339835902199831 0.5223987971925971
P 2.818083967977094 1.8762475757815225 13.392074809074717 0.7914745132131789 -1.0790963676670642 -1.0865394542086706
Ni 1.7964751291125205 8.990272442763867 13.05504616224595 1.111291207232054 -0.033081870155633346 -0.7976245919749747
Ni 0.30447146501853445 1.499272601189906 4.76329998826139 -0.34738869009987267 -0.9290012786484646 0.600391926038624
Ni 6.239496187700147 4.691779417262657 3.9054942103123174 1.162623796067759 -1.1910730525473874 -1.2514772646670576
Ni 4.0288830536073785 3.809418668625103 13.33458353633566 0.194760036026142 0.43586523497572677 -1.5935162604192425
Ni 3.2646691174295253 7.609266862890357 10.400279796340017 0.1937961294509759 0.05739319320748825 -0.3160628834033976
Ni 5.827078094054133 6.109837065503236 7.467572060087862 -0.3496484326683269 -2.1570434522210333 -1.881581887278766
Ni 2.7964371269370885 3.6560784016595225 5.366373952041264 0.2587704774398318 0.9024656942517812 0.874248865497933
Ni 7.559583617735315 7.280061038581812 1.2596565884081916 -0.939559513780285 0.04273430564373285 1.6567592275392886
Ni 4.387706490838238 2.619702367091877 8.895213128257472 -1.04047839818455 1.7636721247434592 0.12646459408385316
Ni 9.020222941750875 2.447591024811811 8.86277245656988 -0.48082354485397183 -0.3624355571306661 -0.8649738679539103
Ni 2.042274500545859 3.660415167335628 0.701746941455187 -1.6197836787562037 1.0990635548176104 0.9438370581097164
Ni 9.178621227532723 5.530680040787853 7.513844147763341 1.3503644633532745 -0.7211196176386999 -2.0712462539495555
Ni 6.441724471999564 3.9052713615856773 12.286982768603357 -0.014619806795703854 -1.6985036584659265 1.400898210436768
Ni 3.6549780282790185 6.722467633390265 12.742512381677317 -0.18367626740815463 -0.1511680103678042 0.6761996171975581
Ni 9.153423601802684 4.617157457761226 1.1070237043300784 -0.6577010441727382 0.7989502527649337 1.0335893843742006
Ni 1.994126230022445 8.969050956139856 4.681204736607659 -0.4312632174273411 -0.9069103602866961 -1.4439803863382228
Ni 7.640548906136124 7.404421724249068 3.798957724042207 -0.7021477045218875 -0.42416851536408884 -1.5541920088983232
Ni 7.275539336203102 5.942432362304487 5.608735350173161 0.07323941621112548 0.0052005703643329786 1.061290964054527
Ni 5.030444753909487 0.868367513034888 6.153100233027319 1.8768968230982708 1.5002230108810357 -4.087923671514295
Ni 4.533760251721151 0.16203876477264295 8.020477319868355 -1.1202363322404836 0.22558242072363732 4.828386983786929
Ni 6.186890942643933 1.5827437819110237 8.984805713834842 4.097288657668963 -1.3830295576864633 -0.16463493450598743
Ni 7.40579025584835 5.571523311558339 10.706736556861026 -2.492122728825934 0.2200164966000856 1.255983380067527
Ni 7.56710129469624 5.814530138782331 13.01226567951567 0.12715699216518747 1.1566279834956403 0.2917950119949684
Ni 8.365926134766765 2.786866652577239 0.40323598636163677 -0.6158092890349588 -1.9845139454583178 -2.621216275892202
Ni 0.94977017673736 1.9604492564779328 12.052227817049635 -0.07605683105526256 0.4175337836563906 0.0997595739888411
P 5.6739967384722005 1.7865625218528507 11.083852083346622 -1.3553158938212788 3.422283832110454 0.13413136660049158
Ni 3.3880958727486212 5.840171612598621 1.8036599200087549 -1.1308519029728008 -0.859390717439178 -0.618531058841496
P 1.3688090043366603 5.949025355752382 0.1372859118123727 0.8034052032124938 -0.1817116874826161 -1.1668188079857131
Ni 7.698840954797465 3.057845156070355 5.067564324173006 0.341060948109632 0.15338430129283262 -0.854611807993296
P 5.680349314206709 6.78540159328701 11.602299936697605 0.8194781975149563 2.566376445234187 0.8987584206035231
P 1.3134389555764907 5.354444610039678 5.654478518879188 -0.7741157102197571 -0.7085811188520571 -0.3894591369073615
P 8.174840286799345 1.0061481305267312 1.6775802476907793 2.934259912853302 -1.023113167433225 -0.6220233882654707
Ni 8.123501858155981 8.225170810413507 5.8523950039573505 1.5912842857649305 0.8161830717034524 0.02208474771418132
Ni 3.271326838723333 2.983630057314656 11.229907693596562 -0.20872138330224055 -0.8107001942120102 -0.48078369275497196
Ni 7.2620112164074895 1.429773388350655 6.471818296931089 1.098438776749418 -0.6372222074930961 1.1821808922640804
Ni 3.9097653234589975 7.439457982557732 7.0158179297976 -0.13426609240614296 0.10141330754218018 -0.7813114566372479
Ni 6.406447795977512 8.623126853915748 13.273263149169152 -0.007624863535109449 -0.9596855951061988 -0.7049216677225989
Ni 5.618145854285256 9.060391193556848 10.735955631189226 0.5892891312572432 -2.394031286568135 1.1813316568899075
Ni 5.615066658186869 3.5084619256395913 6.081277290519826 -0.37082995184194845 -1.5383023342512605 0.5132924640159546
Ni 7.452459032750918 2.792581196687758 2.490467674627447 0.16102819099133558 1.6953016065888609 2.3712783091423355
Ni 0.7307986480675285 2.890163047817696 3.007927965986516 -2.4958716543454047 0.4947512106786577 -1.0329586927687373
Ni 1.320300107243165 0.39638130747955364 10.018345744068027 -0.363817010859225 0.055518344782278586 -0.6868103028338688
Ni 7.853660715383891 7.769024433436358 11.15050512033277 -1.3465353194151712 0.733320530580266 -0.595801221344148
Ni 0.5694247307407534 0.381603940257839 7.296398346890007 -0.7962716774915061 0.3216275219753687 0.2268263204330674
Ni 1.1767614855156912 1.4208871797904472 1.2988677927781815 0.18190117778560283 -0.6686107491067066 -0.211227694663862
Ni 2.3063548650317784 5.047468177384348 11.734321625270304 -0.5181557056455269 -0.14847246581351203 0.9786719064007144
Ni 4.029271420682851 9.056442794956215 12.778985598165228 0.47199437659811616 0.9108456907853604 -0.29188242950245213
Ni 1.7484100801052789 4.816472988994602 3.495166826089262 0.4545106179910559 0.15772946563540577 -0.8842489141334384
Ni 0.5345022085041914 6.572789113136278 1.9964610558928428 0.6841001029915573 1.67984413438321 0.9417158980016556
Ni 5.469392017544299 5.638636840933976 0.5330606269073793 -0.09865219985727526 0.2084035949515056 -0.4864560605494009
Ni 9.108557957750524 4.454117260743972 12.024049936357107 1.4554701321453771 -0.06007922468008363 1.407222609992899
Ni 7.449999374606262 4.108960645835681 7.303179051091048 0.056831150056431155 -0.9409003440788958 0.6062023620728141
Ni 3.9776463401504483 1.2068414401945207 1.6666726809710903 -0.8139590674689401 0.9029086953264708 -0.04669868960811957
Ni 5.615575234119036 1.5734969467807347 13.391005874933656 -0.3900723450113282 1.0785906316752392 -1.0071026509375816
Ni 8.990198468082827 8.695409364129217 0.2649079562300805 -1.1708366708958544 0.42204324149096994 0.5756995654982665
Ni 0.6959408536768786 7.403413819219867 8.971353418087297 0.5344261606707764 2.3743854873127495 0.9140264025061872
Ni 2.316073288753712 5.539076167086156 9.4304560082556 -0.02555830808507856 -0.691017656046997 0.11580557170811025
P 0.0007499183290664269 9.222109093150472 11.697915910678844 1.546917329613781 -0.21869469246486853 0.24013229351335413
Ni 8.740876052464847 4.876068841409314 4.156084367026658 0.16470975360798085 -0.7334344304503111 -1.0655589953022617
P 4.086315146601603 4.287766696750076 3.371428452426276 -0.7346760161668959 -0.07573518604978569 -0.1560335659902216
Ni 6.243463079971041 4.09550650072111 9.541865576639372 -1.685092527266343 -0.21441869079733394 -1.8932405545636166
P 2.5123743517346147 8.590235861357312 8.257736314375359 -0.934080750053901 -0.07861045071505171 1.0563994402901808
P 4.3739009659887165 5.791357569945826 8.995606017267018 -0.10315882947837718 -0.6202629539309382 0.3822253381630837
P 1.0369863256862446 3.540492962530912 10.408656504284545 0.48428476392969505 0.1932777950536607 -0.0075569864116515
Ni 0.7662658088932645 6.897593443922805 11.616605715327676 0.514086934892792 0.7333477842737757 0.8120631359978078
