# total energy = -340863.7573668556 ev
CRYSTAL
PRIMVEC
9.35033239087238 0.00000000000000 0.00000000000000
0.00000000000000 9.35033239087238 0.00000000000000
0.00000000000000 0.00000000000000 13.68515660012383
PRIMCOORD
 96 1
Ni 7.17528592695959 8.291070411304453 6.942151290666289 0.17595473039418086 0.022216902416671416 1.417441716617746
Ni 1.6594501961695178 0.58775533295438 1.8185928491561651 -0.27791516868908267 1.2105656140543604 -0.04528304020751556
Ni 7.085634942421636 4.261058559215683 4.455216335992247 0.6006305244119914 -1.027093492237212 0.5922633833942187
Ni 7.704467974302673 4.857628450276439 0.587644999035153 0.1338986817643952 -3.010721949766783 0.31630482421087464
Ni 7.081193534656145 1.8702814852143428 0.7802758665736025 0.1508571639956047 -2.1574710266767556 0.5955471963518131
Ni 0.7816615857964356 1.8610527073942593 8.758403751688345 -0.1688715982951543 0.9667121629356771 0.41354985930797805
Ni 8.432989752493134 9.018470149638368 1.7338405036252444 0.7843695267372813 -1.5518060251646502 -1.5227523023318033
Ni 4.1441233054994076 7.789771054396515 5.230863788157602 1.4617135419519276 1.190768376822775 0.1923462843783268
Ni 7.453635964372016 6.955272611755371 0.24054290444613918 0.051529535337859644 1.355824200916265 1.352704681450677
Ni 7.684607868841825 2.913217531873016 12.7273317539868 -1.1037784437947764 -0.912110673540713 -1.976908622307234
Ni 3.530068293340824 8.982284364264789 2.7985731095305204 1.0936261858521232 -0.9070018915592378 -0.5826356304964676
Ni 4.995788957945693 2.9412498276223675 4.786780048634539 0.4008779202672645 -0.6712625849072568 -0.26972234846564513
Ni 1.520186349307995 5.156240657431642 0.7816307297003807 -1.369268499346629 1.1905498330540658 0.5102966146124245
Ni 7.755128073825685 7.88932404066848 11.982832128239137 -0.24545499127784823 0.35227635720947714 -1.5107174826544563
Ni 9.021032140644147 3.1136232005841094 6.803247431592075 -1.3878781440280163 -0.30735429988580615 -0.49343249186723404
Ni 4.608170939170049 2.8232486360423747 8.487274040752785 0.8541487523139484 -0.19910751436156032 -0.4140568808513837
Ni 0.72277973922459 7.765591095487968 0.13793703473115845 -0.12817412057579214 0.21539725266051937 -0.3951142783106098
Ni 7.513459389390146 5.22210439701084 11.101918636865577 -0.6067667192167163 0.11639563988362536 1.3095813678986414
Ni 8.338925411186102 0.7728068212618672 5.67738328920258 1.4680019460638007 -0.09572217069467386 1.578928849523371
Ni 0.059268015289139914 2.305623599221705 1.5088976933179374 -0.384787442463305 0.7445991888178789 0.21244099824567284
Ni 5.204684728237977 7.25280018038258 7.781803636381831 1.6317076838872995 0.363521076885361 0.060587531775069856
Ni 2.92226865338248 6.63164826613135 11.766113870080305 0.14334979987496602 0.5402311973883277 0.5330704179738304
Ni 7.731181873220585 8.0493736758725 4.647985588446338 1.8051895272609557 -0.07889507183500606 0.05050520783840334
Ni 5.6808597426914424 0.3840938785928783 9.855433339831057 0.30551596112548673 -0.015527149101321648 1.8386426647130787
P 6.306770976000853 6.9036774790185715 10.50349457494188 -1.1544273762998958 0.971218792556779 0.8777347671640046
P 1.3688886249850256 9.162455914229518 11.151007880589425 -1.3473477880141376 -0.30960170115908614 -0.5554372157048046
P 5.667507468398556 4.614996681630697 13.446076824893895 2.18291337800926 0.5955669938461549 -0.052148656979097284
P 3.0899575099431456 6.399769379444166 2.014756272176304 1.4113862544522855 -0.46718667079682763 -0.11706952602219838
P 6.924276260718313 2.879462832855284 2.568827033603986 -0.21706255617808423 2.1445337497897974 1.1544654286266827
P 8.956066032950185 0.9159538610602501 13.551534545910929 -0.44104266541160814 -0.15252143907190507 -0.7649325010585922
P 7.730396445321004 2.793888593129444 9.419000042063205 1.3782527051231102 -0.4818039064893702 0.05002492576787514
P 0.7990999552335741 4.2968516306394715 5.0018012215103465 -0.6784860992388897 0.729713272844982 1.5564085569336676
Ni 1.5018409976534826 0.5874402267613335 6.628870282453186 -0.6431144046078151 0.5406849970962947 -0.10056947148464615
Ni 5.984483727872547 3.4272426908206035 10.419303249339233 0.4214179492021452 -0.43985661552330696 0.31765002538485937
Ni 0.021763833084119846 6.343686087281187 4.357477314155031 0.39510862188365503 -0.8683301860206528 -0.02786818716517781
Ni 8.652105435812116 8.410044037426786 9.79097682523861 -1.291361245346189 0.2200419505213823 -0.9936449827707791
Ni 4.413618578377266 5.866566689281796 3.919209481221728 -0.8482506416619585 -0.6463951322416158 -0.3981504940337724
Ni 8.952363301423587 4.518015036696649 2.7074298119833613 0.32220216353191605 -1.6723123447825394 0.7100271072699642
Ni 1.7887185379756516 0.827955080211059 13.236228255756762 -2.720830325442114 -1.0457764133586958 -1.1427597101539804
Ni 4.472086205235404 5.127404233118433 9.733157176397627 0.972514628550067 0.7435967156952935 0.22857929856843215
Ni 9.348396619123319 4.4432310802579185 10.071508295138804 0.8249068247296955 -0.8945677795609432 -1.7577652723407209
Ni 1.8227350462932441 8.025997845527812 4.85714971327098 -0.05464134149396396 0.5754879637080927 -0.02631704062797403
Ni 2.6746625080393893 3.4525072882571437 9.787459230288341 0.06753233852401917 -0.07560457400919238 -0.506908929087114
Ni 8.39307318459654 0.8823655979545725 11.103465181801182 1.1035863823886283 1.5482134227173852 0.5314948459565942
Ni 2.7347196913609655 5.870989396383011 5.81995434854127 -0.4476550285218032 -0.1331988274838932 0.4286088105236296
Ni 6.298617486376625 8.71701544151325 3.104861004337706 -3.6371972031560196 -1.7036142402196144 -2.2137817854533424
Ni 3.692923028186208 4.832476056825552 0.13030155350736902 -0.8139536681523014 0.23513792562255634 -0.30618933304342755
Ni 6.455796569614319 0.5967999092313472 12.31127563504702 -0.42299223566780053 0.18128488435784262 0.6108056651727803
Ni 3.34481016269309 2.527946446463979 13.595162260633044 -1.357076071045495 0.5898498888567196 0.18135996057015216
Ni 5.220711197522296 7.804254718878085 12.488074520209619 0.7209272991222359 -0.2592409893183471 -0.9571263190194548
Ni 3.6263580136966698 7.584821124266414 9.78287476244114 0.9747540594035471 0.910109069729652 -0.5688650590749363
Ni 3.851242851944722 1.0221409079840373 6.281472717368616 0.25092089948842594 0.042674398940074895 0.6291003497169101
Ni 0.46868726847745495 6.856514403715126 11.097210744634156 0.225505801849431 0.2932389435303466 0.3403796057718912
Ni 2.1841721350828354 1.3354050855992923 4.137118971694925 0.3258754986184452 -0.030312020719980057 0.4545802948867268
Ni 3.204059613021644 0.7632554569830271 9.367968734354319 -0.3246819925309763 0.7676362731430005 -1.261201176823041
Ni 0.14604096759505544 7.803871355260433 6.462445590797562 0.27954756208618303 -0.4718056576260778 1.3678039989859605
P 0.18951814196975064 6.11283573712917 8.356936020950078 1.3120457702787338 0.6073048511083735 0.0187417993838774
P 2.003140354561421 3.2847249283750997 1.6865446536054407 0.9577405555646861 -0.9083391223134227 0.5126939112000074
P 6.264320468094897 6.584073776213836 4.813178841359404 -1.03514747288994 -0.5888556432642504 1.146465955360974
P 6.863704809129153 2.794730123021853 6.019155694473005 0.023361557544075894 -0.5137393217453863 1.0034591406477236
P 3.69700912333046 0.3912048061837328 0.13181630731370492 2.084686695725178 -0.38465271665765366 1.8516185081474563
P 8.82011220366547 0.32938041008809765 7.8506127305844595 0.09152972987988107 -0.668127895933017 -0.2894265117627919
P 2.6891181215245457 2.436257089519968 7.585818804705525 -1.4833537459295227 0.43178386581750156 -0.3250985112431046
P 3.8136264657540475 5.785256201010827 7.840705118651167 -2.340631787901072 -1.1027944826149525 -0.8656580385051286
Ni 2.1664345550172848 5.747415406848843 9.780220203147199 -1.118949752218576 0.08750775320468156 -1.736580153622674
Ni 2.8275404384936595 3.5058041814430365 5.5121068183334865 -0.33645790211998183 -0.5892747330795399 0.7857710350704983
Ni 6.165571610386789 0.3584571379372502 5.357123193081767 -1.5941839759102285 0.9837830023750348 0.19747332119224698
Ni 6.595107168136531 1.2799389153574128 7.83056468344764 0.7856851602249114 0.8759072270369624 -0.9270719228362355
Ni 4.186181099455573 3.795542923399396 2.5796930545814116 -0.4311428897993929 0.366772236832807 -0.4030489597766543
Ni 2.7739723856757688 7.8818344246260414 7.278258329694375 0.6011205766745326 0.09756822276447713 -0.20320456724906938
Ni 7.6040734581383 6.494329288354504 8.859866075782863 -1.2289325465973222 0.1995533436497273 -0.28376391416037583
Ni 5.221823887046703 6.3524286478301 1.0901991705159944 -0.23220918201153556 0.6484440443508446 0.20327501547568863
Ni 4.936292794552388 1.8184058425134075 1.593855746155891 -0.4446067286137827 -1.5177183394523217 0.42290430393968453
Ni 6.793661471084325 4.418237642453376 8.220180868201147 0.13907302687648307 -1.4194849723000198 0.37755955725629814
Ni 0.07254455189170984 3.9027631820244184 12.388514988705158 3.29494069207639 1.655824374429845 -0.10775004839348538
Ni 3.3084280203446146 7.596901753388551 0.06802834146911581 -1.1983508171557233 0.49641240043116447 1.978122440109677
Ni 1.6466963431334551 2.358583880450634 11.489236509979595 -0.23924963379808475 -0.4914470860060891 0.09968269800431866
Ni 7.609057185167789 0.9947537851521989 3.2768556888478635 1.5766423674820396 2.3354235042272555 1.6293967763659358
Ni 1.3472706570822566 8.83718591014923 8.92409070213829 -0.15579213940337686 -1.1744097329590937 0.0021970076513187966
Ni 5.420780254276425 2.723097228513586 12.568556569053172 -0.9172765340123686 -0.5132333286432451 0.033787380863090195
Ni 6.588627387964983 5.769519592022782 2.885624701734144 1.069096833252191 0.7980837909995803 -1.6522525979181866
Ni 2.063019881572378 4.81712281145516 3.4188937792546943 0.7887128913076417 0.5993938237914129 -0.9751592652617658
Ni 1.283753850869666 4.457153724811215 7.689100703434074 1.726411440619788 -0.32350417017279126 -0.2526818480435906
Ni 1.5134167088401729 7.765002024563282 2.4558011537545568 -1.6167726598440222 -1.6613396478211193 0.059848082505884026
Ni 5.409522454382423 4.927400628689268 6.436115055497303 -1.0379139798914834 0.2872737270858472 -0.9496590641081322
Ni 9.227337868934239 2.4519282461830483 4.508985420951103 0.20965186553630993 0.4652642569631342 -1.6043992258803335
Ni 3.425325872732339 0.14531725188758388 11.599949117658115 1.207989882907384 -0.5864462624918093 0.7684981069226636
Ni 7.642587476214211 5.892654115946469 6.42147243536939 0.7073061087943754 0.5955945046499806 -0.10960021422834673
P 6.408979456599974 8.776707961881451 0.5601718531476462 -0.5824343131189389 0.8408443218955582 0.5968126933277981
P 2.5588305935153834 4.610031655265486 11.891319492572533 -1.0339539668024709 -1.820190885765794 -0.4172684458101459
P 4.205835497609388 2.085750538999554 10.72195012481193 0.7984949103950699 0.8596755956694484 0.5077890176992222
P 4.464680742182206 0.8543015110759519 4.206351635943399 -0.3825528967058315 0.0883922126921639 -0.9518002788208512
P 0.4532311694535462 0.044918060557141835 3.704134076419521 -0.5964378264868825 0.7125994959828309 0.41271630766308925
P 8.6159103001064 6.467652790765144 2.1108664661551026 0.349102844577502 1.4852921006028161 0.22227701049948817
P 4.727584030902861 9.315446048669443 8.03834589414909 0.1011274008706452 -0.48744902059028955 -1.3398093135452473
P 9.30079407820939 5.920966921659957 13.025230530799883 -0.6640755802405144 0.46046400736101345 -0.8887347178189339
