# total energy = -381166.6317126799 ev
CRYSTAL
PRIMVEC
9.29092925842406 0.00000000000000 0.00000000000000
0.00000000000000 9.29092925842406 0.00000000000000
0.00000000000000 0.00000000000000 13.59821411122170
PRIMCOORD
 96 1
Ni 5.324836011132515 0.538618401763289 1.7487712405760043 -0.7626647880703381 0.9353619307591698 -1.3687110841812622
Ni 3.6748598678034794 1.5754535990098606 13.578089335131867 -0.24255350136033715 -1.0851001506589828 -0.22332499214802828
Ni 8.515118167739027 1.6894625930680316 3.1331104228491213 0.8152474472630604 -1.2460725487117186 -1.7835706634395994
Ni 0.8888111817438265 0.7773962151602738 1.0583901533393887 -0.4944449922921485 0.8354501474631806 0.09524523105825533
Ni 4.185860982072846 8.23573992217394 3.282922013158875 0.9838717054340991 0.7773972091845064 0.7218750077474858
Ni 7.480192256473954 4.363577878686383 9.30920182110547 -0.15118317987645577 0.17364896507913966 0.7804239118259721
Ni 1.9065265754803085 6.895226053646433 6.514388072296694 -0.041643386572399244 -1.058740943939164 1.1726881222822965
Ni 0.9195966761462182 5.505089331458696 13.226778856350482 0.10941535191105028 0.21833216691912719 0.2380278455758417
Ni 7.227897069965141 6.246635566627701 6.627402007821443 1.5385347619770406 0.20297753883992783 -0.2704276020627859
Ni 0.8897040400543953 7.583210081110658 4.548371676186081 -0.808680335568504 -0.8721901831966915 1.4795978784315162
Ni 7.702301213523471 0.04103524766170026 1.0577741647234602 -0.6878793675283315 1.5479275160458503 0.7237570552615471
Ni 9.182374131822616 5.365781136779516 8.144147153359363 0.5493586136108927 0.26922509711425247 -0.7141056482147121
Ni 6.208161828187893 7.778161651669096 4.720443404126343 -0.9810833440556846 -0.36004288852877353 -1.3768684231810737
Ni 4.23582760011904 4.755525024260337 10.20522833858278 0.26278191259207 -0.04882833435661268 0.6224360503228571
Ni 8.507973443068607 -0.06394017578912337 4.409261378302063 -0.35427436147611246 -1.4082027145179812 1.5241903203299105
Ni 2.4941964387487814 4.63530039846678 2.370304683140641 -0.4059152255808558 -0.5466445571138392 -1.1742032733752423
Ni 4.2986249915980705 7.557362715657979 9.87438391897435 0.23271080423830245 -0.021500850186253292 2.0156646600295094
Ni 4.766655557622059 1.543223365093489 3.9339903910353455 0.17315248505869532 -0.6617698149254733 1.2412558440493655
Ni 6.477970416522118 2.901046235000701 3.061556330457385 -1.6472662004471885 0.088524367394654 -0.22649953322126798
Ni 5.411213781302738 9.097835965663764 12.233130686003152 -0.3436749886937113 0.4154295928291943 0.3364776996143237
Ni 5.617806886337169 3.747877281567897 5.230621342055269 -0.8469308944092704 -1.9665679025028584 -0.6305216555444689
Ni 6.408660083568491 6.636687362614184 -0.12078579792631786 -0.8413156051050221 0.48971827624044045 1.3832756122589984
Ni 7.374089843292933 1.533142706748357 12.291330925639627 -0.7138665356207125 -1.496339102445597 -0.9435228693034073
Ni 2.2881143348286206 6.962687491659341 2.864124081762402 -1.1818430493086873 -0.5869928790238987 -1.0224107420495616
P 4.772072169433314 1.9730031749820778 6.562756650494627 1.060981146123592 0.15106388068977208 -1.579756744741305
Ni 3.9401623554027845 5.936699454429305 8.189225813474337 0.6027717391247103 0.23316563238753393 -0.06887625414642332
P 5.603656800936582 2.3856969657953693 13.188336707070466 -0.36867151073804894 0.16520160564273487 -0.6217827330095743
Ni 1.6986977768422815 0.8450183862509417 8.533613620796775 -0.626918768684559 0.1532043240715426 1.6071937579063353
P 1.8819892310660284 8.195565943663016 10.034027170722647 0.7987185963701018 1.0105492147252855 -0.5578941618857295
P 1.1612825504298634 2.9723448268353034 3.2241503813673518 0.9638782930313077 -0.23448589386085422 0.3396548117907247
P -0.0597508957450496 5.566214355654663 5.7126914314205735 0.3505658022762737 0.7662180526392353 0.6097224594109306
Ni 2.343701965131778 4.060145417033231 11.44930236045363 -0.4995532600529912 -0.43440253438727117 -0.33452674653554
Ni 7.746683983030104 5.954296474618872 3.8959700499478345 0.6154346793043595 -0.03870950075505591 1.4575745800828896
Ni 2.2655652492953164 3.3609379469137814 8.823867828259385 -0.09118983004195907 0.20901217506978195 0.6969229657878384
Ni 0.6989306004248098 1.9056067734746236 5.1490181804781905 -0.828309165543025 0.7475217617813127 -0.4825104456380916
Ni 1.9506027443183789 6.096642803195617 9.376988441645638 -0.5424896544052011 -0.12175073354795161 -0.5003695853066995
Ni 7.813764492939646 3.887436331339536 5.794634641011874 1.2590437641604058 0.46419416382740697 0.08877196462908582
Ni 1.4190315124673323 8.03868860158232 0.12937990757539355 1.4451875192724464 -0.9583720185010978 1.9268950093932684
Ni 0.0906822577382419 5.031112570650482 10.623632334574797 2.0715234188703424 -1.382749307441883 -0.6730736699740667
Ni 4.040132755212573 5.695869274738826 3.924199609685944 0.16754516617424692 -0.20842802043153785 -0.14001250797161693
Ni 6.681339569071977 7.113228419923096 2.3262601034623613 0.03483022030530776 1.2905703740137775 -1.0821230703085298
Ni 8.69883700471289 3.3340871610912637 12.422499337114965 1.711582860247388 0.8952025849314649 -0.35456746723649907
Ni 4.029847696421734 -0.10045631541481236 6.11427419982378 0.17052764584133856 1.7424458683748314 -0.5336597148183971
Ni 2.6260904718063802 3.6896696091879404 13.783829532851936 -1.1125194232122002 -0.004966599976655962 -0.9556103965955606
Ni 2.2192128027664095 0.2898082428537939 4.2636660117315 0.4516836900652221 0.4594455933988281 -0.012365206433572253
Ni 7.978920053071506 4.995779166331093 0.40756612690483196 0.40215498720747517 0.1515521331801003 0.9352847976643311
Ni 6.3519854145313435 1.6943124581889153 8.074415941306164 0.48680495924838746 -0.6812613479911815 1.1669656179762227
Ni 2.6377784609291237 2.240656267707022 6.575280823258902 1.2017634423816979 -2.333873386131316 0.09739647307330324
Ni 4.190775883699183 1.1539520071724354 8.662919200937365 -0.8340676652933571 -0.6062792380573364 0.7157136161317803
Ni 7.177874706342846 8.642376027050801 6.423348113778464 1.2034117766183985 0.6238383299870224 1.1492064942205884
Ni 1.3791734255543213 9.363119871404368 6.473116835029495 -0.27893846774727443 -0.9732445647375563 -0.5128265801231298
Ni 0.2922573318305467 0.34265597809153187 11.854175046939794 -0.45454481366310107 0.7439217031348802 0.9884544397087752
Ni 8.735740576092489 2.3278051850133252 10.247137862696347 0.3912483675973004 -0.4213282177018163 0.35746535760958437
Ni 7.323565769485717 2.5784187133097234 0.8860257611245909 0.13977545226014637 0.08283091655430251 0.10712475610466068
Ni 6.3407526809467685 2.5861673483879173 10.128901495783765 -0.8582064673230897 -0.44961395202038695 1.2078052777004038
Ni 8.482302605273585 3.808807196247506 3.3102680055157663 1.2427619962812466 3.0312789479825275 -0.14431396356044823
P 8.319562686772816 0.7291586390661805 7.805796591928784 1.1921634573980886 -2.828025272663078 1.1185982824164284
Ni 8.573623149858195 7.5509612653355855 0.13698546234159184 -0.5244556797216258 -1.7751765258386332 -0.6005179100935271
P 3.666674559045819 7.319189741761702 5.3603617376894555 0.07229479290966905 -0.8497369963994977 -0.7407929276979113
Ni 5.09201461254204 5.726520050665639 5.968840495423913 0.3801761689435388 1.9720009005929717 1.4187702056211824
P 5.789661206530631 4.987565984785381 2.851300741073046 0.8886673549161083 -0.09341152028362622 0.021483880905388806
P 1.3458840256920097 2.0342582721889495 12.902040435511104 0.19663025646566137 0.43882663159689583 -0.3987554746076229
P 9.498209984158487 5.712899548238022 2.256514955015138 -0.17786506004301625 0.4612415089569863 -0.3963661484398399
Ni 4.148455700508329 8.237802508489718 0.4172286934291982 -0.41603843005778673 0.9360232184922526 0.43547031353015325
Ni 7.352451268835962 1.614670611797697 6.1572846990653645 0.33711044810231616 0.760589136488232 -3.559921926312624
Ni 8.357525424098355 8.848801895356925 9.851430678014305 0.9352873687674925 -0.12420305174318609 0.14090313810668637
Ni 1.8983412667226482 1.8425492359737836 10.801129965255663 -0.0010875766372239334 -0.4433597435805591 -0.3926539896955754
Ni 4.621809969050069 3.7871500399318347 1.110850456823217 2.224783021659852 -1.5635058301000817 3.0821487382492014
Ni 8.78246465979541 2.7000462694351834 7.943614521540168 0.5643646001014216 1.3228955685090442 -0.03187807965551929
Ni -0.24513745453730085 7.81016890328106 7.5943712745392356 0.13345645202065404 0.37627014902091327 0.3035745211283998
Ni 0.5089060097008627 3.2849474357572515 0.9343859774861087 -0.7833991924042122 0.09219950225339604 1.6790149536136956
Ni 2.953595731406293 1.9885561907145675 2.3744382176086125 -0.24701153713169074 -0.23769334505455836 -0.5881516752186903
Ni 0.6588839076459871 7.385675632192822 11.570013830945145 -1.919879240197068 -0.6080242457729013 -0.891835982452077
Ni 3.3882254064157653 8.388687201139435 8.18257629533829 -3.6829836653625154 0.0005725846740183687 -1.3625905731058212
Ni 9.360425501892765 8.129600345275517 2.460229730136829 -0.19897407410748957 -0.5898313769139583 -0.9169335488506531
Ni 4.685908090638149 3.3164343953255946 8.246840724561741 -0.1475414693588104 2.571076421813017 0.21940277427548666
Ni 6.557890990793847 4.166749540399172 11.997990271446831 -1.5516350468044247 -1.015927191207747 0.282674537750939
Ni 3.2272136007741636 3.342532615870734 4.396398086616501 0.4248400875098167 -1.359761331187142 0.17716880530694004
Ni 1.824431923740597 5.020966875799898 4.598209150314305 -2.076562523956146 1.340502225847214 0.7436188271824806
Ni 7.717928556690763 5.970667092134192 11.545944749370122 0.38545387240271034 2.3620205379894936 0.1383834570086262
Ni 3.208706069508262 4.533527558363024 6.636241398005367 0.36736256211863827 -0.10315934369900943 -0.7183047738977243
Ni 6.111684817813836 0.07565139223524224 9.961575574555665 -0.7936093001679945 0.059563204275613554 -0.22565106917804365
Ni 4.397136715499855 4.923059062305886 12.927128732035861 0.1720451109271295 1.5377240931502871 -2.2991802056245048
Ni 4.231693136558134 1.722213119028023 11.05816259664022 0.4059039127269461 0.12834895559075962 0.2976041624775778
Ni 2.6388562087337646 6.355850441141091 11.585991442148945 2.008311819208864 -0.14515677117671774 1.0422853694863017
Ni 1.1573989419614161 3.7761867432984197 6.718578543001123 -2.7343643553728065 1.7448393083076725 -0.5932460590224622
Ni 6.770495327117955 6.974161789407025 9.192515181208526 0.6307371139893847 -0.6398277634367432 0.9346479354112806
Ni 5.438575568239525 7.8192368503270036 7.562388179343584 0.06233922435885392 -0.4490495948764847 -0.44339959567955894
P 2.442631780854327 -0.2530858445965271 2.207642808446416 -0.03289880761054979 0.29464816517304737 -1.2320320114582524
Ni 5.444400980942197 6.555205912211596 11.493373883827026 -0.4040825432474912 -0.36207843090156355 -0.8260818188744031
P 2.9910195948295115 6.290721026395121 0.2775005487433824 -1.435795022313953 -0.41901988128361384 -0.9289876518017098
Ni 4.515168681966728 6.45586729559763 1.672131293457885 0.7868753238782706 -2.3898373030914453 0.7571991369700766
P 6.0183853052776 5.195264710412504 8.072606997361651 -0.9187389774905081 0.23148901601605937 -0.19250466433306201
P 7.344498233312061 8.249704188987518 12.047840752876144 0.8179363069491333 0.0838902110567523 -0.7472098869678486
P 6.7051893847143305 0.4592896596911773 3.252883509476251 0.3291117461675558 -0.7908728750734378 0.89070212595795
Ni 2.8385740260489336 8.753802142749574 12.221585777192404 0.2944311640662349 1.4061859411982685 -3.095286818293056
