# total energy = -340856.1808477756 ev
CRYSTAL
PRIMVEC
9.43700636095390 0.00000000000000 0.00000000000000
0.00000000000000 9.43700636095390 0.00000000000000
0.00000000000000 0.00000000000000 13.81201271647351
PRIMCOORD
 96 1
Ni 0.3194766287872282 6.388664371185865 10.762306176179367 0.9996454233285881 0.8061688820005599 0.27443826588407577
Ni 6.262048060706676 8.980330474955593 11.65764212733931 -2.5908397204828737 0.6061038888217368 -1.3352229797261455
Ni 5.450248487303442 6.160203891168672 12.028094631830157 -0.44472088559414374 1.1090954851323156 -0.7964516547127961
Ni 1.5552091637966545 3.0348656569742154 2.710455361412111 0.27992602847152437 0.34838473546455484 -0.7448935801298462
Ni 4.161719678118949 3.1871600609775794 1.6296794098191942 0.5586480093326185 0.4712058192585498 0.5659404292289737
Ni 5.975285757171527 1.6770975342333538 2.2891336193862712 0.6037454158918892 0.19741649981238257 -0.6041884169665788
Ni 0.21316214947252382 6.679248662180509 5.682206321771225 0.3468040212409963 0.11965039937549715 -0.011669723028444419
Ni 1.7787812746681193 5.095209444831353 9.10975429474145 -0.5700832477527538 -0.10406077246735626 -0.17167435785127208
Ni 9.064310391997726 8.488813450658208 3.8731784989390716 -0.3303893273283987 0.7982737955231994 2.6461405499377073
Ni 7.432604856974695 0.12440238885450167 9.576185869496033 0.8532892325271305 -0.1660171595654947 1.4623066954512363
Ni 3.5831179617814684 7.35324907290825 0.009995676832343743 0.3043638497989145 -0.8863867864120476 0.6326957803776523
Ni 5.053261952837614 2.0506236716021204 11.041488676436817 0.40453865694830327 -0.49840063450578687 0.06384871902484487
Ni 7.182722373172174 4.849356562621932 4.345922487055773 1.5457523627714025 0.2924056489957738 0.9263607557018239
Ni 7.433831667764163 6.890996204442716 2.85260875868961 0.3323369379730728 -0.7353298477008111 0.20350872875304954
Ni 5.67986028206152 7.864366758818909 1.495481408661093 0.4925560027995518 1.6882547270444084 -1.2368350892738504
Ni 5.074089425240355 8.799158832369363 7.152550377356115 -0.15863140862438488 -0.9980166294759133 -1.3657908252106736
Ni 9.275170855689087 4.6012387989550305 3.211196115445083 -0.9187070958113082 -0.8640354153000409 1.866388467367779
Ni 0.42535511842136775 8.811691176434083 9.25315054571874 -0.12465119502419822 -0.09933559907754505 -0.36280682442715584
Ni 4.433637571101532 6.3757545468782295 2.593246802286929 -0.7172436796230616 -0.27611025426985997 0.2689456182006207
Ni 1.0668252255154484 3.7907792804141383 7.1344152827859535 -1.5258895624092044 0.957046357711139 1.3291803730764915
Ni 8.504846923975949 7.096071783411429 0.4688710408244111 -0.5889949970555921 0.3117596280423534 -0.432218639362075
Ni 4.304784690183084 0.49805215100282246 3.192176773405897 -1.5595653573950947 -0.11819644053778998 -0.5960431621516251
Ni 0.7977903378881152 1.7886995680506659 5.752855524034875 -0.29921907237318146 -1.1144302670816677 -1.8861278547782356
Ni 7.358128005047904 0.29309453461001883 7.269234238943647 -0.24187704411860284 -0.22327434141575098 -1.7736374634862875
P 2.892989707675258 1.930707635434643 10.742375219353544 0.9043989067187522 1.5496241870219827 -0.21564407856400283
P 9.382497925755406 9.135606972877973 6.538607073275878 -5.537116198181077 1.5103927523251859 -1.4467291527279538
P 5.7312636541402355 0.8862349025033046 4.7915114901979 -1.6675730303253409 2.3784558007273815 2.0319407714817133
P 7.068034438369046 2.0669874401324115 8.522177041928098 1.4055295385611921 1.915223229482295 -0.840233942005069
P 8.454585429632045 4.450718552093359 13.669155070973185 0.12417888337347 -0.4737391272033648 -2.2035552226293276
P 2.3336583577385004 1.4725787386229368 3.966201898900799 -0.0724428884517591 -0.2069051560291082 0.37311514833169934
P 9.370088262769631 0.9853933001129805 10.628315789154867 -0.9175408434173489 0.39688602549905194 0.06837951701566289
P 2.4860565688086655 4.768254932432013 1.357998385689039 1.5902267910346934 -0.7511547305482096 -0.282882539996687
Ni 3.52684509456917 4.658908343066107 7.355559251994879 -0.24964228988631845 1.0740081545108793 -0.05037279602559711
Ni 2.5364784922558075 7.3387066465500155 9.063746059034571 -1.8572499954016208 0.7625385469051189 -1.5408179015842625
Ni 3.8754103508752964 4.927428913862472 13.005363613415035 -0.604256808310669 0.6525909766396826 0.9224218256587339
Ni 8.356015901201314 7.437766899296534 7.743041777644757 -0.2529795817896675 0.027337254362372273 0.934740495125087
Ni 1.6647728043022352 8.57368988327726 6.931641389598403 5.177841812387212 -2.0581356847095265 0.9765000955603764
Ni 0.5547695012011505 2.66960633692525 11.928399268574935 0.008247327610456765 -0.6571595698469714 -0.7647052155391346
Ni 2.2268314489940413 3.5593272694718583 5.331463948164097 1.4884224187016817 -0.3348054541182234 -1.176977750796586
Ni 8.594791028856111 3.1190060031195865 9.764595695740125 -0.632443040936898 -1.0528544032513996 -1.6572248543217976
Ni 4.760629831525164 2.9370416520232383 4.464553202996131 -0.16708571003932515 -4.226679424260675 -1.626529996341102
Ni 3.6151282863805143 0.24119383231126423 5.45342403984695 0.059023786832375774 0.8879926974465868 0.7169719140189137
Ni 2.6494866399779715 1.0923428899363865 1.3124837053997696 -0.5719287856019247 -0.7071168756017048 0.34249768055615853
Ni 0.6922921595987107 2.0042502237602235 0.41225089178863317 -1.19824874436022 -0.124392799156489 -0.2587383386503157
Ni 2.5953370991320615 1.47145573490027 7.488762592712903 1.1789425878324407 0.13140445458763178 -0.0217859855268399
Ni 5.577940616474932 6.421759951483286 7.276140239987747 0.9617003115433823 1.4592059450387256 -0.6308942083925393
Ni 7.465719311284262 4.806748480203095 1.6782563985790975 -0.02590540701185216 -1.17841731145659 0.9386825104919704
Ni 9.29154406122545 1.6545808377435764 7.742296254165003 -0.9850027337147487 -0.21589347557064756 1.1713300655925054
Ni 3.265487211382086 4.059686768459488 10.826324937976246 -1.2266679189328618 1.392856571079214 2.1421032859714333
Ni 4.199392206361694 3.127735233736956 9.113469644032323 -0.48209007027122136 -1.0247687007587771 -2.2057882257249046
Ni 5.4496067708904885 2.7110159195728367 13.134698725343807 0.06488153116473343 0.4913275297090893 1.1519573174928484
Ni 5.912322052653591 4.546353171635439 8.350700979381095 1.1621293729298436 -1.7987519991657281 0.3475601826807305
Ni 5.830352217904972 5.574854715489117 0.3242083436321462 -0.46962510503499116 0.5273702822652594 0.9085090722323836
Ni 7.80032723560867 1.017129951535915 4.559787693480723 1.7687377121918249 1.0612637103610174 0.0640124982962188
Ni 7.64988248479558 1.5511229401671185 12.5737932827941 0.3334512540831741 -0.2764869208829884 -0.5278197110978523
Ni 5.266727030205075 1.0200271124002742 8.74029645069068 0.7738526863663576 1.378592347850716 0.6180322648282066
P 4.520335345892641 1.172623500597969 0.5554404723329289 2.1663228206404304 0.5803275511885813 -0.9557314955544574
P 8.92210414748622 5.639837939306638 9.067779435430099 -0.775545243577432 -1.1788942510930085 -1.6418676551394369
P 3.283681759090506 8.270837484387933 2.2319104456624395 1.809019442530007 -0.5536289588514725 0.6801470318810802
P 2.6485240653585427 6.367478292552356 11.117288596615017 -1.5663677250289088 -1.5279289614367362 0.7670017248827952
P 4.457079094186447 2.8644144532867224 6.710275650746767 -0.2087496654370147 -0.36275257415045264 0.4212888798234486
P 1.8643277347183425 6.061926909926198 6.8073748936313505 -0.4069701492079314 -0.6296469662489994 1.5935183173017717
P 6.023801405391957 7.990416848933727 9.02942366794768 0.20266823512962515 -1.20224346734191 0.1267240183928269
P 5.610130244189363 4.604975853359872 3.0057562680419574 -0.9941908279719199 -1.1489169880046277 -1.1971801938863897
Ni 8.419621322132203 8.440326113455995 11.95123021736694 1.748061671899712 0.5993251753370065 -0.18905218700808732
Ni 1.5017107763697695 4.663947704309 12.678170344762052 -1.2429972522205044 1.9765355552385313 -0.29366600376543617
Ni 1.1267596510840052 7.559494840629995 12.527453808174064 1.198870179994303 -0.8009330875229174 0.7039333356674007
Ni 1.567496145703482 5.91354886344306 3.869656608272691 0.12377316329461908 1.1308292772649815 0.002322734595905677
Ni 2.023454531118437 0.12631526998546472 10.979085530079608 -1.352869489163315 -1.5437723562268961 0.1197776689819808
Ni 2.822306532189746 3.035328070271784 13.475275556009281 -0.13065163558200724 -2.0857570459712207 0.2853741960702892
Ni 7.473504841294349 7.369197613171336 5.541613805298173 -0.6928806773976648 -0.10210544851319835 0.27370987235848343
Ni 1.5194523477866937 8.145315866613192 1.2294710814801022 -1.1270320150060784 -0.14200999801761993 -0.8337084821817254
Ni 8.331734484575916 4.522402050222591 11.365242156376253 -0.33218370022466015 0.6817470293783484 2.4215647161017135
Ni 3.2976674020904433 4.530687741554538 3.554590836123904 0.762802342089467 -0.03343025463398759 -1.3192911389872375
Ni 6.761765843281354 2.924499870952444 6.164453375003268 0.0019424684383514933 -0.32399576509722916 0.351414266319498
Ni 1.3674599279776603 2.6003858973810265 9.243302086181131 1.4073092561694345 -0.12889505790221673 1.32179539346633
Ni 0.4550609261374286 5.296727272510609 1.1865789451784732 0.985802861018541 0.2675939892687327 -0.7282022355170942
Ni 6.440851014768625 8.667606967714084 3.9831082952802777 -0.3793924966999788 -1.940299969945265 -2.036180263484358
Ni 4.448029005362602 6.120936508899618 9.634914245688481 1.1384266299962653 -2.111777895515014 -2.212226268040764
Ni 7.343736570786835 6.620512736383202 11.008243047742836 0.19488576297072888 0.3931589543564519 -1.5938836710609905
Ni 7.8488428838291 9.275133107664795 1.880657530026771 -0.540372093841566 0.007784529041425303 -0.7080658697785354
Ni 2.2736295621092153 8.218735773859827 4.323215163043324 -0.8612411403843554 -0.07095164861821329 -0.9748414769110307
Ni 7.896131721260061 5.177056598501026 6.882221676196197 0.2569326529001446 -0.3017662642750674 0.3476866809562657
Ni 0.713855718475132 0.7055237858134286 2.5242283146726643 -1.2399605222767096 0.6250488053553558 1.1080734716257046
Ni 3.712801299234327 9.214245544482882 12.517219375088079 0.5047407177912017 1.964665543273823 1.7822941107200208
Ni 5.166449403675163 4.755043123930047 5.393687791405922 -0.7242856740715075 2.37961742513565 2.647737719221498
Ni 4.035820580101296 7.88973343114268 10.715897811415001 1.3037035689616259 2.994441981659836 1.6050515147523519
Ni 3.585845256536517 6.877161553539944 6.011277554632701 0.6751534353212308 0.6534021596870683 -0.648317031854677
P 3.733213543369862 9.158133106373823 8.840378731194887 -3.1393295583355676 -1.1644762758954654 -0.3864740861371086
P 5.495989655738459 6.783961681564654 4.829536018767162 0.12230943426489903 0.9635293943323213 -0.07316845376387399
P 8.035563485986156 2.006279180065883 2.458842130695832 2.2896298429319084 -0.2888228167405219 0.02597251280436172
P 0.16859777569478887 7.150042021141957 2.507169982495413 -0.3133421420381249 -2.115743307920666 -0.5693026608329873
P 5.474312852789163 4.5238836601760255 10.549159125916558 1.098734453612966 -1.4063962574368618 0.5577051858033749
P 9.067632218135364 3.9808311457149035 5.348080628457139 0.14932427229084605 -0.6081659135570882 0.23095448366882806
P 6.851615578100788 8.443544132526831 13.510689808698796 0.8405612434375008 -0.08018396584975868 1.9744056533797223
P 1.4070292944410452 -0.008650903466965171 13.339213746151795 0.31282920695744837 2.5035075736241077 -0.16754259507108563
