# total energy = -340868.17345173 ev
CRYSTAL
PRIMVEC
9.27885186145873 0.00000000000000 0.00000000000000
0.00000000000000 9.27885186145873 0.00000000000000
0.00000000000000 0.00000000000000 13.58053761995955
PRIMCOORD
 96 1
Ni 1.0932157777403693 5.133181517689001 7.364847476372004 -0.7241638037816626 2.521266954490058 0.2887066028776318
Ni 4.356495216141211 9.041907175813467 4.089344078426821 0.10234404688656568 0.27816970790205 1.1834479319019617
Ni 9.303348108044643 4.757824120203634 2.7814574216534322 1.8750019200684032 -2.4574750568450776 -1.1355261685200186
Ni 2.8205575758388717 1.166212505943899 5.432799358337695 -0.031436364132410376 0.10349847220598304 -0.09646624794955
Ni 8.025074907234336 3.0868791841899226 12.202425184761093 0.08120058003973112 -0.2293336602359534 0.4469333198644303
Ni 6.653122417248634 6.999557633240371 9.781544877339513 -0.412106184882916 -2.5394852772702974 2.127721049107832
Ni 7.441462956831716 5.686535131918785 6.344147782304729 1.4681952930215296 0.4595443237602214 -0.35966287948153547
Ni 7.1372279594582135 0.8309694411608949 12.139818914958774 -0.06982961919862812 -0.7293744014483245 0.12029394649676703
Ni 0.11854197294574757 5.664293723821181 4.71926399520104 0.8587939643954434 1.03487185063105 2.2073080048035405
Ni 1.130674503017813 0.9211422521885704 7.5887777217548775 0.5952623181215426 0.27948328450715093 0.5543072158654196
Ni 6.187815829067318 7.578622946192918 5.028139346429199 0.74980387294727 0.11461515094443486 0.6280695944595506
Ni 3.5111546890973084 8.212507716400639 8.023286872465706 0.00999979152518923 -0.15444899511192112 -0.3372091784637095
Ni 5.70084312160861 2.6658419986092214 11.604175845424818 -1.9475733636782262 0.23366339795955887 2.19321861659001
Ni 7.379294648840912 8.992590077758077 9.670659813013769 0.6975747404392244 2.103692804514035 -0.005609375766977436
Ni 9.007890904605366 1.5515910635233077 5.577607905352153 -1.3171802632918217 0.011420326021799687 -0.05754771650748153
Ni 3.021695249318968 6.633878078327301 11.26308710392029 -0.3110895985585223 -0.0548737692197442 -0.3165357092747581
Ni 1.141911192715852 5.175567313346015 11.856461334447856 -0.42896233720830645 1.756090969962092 -0.26924926548396855
Ni 1.8745878995173175 8.917978829317173 10.120950435102321 -0.2633051320853917 -0.14219331767301963 -0.27824324145246276
Ni 6.187231261395166 7.357238817782085 7.748674609907225 -0.9498652665816673 0.740394406707912 -3.0404017362194025
Ni 1.1631319271001757 2.808745597320619 4.248018941778811 0.5524400807496936 0.955926899394715 -0.1958345000372434
Ni 7.5991848820895775 8.881596450864645 1.2053497755370943 1.2886477030697676 0.6129288821633703 -0.10489689521540645
Ni 9.03636770120593 1.3043003804989939 10.694279561786226 0.4665287254978546 -0.18113113238879772 -0.1266934222652076
Ni 7.791786011785862 5.585432761192249 11.539681329252925 0.4660260748298232 -1.7802878789232695 1.5937232342237262
Ni 2.0862570699480947 4.2450469255027725 9.672969319261368 -0.2584963978428387 1.1100527068392625 -0.7869735400190319
P 2.364910272525978 6.660981604840904 9.043334263241674 -1.274869932559385 -0.40188759247870137 0.08567609931258148
P 4.493376839944246 0.1935234475790137 6.5274041802133205 1.1416914167904662 -0.09211851250381554 -0.38477767227129217
P 3.8377238830878047 3.2581482332786162 5.161907915406723 -1.059991528516813 -0.1938444661904081 1.1204006257324897
P 0.3797017559631736 0.7440414446562617 1.381426197815346 -0.08831173716321566 1.1428121606584707 1.355666078071846
P 7.289957862372934 0.637015454851915 4.390194150613002 1.2882409545496523 -1.5949727903601112 -0.08218711232271653
P 5.560741736182768 8.724449814426997 10.895801379736593 1.2193729279333452 -0.4640280705631879 0.45084293933148156
P 4.1581133616869765 8.503984292358117 1.6466677478007055 -1.0197635342347018 -0.017818259128343505 -0.15166551882951299
P 1.5183078216183805 7.970997758134276 12.15490725609666 0.21345298444995497 -0.759843259461143 -0.17457019134182838
Ni 8.542992585909362 2.0516933464755955 2.7136763361247724 0.7352198044855079 -1.26723015662594 0.4677926798119428
Ni 5.065362388867392 6.076172682538162 1.2450938820470958 1.221667894615109 0.08296435680837325 0.4116816957509878
Ni 3.702781539340006 8.992283875644091 11.781265518334799 -0.7053181318300692 1.0093446528942231 0.6934632893740121
Ni 5.016787598967116 0.5333047988453465 9.045629851211364 0.22916319609636018 -0.05353705268619166 -0.43693275700829265
Ni 6.226508641652638 1.249211836537591 2.604244340012662 -0.9384865924310803 0.5575316363399881 -0.9718857367168166
Ni 3.6654898333974626 3.76528388600061 0.5881242561005207 0.23769488771645514 0.24590853387549905 -0.32046949711152545
Ni 8.687742676156606 3.6170356685723917 0.9283491364895342 0.42729754791137375 -2.066094791655603 -1.6275414683247518
Ni 7.0091334084413415 2.7218491489125785 7.047552494894465 1.6940088559193662 0.6070734518238577 1.0105039633096466
Ni 0.680734621532552 8.024434666450551 1.2226798873034264 -1.040176293563099 -2.578989248902191 0.544966398080468
Ni 4.3731043611118885 5.973195983719962 9.188374781554606 0.522200822249178 0.7517198590230603 1.252057819760876
Ni 7.019961828654068 2.4996113661233648 9.813215454777456 1.2792276953074486 -0.16860111824258703 -1.3266990014155344
Ni 4.746299786095488 2.9271066326535577 9.371399208164725 -0.371912900493482 0.6542717067762152 0.47332055160870745
Ni 5.583864635214571 6.452467244069362 11.860535678334237 -0.5857404946740363 0.1056402011393342 0.09541312409468729
Ni 2.7241039099337376 6.805611070012942 1.167689699172576 -0.26813289249133826 -0.18999963852302115 0.23287715461283764
Ni 0.18371384530918125 3.2016493038224967 8.4725985756747 -0.8455795225876986 -0.7713193784215426 0.6084677610682231
Ni 2.0498654126436273 2.1628354350000496 10.896045413542586 0.893005834390462 -1.644301718502226 0.3286774868436146
Ni 2.0776370164968325 7.2724393899122415 5.840500050026577 -0.23354101344908168 0.9314366275628346 1.1030389945255905
Ni 5.676810895086792 8.577723328716761 13.468593195331879 -0.5188211071436678 -0.8588973227425272 -0.47091862703543413
Ni 5.82895623032936 1.8982768085173953 4.946140276074521 -2.0378643360549997 0.5610370783900854 1.1948564308492198
Ni 6.03679323490936 4.264040735421754 5.533988022387263 -3.9082387846537205 -0.13279902094231322 0.4394303266191658
Ni 3.415044340713914 4.028200155690075 11.58429404937528 1.5454122058231643 0.5359433686462511 0.9867999348244876
Ni 7.962618954833426 4.838939843853724 9.486182318190014 1.8400099773742506 -0.24656956449826567 -0.473825516269584
Ni 3.5529373593782916 4.447390849734929 7.723903786771069 -0.4606902644392066 0.08992998949292899 -1.1402922224500942
Ni 0.46257303840010844 0.3299624701445615 12.88757746770177 -1.9093572576198212 1.100004578574641 -1.6783084144649743
P 6.502489534872111 5.406146784028324 3.6196346750004844 0.11704150099774037 1.2809030261273424 -0.26475986225404724
P 3.9906115264854862 2.474818273742555 2.405873620180754 -2.832870002349889 -4.010274299160932 -1.5507356749186068
P 1.0049367803934284 9.170057399941973 5.429227000341208 1.001930876928655 -0.7953946742031914 0.45151733969068697
P 0.329776893105783 3.4832439024650195 10.930105295354803 -0.09781042068227026 0.376495634768158 -1.5360744733620062
P 1.6868210516812134 4.572608956650734 1.1859059412990753 -1.344999085276303 0.14104480589087323 -0.7834796679331604
P 4.751486664329347 5.897610455825472 6.515399201574739 0.4542437374829144 0.7599856985762782 0.0748682100638001
P 2.8379647020762966 2.1906348754090716 8.866909884015714 -1.2779375157411155 -0.5392323238101681 -1.4057658229417147
P 8.472232061023114 6.54792807281703 7.961943454412272 -0.19933454277070187 0.3187142049833156 1.2316304051444595
Ni 8.183446352127923 6.568833326235431 2.7338977381552736 -1.7237637185842958 1.8071772471149457 -0.8091333639455227
Ni 4.3740600828615985 6.3694679134756695 3.918799707674557 0.5372119509460297 0.2870148169975057 0.22684251838298355
Ni 6.883516310892163 3.6970286511378716 2.1376990250974996 -1.5118533960311125 0.5308235309211825 -0.08699404679305663
Ni 4.451167342474072 1.3239901043133948 0.7741336893793922 2.042407218230676 -1.0401127873150153 -0.0614917887568941
Ni -0.16216927899218928 7.179279716445426 10.163687899247819 1.4580584616978438 -0.2254844616931923 -1.364105981309083
Ni 8.573111739303116 7.813702660065605 6.032936944043542 0.19450215437906504 0.18375700004741902 -0.19333950152953155
Ni 2.7619801835484328 4.869216737730439 2.938108567397542 -0.9747054655537989 -0.15126571228793304 -1.558692210761522
Ni 1.3213177949549841 3.1717342851713997 13.039054725604732 0.38258657815724434 -1.0016490840221781 0.25091755705431623
Ni 8.949489810501767 8.742088911962895 3.689098944270865 0.11773492752033915 0.251320963140322 -0.5596124301284169
Ni 7.094285432684865 0.43107319183784293 6.708758413474433 -1.0557175837318076 -0.9366474823398127 0.2949047612685437
Ni 2.633356737971042 5.143880033974584 5.092484473084873 0.0270559756765276 -1.3375793957734643 2.665576290064816
Ni 4.586833436673108 2.391921010520191 7.167631045721298 -0.19835263847340676 -1.1513019432970366 -1.4480967224994414
Ni 4.807401026113315 3.865430534977437 3.303995040708849 2.9198540218406164 3.883333793881925 3.0035097482890594
Ni 5.853044129962811 8.05035049991597 2.678557737306326 1.9037010877753082 -0.9529822149440942 -0.27494554453779746
Ni 0.8924251333227887 7.910518201196357 7.942088567033359 0.5781624252164623 -1.0225202710442325 0.05342212437488219
Ni 1.772733941783728 2.384525765524867 1.90578432762118 0.47684347716030134 0.061525984428939196 0.029127770603891767
Ni 1.763603551475825 3.110790785636534 6.669850331524129 1.3448515039548452 -1.0777110572837634 -0.863555647450145
Ni 6.181849527270588 4.83206421456698 8.203744768629518 -1.5416995328582674 -0.9209177303093818 -1.0148244450618715
Ni 7.747201128219323 3.6652764198028667 4.31001466312355 1.3511568773475826 -0.6001584698715793 -0.20719929023075928
Ni 0.04259271405525147 5.664098867930463 0.3998517108337451 -0.3719113578315853 2.004924905014502 -0.900893721778971
Ni 2.293258977853592 9.13734016800532 2.9063164369992003 -0.6554446440383938 -0.20668635515008277 0.5832048727363763
Ni 7.874024476520562 7.735602563295665 11.887859113638791 -0.6678041940450112 2.256340741861475 1.825842941845249
Ni 6.554265528691317 4.522827915998397 13.386105129480022 -0.4139679206820032 0.5013250072414334 0.33168901997642875
Ni 2.419469921926862 0.0830104652160187 0.48084216998265966 1.4360912133981332 0.3289240556367819 -0.7963251564372609
P 7.298151088635005 6.8420212850212865 0.2776891298614287 -0.3898815691567608 -0.6147991026028895 0.3948353136176103
P 6.913756089361123 1.9870104696093434 0.42998292673501914 -0.3642772383250952 0.35014748379193245 0.3885425386303631
P 3.540828457597993 1.9733334418513666 12.656979439315581 -1.2756304648744934 0.9144172101867025 -2.1259156204679774
P 2.1011589061620097 6.948709524615056 3.753199109235353 0.0223948227554324 -0.27994299775238884 -1.1823791243178152
P 8.425670781993583 1.244349718121594 8.606353226374317 -0.3967045056158652 0.13330655670635105 -1.977092970403898
P 3.896626035196106 5.838300034231858 13.088555544928514 -0.44952653451290325 -0.9996035143470591 -0.2914664250109561
P 5.656944873085551 4.521324741984291 10.456321548042084 1.064416397057386 1.487042764745336 0.3992704665708285
P 8.996320176237525 3.6887797517641663 6.030573620454698 0.5952654034453361 1.0859558137910588 1.2024378427409033
