# total energy = -381160.4053183837 ev
CRYSTAL
PRIMVEC
9.33992365507439 0.00000000000000 0.00000000000000
0.00000000000000 9.33992365507439 0.00000000000000
0.00000000000000 0.00000000000000 13.66992236316266
PRIMCOORD
 96 1
Ni 3.44004335640766 2.516502355948962 8.881006597841445 1.339182735704842 0.18278949392782715 0.4509421839135072
Ni 5.777686172517987 3.595618466334143 6.794689921971843 -0.1340886862880142 0.017154400292099487 1.4967116552936675
Ni 1.7468085795227442 9.16463206239914 3.553113407334057 0.8123747537009558 1.0519599164615885 0.05706332067189526
Ni 7.48301615066092 5.590682219168162 0.6864629139006811 -1.091638723108449 0.9896384327145472 -0.18821580714972103
Ni 4.8724701024594665 5.3533547566459845 0.6382362176105092 1.2836301952505182 -0.933618979926134 -1.5332819982185335
Ni 5.793862920455351 4.320732786695097 9.81389686197526 0.7960292224633968 0.32662703207248905 -2.27078314253905
Ni 6.955926893676402 2.227693233709261 3.5945742628587403 -0.24195983364039622 0.986929004203184 -0.9120991035764873
Ni 3.2858505551963795 7.822092742530466 1.0266192009558848 0.720965608559339 1.607345452992851 0.3176919343663883
Ni 3.187893434892066 4.336059601571086 7.527848718659847 -1.8949840196172847 -1.1526767121573762 -1.2132624441602329
Ni 1.457859358426773 3.9588667808722207 9.756866353557053 1.064093980720961 -1.1359542571963726 -2.0159544233557862
Ni 7.8404456927018975 3.087713412734928 8.295975255880586 0.6880022662594409 -0.9306200451988103 0.8562331456468028
Ni 3.2529273239728185 4.205767665239548 3.63395791934112 -1.7965794169944416 0.9203474596282085 -0.9245900369546464
Ni 5.75594283002481 0.38093532814603737 12.400656926359112 1.5772002968680388 0.543127030878884 -1.8025924559577409
Ni 7.200399397868375 8.85530312767769 10.096454773248173 -1.7096892427691008 0.8502985253299227 0.0900469746867675
Ni 4.180250993550819 6.191482154398451 2.4355158771008782 0.09034933641853472 0.60661836656431 2.055332668043093
Ni 7.8844273936470755 0.3636452612975109 8.078199989739515 0.5938528393685256 2.8410792776335585 1.3885129493985378
Ni 2.5319786096049737 1.5293377948959672 10.896240850008912 0.8723503629236395 -0.3619023103350154 -1.3251661097107756
Ni 8.514722808084175 3.288895370339324 1.7060612941726652 -1.348847769598432 0.8475870399360306 1.0997695797456994
Ni 4.8501757044649585 0.7303754994100977 0.7055882757663507 -2.208296336858739 -1.9995412721050854 1.1633658164401062
Ni 1.3080283016073795 1.9145816298685092 7.900026000304229 0.012584264422913811 -0.019148805014308958 -0.7764973230780562
Ni 5.458625037247615 0.49607884214523723 3.023705047282075 1.2815136631281476 -1.9924684244187043 -0.9493911551587261
Ni 2.4835604448778983 3.8104740723105373 11.72772756197416 1.2591748904216313 0.24339656608692278 1.7574315431503862
Ni 4.802999749596816 2.9124123838455627 13.499335507041527 0.4586981737098423 0.5023416214314058 -1.0917428527864812
Ni 5.772577234225991 8.17120975243273 8.086510653893479 0.3781565674103487 3.0059749220001004 0.549231601114725
P 2.7945985856458475 2.323941147967075 0.03634351130131053 -0.7596967065809497 0.11406699175044872 0.6618158376720602
Ni 4.601201357024829 7.600316253054311 10.382633772959489 0.04359793919560878 -1.3901317159488833 1.133321447559216
P 9.316069586103767 1.82267678015508 9.485627495878417 -0.9763301456414154 0.5130754629091422 -1.9084776832283457
Ni 8.368366202900289 7.689988860991163 11.62610545558981 0.07155945740554127 -2.3010733088821596 -0.1827578693589433
P 6.502314816843871 6.172419370021916 7.1137454532879625 -2.1659631233081664 2.016318234453108 -0.7464364991369339
P 4.10066550326544 1.9039527966394563 6.612196217801551 0.2823629200477911 1.028927460122157 -0.09357992754069044
P 2.0880520337026067 5.243227715693642 1.782502966123335 -0.020484750216913112 -1.2059936784129617 0.2935338490629461
Ni 0.5503531390644177 8.34935011814251 13.387884998893616 0.8200438402104393 1.1819255817201646 0.5923603139833992
Ni 4.96557046241307 3.3822572481579662 4.695276805018075 0.6675933635857857 -1.2240765040566015 -0.11544381749331731
Ni 8.961787598367 5.526983939183855 2.530002281739185 0.7513413926377189 1.4678111702092334 1.2697804338516196
Ni 7.342198120261593 7.580991950812736 3.156685947661631 -0.05362858395873345 -0.5594352811206043 -2.6785554759333032
Ni 4.5053457195645725 7.5272500295473845 6.50796266873632 -0.7367850920900988 -0.6224769308631215 -1.0394234745574744
Ni 8.853379103384908 4.9219156587991915 10.059764750775685 -2.223040585047449 0.4691350527724501 0.36305082211716183
Ni 3.6479220393417853 8.871134298436253 12.328288395156413 -1.643897541085272 -0.21265002893268536 -0.07714877856786068
Ni 0.19110324588429906 7.75764726864605 4.392009480811262 -1.6059467728731116 0.7552219586390477 -0.1490910732341174
Ni 2.679259867240244 6.025670488040472 13.53620298806529 -0.7176545419082351 -0.7014195681066114 -1.1634529768372737
Ni 1.3904064290944167 1.027242173870101 12.74505634077456 2.1966142725351205 -1.2571948838771252 -1.049697859900289
Ni 6.636884438253534 4.72700079003196 3.387529635115612 0.6876068305932352 -0.8561598692067061 -1.3669501356260974
Ni 3.8841100311662973 7.745570747235535 4.244483517173705 3.120894748669148 1.2278508834973694 -4.108851165695581
Ni 0.22797352888518654 9.228199583450927 10.373243413619868 1.0734880203413513 0.17615450510981276 0.6952736031098736
Ni 7.46255237772168 3.6103475260900453 13.175727696888991 0.6752940746641533 -1.8346898507129177 -0.36694964295093574
Ni 1.5169156963066521 7.045281944205708 11.379143861718099 0.5198014687790661 0.1749381162042084 -0.25136647166627674
Ni 7.814770242309396 8.121904294949275 6.72281360475084 -0.6612957035025321 -1.183534063857865 -2.719856648674935
Ni 3.232089954083524 5.786213522902983 9.660384007213079 -2.056419473349368 -1.2880792321608074 3.0574964869181604
Ni 0.13959543438027272 0.5491669687479944 5.986824811166171 0.4124900505848961 -0.1075585012079696 -0.4663811441763968
Ni 1.902383689449227 6.6421521552493035 3.3769764552689447 0.24299418844218149 -0.20668969758419242 -0.11244668253820633
Ni 3.1005931675880594 0.36151482468982465 7.967281857245432 0.9048136256586674 -0.05343343722879184 -1.4078517589364659
Ni 0.927612273221918 4.776726544084227 4.931150975404542 0.9662136260327036 1.3981170481472052 -0.2250787416143414
Ni 6.945055222429814 2.4847839748893277 10.924646360113938 -0.08097432296153798 -0.22290898765653222 0.397487920749109
Ni 7.519058916417437 0.16945517061338583 4.463380508157316 1.6133273816078988 1.156131760585512 0.2575517745413823
Ni 0.3398004359602767 6.852244400112502 6.404263363309668 1.8713861776926868 -1.0861869559652582 1.4285843634981268
Ni 5.84915526906343 4.69660867814502 12.218928161944058 -0.35239025707952215 1.1884093896722951 -1.719891380113083
P 8.891327213586703 3.868895295375324 3.793389483784541 -2.307238300042291 -1.3209474436437378 0.46170430752601777
Ni 8.09462237767154 5.061500819263338 7.1706947043695335 0.6131178582457247 -0.752473192249317 -0.2589363135937347
P 8.277021748611942 5.482908839001165 12.059797343045432 0.06281050756831764 0.03404834783396071 1.325076121100131
Ni 4.611195075438789 5.801540337778973 8.082369331702123 2.498828937201516 0.5795122543761374 -1.525663048220695
P 7.9448660402421565 0.7984812894126744 12.049954931396243 0.2851613087285347 -0.6139439536914458 0.29933400068449095
P 4.585426225808774 3.109157877668061 10.863405414068612 -1.1577605544381868 -1.7561387924808916 1.0875743232310884
P 6.181049459568177 3.49794154374237 1.5173201150050861 -0.33128587100073914 0.8324830944150566 0.40831637882318067
Ni 5.103586515686987 5.795824304443137 4.644999061472104 1.7800713920370892 -0.13594296588793361 0.5131659657404195
Ni 6.893928479814844 1.6377369499543066 0.7003990141300924 -0.13334100948871228 0.5157139289732537 -1.5352036407212786
Ni 5.567593927654789 7.356506883448685 12.792969215626687 -0.5739725555048308 -0.6625010366645429 0.18323326633346507
Ni 4.014812924142896 1.0683378383761057 4.518128339210691 -1.3464854400138422 -0.07218397836341763 1.2141152790788314
Ni 7.531499694854255 8.267896643106857 13.638030572772168 -0.3168684100238285 0.745913022533296 1.6319894767937766
Ni 6.110635774406638 7.914128351176415 4.9938685633949556 -0.4653149076954115 0.0678580972945541 0.31514679934703144
Ni 7.954280683383532 0.33616907360574616 1.996738401162639 1.4605357195937425 -1.0790346611911934 1.87034925178774
Ni 3.1226353876412807 5.7204791395408785 5.428380496155946 -1.7911078523569088 -0.4969836995536021 1.475446575267304
Ni 6.144259499911551 0.7330084239156074 6.301628809190671 -0.9663473233970906 0.3521426598450903 0.5949666412579947
Ni 0.4301912840336097 6.29460425253727 0.5181789697257165 -0.1896437978454992 -0.39872359292842297 -0.10160716872054114
Ni 0.24566801443214709 2.44736824034136 11.40108427660243 -0.9876645968176281 0.9029488045357867 0.8995852873801927
Ni 4.633909770002108 0.37285442611635655 9.822399928558502 -0.5343829661376668 1.099225020096139 1.3325539175344148
Ni 2.0963365460700674 2.5867852821779818 5.46669753334592 0.457883905338663 -0.2515011974719282 0.05073917822608036
Ni 6.395494108899512 6.583226576301943 9.36723275442137 1.1958941280851145 -1.9433320719033693 2.2948939195443248
Ni 0.09990356041409794 1.8447843796745604 3.6415307295187263 -0.3541979997122222 -1.6136960778012273 0.9150059928106371
Ni 0.12221290228660778 1.6524006302439491 0.5854581764762973 -1.535864157123413 -0.5970070687267911 1.1255880834707002
Ni 4.201714138331456 2.428791131999896 2.3218499390391445 0.18362818777903858 0.3118413891228823 -0.12614757706406662
Ni 7.782528825519686 6.162266872904182 4.909374943178234 0.25212803242264964 -1.1110533801896347 1.1089705295186771
Ni 7.791579211634758 2.465814589750306 5.8348558458000905 0.8562295461023771 0.5225690042218742 -0.027230039360546653
Ni 2.3306658930680575 0.7334268524996685 1.46030268248013 0.09784204525115409 -0.4604537229483683 -0.5623377994793799
Ni 0.5837433664755468 3.9023228824814584 6.946193759135105 1.4248251535660106 -0.31675579570536416 1.1884662110521595
Ni 5.997856195108909 1.7241312446544306 8.847078390822237 0.24631348262340158 0.8886619555994696 -1.3907294974338824
Ni 8.470031272933893 7.008426605082823 8.616029225045727 1.3287278589201053 0.6232968556612555 0.9751137567358109
Ni 2.7144246801641323 7.381649958187358 8.051488741802986 -0.769240641515643 -1.1357251719047021 -0.4025491373221003
Ni 0.37907107936526496 3.9864475757100006 13.382594866080845 1.3490807115448444 0.711570283387368 -0.22283879654022914
P 0.9123106761400571 5.742334561119072 8.48262429212786 0.8255195186130299 -0.3719360404219336 -0.8002692286866734
Ni 0.8685484634030375 8.831178104627915 8.104268650921949 -0.5337851846526678 -0.17656176785056044 -0.43640748063244195
P 2.6972765801566267 8.642044648662779 9.870203526302737 -1.3879779028306742 0.020571653503764574 1.2421379895440028
Ni 1.5868997449756284 2.8958433591106414 2.2846947883638404 1.1646637093159231 1.3721357935920948 -1.109769885491521
P 5.810179767248985 7.787394925794147 1.476611123342388 -0.7176069764997512 0.13999013937411373 -0.2439231280143541
P 0.315780954048892 8.230079291837582 2.0797012078765116 0.19131707178286408 -0.24249925108363396 -0.3978936408279599
P 4.080734105980028 5.888242849962892 11.958844909194054 -0.3981785190582304 0.4973729645722209 -1.2651691603318533
Ni 2.473744185015214 7.954364742697294 5.57523678726053 -5.145305273212087 1.739863709469952 3.4138791529865267
