# total energy = -340870.1948718298 ev
CRYSTAL
PRIMVEC
9.26609156332415 0.00000000000000 0.00000000000000

0.00000000000000 9.26609156332415 0.00000000000000

0.00000000000000 0.00000000000000 13.56186163380877

PRIMCOORD
 96 1
Ni 9.028443914620809 4.156796382246104 9.320917895689988 -0.6765590574195058 -0.6616029503303057 -2.0395952027031776
Ni 0.8751628701340425 6.451432714385347 4.2518201491400704 -0.28726858487952467 -0.25189843291034686 -0.46317497853427325
Ni 1.266127989483998 5.298267644667741 10.493286939750623 1.2541823223030464 2.554574310392936 -0.9455100749367653
Ni 3.931917611036971 0.33131465622173456 2.610156935638329 0.6760553783102099 -0.054091896748397164 0.8017892648756256
Ni 9.087098272927859 1.5449261463153627 9.129071813569135 0.6551109148480588 0.04882267792965785 -0.3265457852125924
Ni 8.197822219043822 6.063331743874682 10.912267159717567 1.1865497107557372 -1.3409886785653293 -1.8695894908035802
Ni 0.9615052360330832 1.35860358125404 6.801354608666543 -0.5457392716907504 0.5692085584572842 0.4405616120101316
Ni 4.796193750432475 1.2149976973610428 10.002334208365298 -1.0978121989090126 -1.1990486145536963 2.2578283821505956
Ni 0.21335268016677278 8.45442808706865 7.97208262794737 1.1094868070334634 0.06464781788737253 0.18714262869020026
Ni 4.62501197865294 9.106195687220248 6.350219198463086 -1.130746487743188 -0.18232206737310536 -0.8738675708991143
Ni 8.977332154680573 9.086134599426448 5.314622295917652 1.534304783056093 -2.1073059757865904 -1.2437338732762129
Ni 2.6344702327571072 0.9402302902711579 8.806652605052735 -0.5490158855594932 -0.6891106688322712 1.18647514876406
Ni 6.086339448720876 6.048385538511448 11.784240641205592 -0.7952614910594368 -0.5302470895924223 0.11713406071154664
Ni 7.527401976985097 8.768391060610165 9.467046936260239 -0.19796568744763324 -1.3257209537729813 -0.1394278391127405
Ni 6.631556264327015 0.49928665395426086 5.382566837421962 0.14890518247555645 1.2099446926409099 1.0119813191861218
Ni 8.188009428293874 5.265891921456866 13.269454241580625 0.0015943410703133831 1.6756102988075208 -1.5288447883827863
Ni -0.025647614274579063 3.675663854483814 0.7601586304411044 0.35945179191199383 -1.9295450454216059 -0.8725357394615683
Ni 3.4652494518872095 8.642937449690866 11.55033855023036 0.4038280040345239 1.6383858672384237 -0.760921065906354
Ni 5.733542286290758 6.257947460702957 9.026679650825917 1.210213372921264 -0.7485967400130463 -0.20409005517781625
Ni 8.904509942684504 6.65854838845789 6.346313540954963 -0.5862950816259258 -0.6755157037566559 -0.48029621159559216
Ni 5.644495148323815 7.4528655380874795 2.040517483035366 0.4703475850233125 0.5043419396908861 -0.07788977049894329
Ni 0.44703331155850734 8.077557619285969 10.37147397612656 0.5089974361850267 -0.07124398304765149 0.9743935907403349
Ni 1.8115023286432523 3.1032325285541664 10.832848417282511 0.09221415754141538 0.05932820544667203 -1.122190627753377
Ni 1.1804351765892738 6.110894590824143 8.070690518979278 -0.15541547279024845 0.23969366331403882 0.7838985006381338
P 1.1462710977459727 4.682369084169629 12.431330718438806 -0.088390412919951 0.7775918416938157 1.877956631821353
P 5.1200251112720965 1.926948560894049 5.839914235272977 -0.4141712949420609 1.7240321417543343 0.4469975974434624
P 1.8285056062883451 4.351680815723812 4.759942021205827 -0.8591374637777913 0.6604526387759464 -0.673318438995021
P 9.039702215622873 8.024147868688521 3.1335493262649106 0.10410011034572393 -0.5823301834409067 -1.0855045851862533
P 5.409090097330035 8.171450923034048 4.342046860537107 -0.17292314265670863 -0.3827542140833602 -0.6604991757431657
P 4.715152515400331 6.669445311896925 6.969847360733486 -0.23075188073971872 0.09624796129115683 0.405771758024456
P 4.046585491613551 2.5359902137859645 2.7359431992374414 0.0975427688431804 0.24086917167937869 0.223052455212932
P 0.2773767384167833 7.8907624835653 12.770838452640808 -0.03856320498517874 0.04721548134353804 1.1710469871344475
Ni 2.344617628933592 3.5431402158570466 13.805296552558133 -0.11225050736700022 1.3158463749717468 -0.811399277161564
Ni 7.6953498828800875 8.08790784333478 11.719672663392767 -0.86257374315285 1.3518991548302457 1.197022842372919
Ni 2.1073778918505877 6.941923994420959 12.19523256381132 -1.1490414293976339 -1.2655705095353302 0.11263977238561892
Ni 3.9041471352318795 3.844946077534605 4.607804846997933 0.678709270993289 -1.5955471748063423 -0.11119044153360207
Ni 3.102509773428108 7.621647392204846 4.371774334837372 1.384030231036836 0.455030495050268 0.6014663900497255
Ni 0.7045528161914028 1.5777373758201443 12.980599595796551 0.3287849589557563 0.2754286548218031 -0.5172061972480642
Ni 3.65233183644003 5.0156981886529675 11.969359540999289 -1.9944594867068042 0.23900152234302066 -2.7546017654656043
Ni 6.726997005332168 8.013037825148213 6.946724756354431 0.475255049627259 -1.4680572247817685 0.6247199612610274
Ni 2.6227578932784166 7.951659235981403 7.017299941195766 0.013771856973111766 -0.9534414139687 0.6704354610202712
Ni 6.834020360536977 3.9284150285029957 10.451733153047943 -0.25958268892848196 1.1561682702504024 -0.7296088860566338
Ni 7.473056351160317 2.9771951538792054 6.326716684338283 -0.43110432325197373 -1.5205167281330652 -0.9692647541542017
Ni 4.3483357567429515 2.8732574070971855 8.629711030883996 0.8665322135799657 -1.1025124325981595 1.5190861663341255
Ni 3.661245816328084 6.592027118586434 10.148150981656725 -0.22137558173114133 -0.0411924150779097 0.2338670293299327
Ni 2.342884869849324 8.77218089197629 0.2747145903691347 -0.13331375579520266 1.1944571385282718 -2.034076072657162
Ni 2.936785729459451 4.601781887614113 8.630999017582997 0.1667481241942483 1.6327487235573042 0.37202165815720445
Ni 4.3316660583868085 6.902144664213665 13.232077608862907 0.2843609243144264 0.6931645271866708 1.0582218382109
Ni 2.2875941027058526 1.6487712321837857 1.3426306929681484 0.2775228183466704 -0.4521878833951502 1.4896961432077829
Ni 8.086573526178979 7.30766588648061 0.9062663590012269 1.0654191272902878 -1.8582465549869354 1.1423367636839488
Ni 6.104176674588344 2.7871661522739934 4.108158668698915 0.42644599854435594 0.27653242940894307 -0.6423099064286487
Ni 7.357007822971139 4.926586188046506 7.451510835530688 0.027620332820429853 1.4329074163535127 0.5081739118424667
Ni 5.661600352973864 0.2851676680320389 12.198962165583609 0.2022712568015226 0.47713863980321697 0.8374769480852222
Ni 8.139862817588751 4.676429519608046 2.7992769336811523 -1.231789556430143 0.5611689759822595 0.44108328884155645
Ni 4.724047963105666 8.422246951776328 8.61915973265268 -1.1831959637921556 -0.6887442866317881 1.179431354543401
Ni 7.221324447190706 -0.02394172685525394 3.3172588535627914 -0.0008556631320759457 0.18715934086074862 -2.6445796332084908
P 7.78377619272593 2.481626055778466 2.3816254712151923 -2.1034660332152098 0.19111575440533535 -0.1760058953470904
P 4.6188778261728025 9.114525903352641 0.5510618660358526 0.0427373909675264 -0.6393729352875118 0.3244912166764089
P 0.578810103221681 1.9977229666996184 2.666139879806371 1.883037902999002 -1.203120984850857 -0.4777896431236545
P 1.6065641860402446 3.020440002255036 8.493590295591384 -1.3389731907971973 -1.0317677577844295 -1.0260354832863428
P 6.260690223745437 5.7706900465518896 0.5689157708677681 -0.2291418559401215 0.9731399208388918 -0.21257983781638232
P 8.210887407861032 0.616600930223178 7.052019058911515 -1.813888083476218 1.4635637077867891 1.4489099624293562
P 2.241930804485135 7.968143612510352 9.215840419670723 0.4688180357526635 -0.35478832499805346 -0.4987973557235733
P 8.194152846865371 6.781064648416156 8.501727777023493 -0.4822121976713824 -1.0903421157842124 0.5499201425413174
Ni 7.434166565723557 7.086669607551202 4.390869895911491 -0.08204955830358772 -0.30419415699026964 0.021130611331028126
Ni 5.200871758385685 5.887600321237523 4.339144720723241 0.3095417944554282 1.3191530707474763 2.3599276600162065
Ni 7.360454808956956 -0.004407879659820536 0.5326529223314898 -2.0529497696332126 2.3761191821744045 -0.6583939564747048
Ni 3.2281023757178025 7.558063473294422 1.799238656728658 -0.19714910508360886 -2.131702916573716 1.2914597185972663
Ni 8.874997441703785 3.4983015997673435 11.593777986524746 -1.4001237941645888 -1.162671875696875 0.9948091782822093
Ni 8.529344435712014 1.8943597175819011 4.387655488818803 0.19727303225598283 0.8385100173354268 0.11309691452769555
Ni 2.97638900393091 5.577779290533805 3.2498693509309295 0.3017927466376286 -0.15116261105116546 -0.28821037996750365
Ni 1.1057504802299012 6.115972408889272 1.3267041351390554 0.11652856591706383 0.27755212892270914 -0.4436423078179843
Ni 0.305013782506295 9.369130295643767 1.2403988336054532 -0.2849486784970964 -0.5905332880769893 0.9996644494919815
Ni 6.194595194076527 0.9368574330162184 8.291898064791686 0.8386581128775169 0.992725299169987 -2.4598849518381507
Ni 2.8312264166894794 5.527362487445547 6.226942192404187 -0.02637514755941909 1.0324496143428026 0.14655725106867015
Ni 4.78426829085251 4.267368650441687 6.972966327085168 1.211620794791752 1.0976260510401354 -1.5222062000203462
Ni 5.795736291497223 1.5808415164256517 1.7384818222920861 0.4830413784408971 0.23871792966433084 -0.4030065365744931
Ni 1.094621904506873 4.079656171676405 2.5917526249796454 2.218310783671947 0.037110531699052214 2.1859117985159515
Ni 0.46526156648135564 4.071020174529143 6.3637273064472915 -0.06635991548247282 0.14702699161623708 0.8089644424678262
Ni 3.7355784012157867 2.480560455272098 12.03567695686083 -0.9682273140286227 -1.649259576728134 -0.9042397554330684
Ni 3.2034823709750166 2.049381426030078 6.8365342511228695 0.32665454287631485 0.7645815454770767 -1.7107966169006665
Ni 5.8433917993602815 2.6308935214922538 12.633199004974337 3.376874293627403 -2.6780266000130264 -2.570503580028683
Ni 6.868990589328574 3.6393037119882585 0.7300475399585464 0.2114233556144359 0.01867057982630978 1.234390998608732
Ni 5.465344537974917 4.858656472288372 2.444213285304446 -0.5015618058425879 -1.2810390374845744 -1.2998566844117099
Ni 1.8609554582300976 2.217783370401695 4.692661858452011 -0.3717681473855017 -0.48497536223881643 -1.1323012338248177
Ni 7.083268952022183 1.676828956821029 10.480837019399699 0.3712233306256252 -0.6031286082434969 0.2986799120402598
Ni 4.627041252660719 4.001478158874416 -0.07165375787560695 0.29416634044062245 1.8344844195703311 4.74580366446706
Ni 1.6395885356462996 9.198235772696384 3.3781778445981585 -0.7138716778270351 0.6189912863073662 -0.08164795198979487
P 4.786241968312131 4.393174372832655 10.186355076332866 -1.0975651158952129 0.953217470883352 0.24374752166843833
P 5.53496068236052 7.961536889370868 10.777828220006745 -0.20872009775065992 -0.46946929618341726 -1.1030125121630294
P 7.814317229847579 1.4828433342052145 12.497567519305518 -0.14334645744085636 0.14220745874040672 -0.08228378580158087
P 2.250548269449678 0.09411105689503316 5.500433372735919 -0.13979165021006246 1.0726236154585267 -0.3893133553581166
P 6.510744965178938 3.044485509333519 8.260475822381729 0.3130161261572738 1.1993594609258957 1.2533150892067448
P 3.294104744473114 5.380624664672963 1.1256549710797235 -0.3184103005896516 0.7109735303436335 0.009934999725524826
P 1.9583791427862318 1.0856245297965814 11.17875716739581 0.9064588745715743 -1.727532955818741 0.4125597274805669
P 7.404478009007002 4.964892209727603 4.95395822192313 0.06492498280815916 -0.4281110449516047 0.705296020342882
