# total energy = -381163.77579726145 ev
CRYSTAL
PRIMVEC
9.26094942671740 0.00000000000000 0.00000000000000
0.00000000000000 9.26094942671740 0.00000000000000
0.00000000000000 0.00000000000000 13.55433559712220
PRIMCOORD
 96 1
Ni 8.929574055334792 4.386819095133609 2.6225202659323243 -1.2569118054190676 0.7104328273488152 1.203512563862321
Ni 6.663929102878625 0.36344873532108973 4.990950642976448 -0.3568012416630242 -2.0195938198805865 -0.09933148531248699
Ni 5.269813571361962 8.014712652411015 8.467000748701741 0.6780297284277613 -0.3027502254548915 0.30301530619082007
Ni -0.03246333183322711 5.387872153609346 5.82933975668562 -0.7554248186784732 0.8442631177691202 -0.14877045666990507
Ni 4.452544052633583 4.031578339216806 10.149133657031244 0.10377075203076322 -1.164553408990304 -1.095699523441384
Ni 3.643461213125999 6.3918887158754165 3.4618178787722207 0.33048034438030827 -0.9913142777550733 0.1420544781023102
Ni 1.5938927307824744 0.8279696196013493 6.05248510943314 1.0461034576808113 -0.8085772343317366 0.6753436969551658
Ni 6.784830796574859 8.040430308741497 0.6134962198202906 0.8070093756239842 0.3598947929866834 -1.949025779854037
Ni 0.7096415437280321 1.0310122296061337 10.400214663477325 -0.9535005493414094 -1.1970760642083578 -1.2326264505091418
Ni 3.1974538926809095 2.45517954174664 0.6313040993153874 -1.3455613855376762 -0.26790997784725473 -0.4564127201097753
Ni 5.921543620552219 2.612411939722486 4.863715386023311 1.0364582212815634 -0.8225352391737253 0.31501490175485747
Ni 7.978187468195164 8.125260604739776 6.791630185583804 -0.39386677905675394 -0.5604269556099123 -0.479358016052039
Ni 6.172469043049306 0.9012709597602973 12.50067576685021 -0.881150991934405 -0.7328240505598218 -0.15333879276687784
Ni 6.036953571286992 4.7933377275725135 12.068645071156276 1.1128922331705866 1.0442054693271499 -0.5219198006736496
Ni 4.469843506009651 5.016220995453576 7.174580628035153 0.17760306463088124 0.7958119642462681 0.41385350659132597
Ni 4.089977885785053 0.05621118423807229 6.68064696863584 0.6946629661090682 0.3824269126509285 -0.22795632027245258
Ni 2.079824003852954 6.28430426733699 11.698773867464574 -1.9572687365891195 -0.26166862492323323 -0.023297537075359875
Ni 3.7070468913273276 1.2515061725562406 4.7954695981116835 -0.3031253494061231 3.4189352273531957 1.1708258722625773
Ni 8.354904365642534 6.278571739692565 13.23044135350447 -1.1303554229523567 -1.3191358443562957 -3.251041419590278
Ni 4.300312567303925 8.665794435147136 3.9312998536164847 0.47912070323025235 -3.49478739859682 -0.023540506324101394
Ni 7.351128588059427 4.1749007912767775 0.4920472040177792 0.6751007277064245 0.49540761331573385 0.6951489046065512
Ni 0.7977418809399547 2.13625096821076 8.085744133885555 0.16585620850759822 -1.5246533760092582 0.3523738020192899
Ni 8.394430097446099 0.6036008954453824 12.277571162279806 0.7441836985470152 -1.3416463667539862 1.2096729270367619
Ni 1.0893006447822424 3.5538337453671205 6.498137735518325 0.7966236615142862 -0.6694018775494344 -1.5637374864949132
P 7.2487858368501525 0.871330310528591 1.4480096262286688 -0.12823916948577269 0.0481081683611365 -0.12011139817231571
Ni 6.268403217311986 0.8112248970910345 7.208968385142228 0.8701584974786432 -0.3113186838501929 1.004014241820245
P 2.6075869851138505 4.518787623296867 1.9551855170960968 1.6467884894798221 0.8410921762403062 -0.5273545985359757
Ni 6.140453941164366 3.383274841284122 7.252233688291218 0.6356548630059763 -0.27921254734426754 -0.5826312596210934
P 2.2018184895718735 8.490308706012708 4.385600354199834 -0.47420038311049945 0.06791800399821207 0.4024552920567134
P 4.751283756597822 6.53471107667077 13.05558999940016 0.5587696225121473 -0.4930180300376348 0.29093652064941505
P 6.593675541149048 5.93652783659209 7.335823017077293 0.4501564547874183 -0.35239411373426405 1.7211563628684357
Ni 6.584053414779811 2.975181847456603 9.645807542806445 -1.2054154373119885 0.0010670078119336462 0.6825453569099277
Ni 0.7216372514143387 4.529632194979616 0.42010722341251544 -0.0013554855866299235 0.772631926585379 -1.4828629223360332
Ni 7.593811765639652 2.899010539095704 11.959030622521471 -0.8057197102782833 -0.3281529817987123 -0.05021827272560384
Ni 3.8863759144398426 8.382585343234112 12.448558848317466 0.614915830686412 -0.7732340789457521 0.961093531197319
Ni 8.241809652243957 4.255860010448932 7.98922374152935 -0.020818736517564145 0.7855154674162665 -0.25926875723248893
Ni 3.222291758823636 6.704260537275186 5.904363633422699 3.565330498922705 2.5835912664505765 -2.1487508731949383
Ni 2.291927526696681 7.909350831715338 1.9924330553608425 1.2725538828316987 3.8520257277972627 0.3809050766897633
Ni 6.8935543418826954 3.194675607877472 2.6857105015966303 -2.350177265497662 1.4600929756293692 -1.060439157577193
Ni 1.5859283143459548 2.358717493371307 4.283942913242074 -0.7715150393721164 0.5151986798997321 -0.3323950449045179
Ni 7.034533773758435 4.844087729981963 5.409264020500878 -0.9490119174424367 0.10794802333690441 -0.2737507528987479
Ni 6.192204126103054 5.469850077209428 9.670910272100434 0.3573200902809717 0.6173588929102658 -1.43069806740702
Ni 9.030462837496934 8.081002527821022 2.4175652698878407 -0.2379540549151128 -1.3910783961328688 -0.8161504186933041
Ni 2.531461981499676 6.366041406254108 0.3124570221337411 0.9974692416128758 -0.8742830611699781 0.9172590505108719
Ni 8.20824797181844 7.035663609578498 4.2693170959418465 -1.0978314821827224 -2.8867780652222543 1.1650231495378711
Ni 6.001613788587274 7.208556272896384 5.76854903299655 -0.9402115455419873 0.17740200436366868 -0.72410286863674
Ni 5.430352128253898 2.735675175501642 0.392884662813505 1.8624299969406635 -1.263218464363386 -0.8010097063971238
Ni 1.2336881060168645 2.962586956347688 1.9655003624763239 0.3362537565289757 -1.8606075990199442 0.8947680684972074
Ni 3.604861576256914 1.334030492167665 11.948499070926577 0.331877481838151 0.07717731781295094 3.0476823290412156
Ni 1.9562366348467306 5.435992046404875 4.7976514777773165 -0.729131689309899 -2.146139660824336 -0.7914467452990369
Ni 0.21682105043996305 6.338925346572562 8.00238447664323 -1.4357212316532242 0.49713565175043406 1.9163372884820804
Ni 3.0050576700428957 1.0776874143038757 2.608463997016802 -1.5172645397443545 -1.0424218950641662 -0.6503520600068348
Ni 1.173630849515901 1.7551443807739588 12.42993600528003 0.9217947335976963 3.849184144583409 2.8514397949322765
Ni 8.578361812382973 1.171204480787566 5.884208103268698 -0.6438746798126073 2.095252644166482 2.9834649138230427
Ni 7.575039821317762 7.442691594231367 9.202905418676664 0.48653087965139424 0.21646348914150462 -0.3029255746904912
Ni 2.1318890610693635 5.5055880807309725 7.2854962400529 -0.26197252931689724 -1.0326815278479506 0.8845409914525604
P 8.511775586593933 3.2364795332198546 5.235388770457509 0.26900706756617543 0.4509915490942039 -0.9010431028726417
Ni 4.878464373949823 0.3484293276737092 1.1000294545981817 -0.8301657591357896 0.09556764739468056 -1.6379973735507531
P 2.0816947156206016 0.271481025662783 8.470429152149183 1.3755587032307148 1.462121318913308 0.37389110726577546
Ni 5.019017802155703 4.501784520299832 1.7101232016291965 0.3131392819986994 5.087546726245381 -1.582595499741681
P 4.029105665741747 2.933461270658323 6.355708965070126 -0.09697686903738137 -0.22214691267952705 -0.47712758405962347
P 5.206116761768497 2.696279096988905 11.654301862615958 0.839260008127574 0.33393333592591523 0.060708373623650294
P 8.741400825598003 7.82215899363414 11.43254009570055 -1.157976784214051 -0.1277149215511865 0.5248387740926574
Ni 9.068238249874334 8.957227250078335 4.425083485636412 2.3779667769061046 0.7533411966765672 0.1469586002721469
Ni 3.9994428449903845 4.400423429721105 12.947359136597468 -0.5377868496128931 0.717316698952842 1.1669797590436095
Ni 4.527140999605868 2.129453431391684 8.265230593136932 -0.42147657035422254 -0.8450431904682543 0.6103305253085748
Ni 2.558679911624014 3.769799084087625 11.422793872610093 -2.5643591576938416 -0.28956843665729487 -0.5934026392049845
Ni 4.499182193533946 4.302988981664568 4.715187354336633 -1.0150319330869872 1.6771994976715117 -0.14090596632016378
Ni 3.031645855611788 7.81400009726138 7.834812228723926 -1.103999815776963 -1.7463706573505344 1.7832991549457675
Ni 4.422057007390535 2.872339004982709 2.692988681686701 -1.3947712716034237 -2.2866465919338683 2.6790277875840314
Ni 4.91718440316039 7.3528603855869035 1.8271112181323226 -2.418942705097834 -1.4032628540142027 -2.2411871740494886
Ni 6.32558031856672 7.405999712927309 11.293837931268694 -0.17631185662328344 0.4204141905279792 0.8536191050627234
Ni 5.644039273435585 0.9163857551859291 3.0878403701410395 1.0488517098499097 2.6223658161156127 -0.2709132834499528
Ni 5.058145313137441 0.7982466026792456 10.126227624921842 0.8471923756007732 -0.3035513811999482 0.10631665838106852
Ni 2.687777545490388 3.4920724741867155 8.540722535960944 -0.3189098659338895 1.301032706997682 -0.43474757643151574
Ni 1.5614979299743987 9.041057363547376 12.112547527620189 1.1950418073871483 -4.717570380652979 -1.036621486332305
Ni 1.0693432989442198 7.561009483060405 6.276131479540213 -0.1452362182644015 0.8346281657825174 -1.3316871986587453
Ni 2.7973808809859784 1.7330477556372899 10.071101823946979 -0.3024661185555694 -0.05401244966071343 -2.9087746240980037
Ni 8.240531641234377 1.7727679673770946 3.4698147085314472 1.6557847794411613 -1.1147508836458802 0.7300521442416396
Ni 0.43721219685234264 7.895033404028294 0.2335546598110642 0.9954282999234471 1.02358702174585 -0.02619105657307102
Ni 8.900652110531013 2.92282043986116 9.87807400456365 0.25510922653816065 1.8244272924446452 1.522868001974061
Ni 3.208715207084174 8.491734892211808 10.236043962252362 0.3350052288338553 0.35443531253400895 -0.7668230332130859
Ni 3.970576465882674 6.167829307427566 10.71905340580456 1.789488057365299 0.752057444868137 -0.6041246536081789
Ni 1.049839739624092 7.510453960587196 10.022034536033479 -0.4293559731022992 -0.050164022448900704 -0.8956288738356059
Ni 6.138231313321617 5.914338601961972 3.382673805671645 0.3987994404716809 -0.6890304504136391 -0.1885726762685075
Ni 7.515093696208936 0.6203724747087973 10.144905107560414 -0.3408480607678775 -0.31096644271709667 -0.9224976732019918
Ni 6.594981335006663 8.135771782246112 2.848985669019952 1.903378928549199 0.78495470981679 2.3005238641365926
Ni 0.34306353362333786 0.8014434823930672 1.66376751968385 -0.010799404608349144 0.700691174581019 -0.9806082041914789
P 1.9197207115802233 5.334806913863699 9.46800194586115 0.18082414267134017 0.7470373659457262 0.9097388308744268
Ni 1.4020521651051479 6.1568550824539905 2.658493497567227 -2.194794959938194 -2.3036518682426133 0.2211056158992063
P 8.144578945073006 6.224997147732956 1.6721171916131126 -0.4906456731507162 -0.15508791424750065 2.150253940103026
Ni 8.48678954526169 5.618210485712964 10.69958874247168 0.42160563973291904 -0.4154735586932522 0.20931582235312984
P 2.2503180812905392 0.3427884834277976 0.5308283554940221 0.8106549427963716 0.45970553192843405 0.19319603397313181
P 0.3052973821952839 3.56711394672755 11.982615482217849 0.07219554832764341 2.2571149010233382 -0.14295282154686348
P 7.843912963645052 1.981991334974592 8.188960192618044 -0.034653071297495154 -0.8239295484180907 -0.4988125252322248
Ni 9.357818874936573 9.114107731979079 8.44655998130792 -1.9503005328014025 -0.9046750431982741 -0.9637224841797338
