# total energy = -340856.260777134 ev
CRYSTAL
PRIMVEC
9.33181176605753 0.00000000000000 0.00000000000000
0.00000000000000 9.33181176605753 0.00000000000000
0.00000000000000 0.00000000000000 13.65804979361557
PRIMCOORD
 96 1
Ni 7.547307821977436 0.9781231504903569 9.932666274991412 -1.4764148527178445 -1.3367484152317366 0.2947589797192988
Ni 5.874151353591703 6.169820468041181 8.899830713883164 0.2152861810039518 0.014641918282890912 1.1539275538453417
Ni 7.305221968958614 8.480218345921028 5.923045379761316 -1.2756566901267385 -0.8443371655401652 1.109142279209851
Ni 6.817970765137599 8.185566398921209 1.5019214607319604 -1.1035151628310607 -1.4719827850884197 1.7169888617543076
Ni 8.743739369874405 8.42200650600385 8.057702851412204 0.37005142180471107 1.8480318192374623 0.44353792102963613
Ni 2.436862586850284 4.92961339256302 9.848956193427924 -1.0831425127119798 -0.5048191364376209 -0.9948857971564155
Ni 3.8184466060195694 2.6790230943608235 8.593262043642845 -0.18106016994154625 0.052529951577915984 -0.44893620922707195
Ni 1.8965040439833158 6.523990708563243 4.924191610101993 -0.08869174621045371 4.533165719719231 -0.27122901491815865
Ni 2.0893832551484546 1.3969068535944225 4.103724748403036 -0.12026180770725095 -0.11078215035158985 -0.2370456841682305
Ni 3.5028820695272214 3.238119914649031 11.26506324911109 -0.1351297259580189 -1.679737690712333 -1.7799052987728703
Ni 5.850261916241916 0.7236857118167778 0.5861133476598362 -0.1851587654909521 0.9473530416827748 -1.5002296957492551
Ni 5.773050508182486 5.160827685225395 13.433524274611926 0.6731888553956922 -0.30316777260828437 -0.42030646130552124
Ni 6.453488872946976 4.992649779007478 6.650623390140045 -0.3076810870976056 3.1884139745670446 0.5139162136428826
Ni 0.20811805928709298 3.033221330317281 5.101158216357422 -0.4109067652581762 0.19673644302622248 0.17583491698686493
Ni 6.639154593849855 5.916228491486309 2.0542116577377714 -1.081207757583112 0.8191223568374344 -1.2252628110552188
Ni 8.079333057206373 3.4153310143648365 7.234354326332928 1.313125376496158 1.8079784028600023 -0.33920718273034484
Ni 6.432529624397124 8.472808887618008 8.22143508264831 -0.4037997218997497 1.0217062597833693 -0.12381301539361901
Ni 6.3922535261152165 -0.2058672263617927 3.7228701929974903 -1.9446767588567215 -0.7566466069007162 -1.1721283931240845
Ni 2.5663787981696973 1.7566295219380177 6.482137534143791 -0.5912711946842785 0.9143135947293027 -0.7861469303526784
Ni 3.2787879490124583 7.863506921649387 8.849158977629513 3.487210871801142 0.8980616516468146 0.25293047371928695
Ni 7.724042999308539 7.527085786533299 12.433291263218115 1.5904162813376803 -0.8911001327273169 -0.74284183980714
Ni 9.010703832258278 5.704377707613311 2.8465832346597737 -0.009653978149996276 -1.7584679548347006 0.9889367786618323
Ni 7.915298475278809 1.2611569922165486 7.771197575821121 2.6964292708899302 -1.7173269618200164 -2.4660005778175855
Ni 4.039825169398087 0.31222468116910973 7.4725786757676325 1.7898927490028853 -0.35374651399710044 -0.14107720179070543
P 6.645938820784735 5.987812817232488 11.686401069013062 -0.6276255649435966 -1.5704426664292308 -1.7418254611820132
P 0.3993893993368535 1.1307355951850533 6.2946810386208245 -0.6065818568994199 0.2127770414288529 -0.39179421279844134
P 0.8230853679959692 3.898821498165553 13.223627572059652 0.12912362897325502 -0.3807063304153959 0.3524789601385865
P 8.358251570076606 1.6588787968446497 2.789479080763464 -0.09679792025735588 2.421180336179101 -0.0019666368080675806
P 5.597248511997858 0.6904859261685986 5.421699407903927 -0.74248985578436 0.3962098253676337 1.2009779703659251
P 2.065783103954075 1.4153558448602546 9.118291219816651 1.8818945334231783 0.5398774135933349 -0.8021733876879218
P 3.8108411796757893 1.7303231454188575 2.6587441348667524 0.32784984873599665 4.4082491868487885 2.139884938163876
P 6.160414002084702 2.008187163593572 8.296759598429565 -2.3140897757464853 0.1591623414271904 2.4380066637078204
Ni 0.056065523280282255 9.347302271792197 2.057393805447255 1.8620551300997479 0.11242997036765799 -0.46657963334044805
Ni 1.7682102999657858 5.089364673028258 7.132547062795829 -1.5696147712112967 1.1264249775496988 3.2460349675146225
Ni 7.92598339940596 6.846358135613402 9.395044752427058 1.1577178741257095 -0.34191121192506924 2.0427890270501274
Ni 6.0066630763913045 2.8823912616123537 6.401500418095647 -1.8379016727819961 -2.323366058842089 -1.803293081569191
Ni 4.73306677949223 5.793711138765465 4.905220037394136 -0.9779437699854383 0.7936404105162461 0.23945429360972312
Ni 4.03755753921215 3.175774082252965 4.534390647045182 -0.8938686966113896 -1.9370912331999801 1.0731974856841258
Ni 3.724484596380894 8.405591849637336 5.082856667712734 0.36098031274137826 0.31344138662015053 0.21478584432876557
Ni 2.6873004111300665 3.276828268604859 1.5508304177999177 1.5713114421874295 -1.7582314133438621 -0.7608022809403026
Ni 6.360739998798719 2.1049393848602107 3.706849339074789 -1.7100250288419647 2.1368968020698293 -1.3178523496581818
Ni 2.7468840273325634 8.73712311554589 -0.12895443626923506 2.372517837976391 -0.47551061728149074 -0.32653292969678605
Ni 5.218162334864885 3.1106753654747945 1.1244450210766581 -0.4240631001344761 -1.1792742601402466 0.046525911475681164
Ni 2.730338725605543 7.652570655299937 11.026703588410149 -1.024124896527191 1.5843762457911874 0.41948036585980014
Ni 0.9159788852219295 0.30640443035853854 10.38136030020233 0.1613344093778447 -0.6885571103216465 0.12873359262368794
Ni 2.2992463631794577 0.9031625753562272 1.4987523775585279 -1.749907723969515 -0.17781389509010667 0.06524997024774569
Ni 5.953667719082929 3.0550577691448204 11.028478498950745 0.643570261198311 0.9759051422888547 0.2229249284961322
Ni 7.90318578399755 1.1050171227881729 4.847951643616045 3.0911131465313413 -0.18159367384751307 2.190453909360679
Ni 0.8675635809804582 2.9453716571880233 11.182964771387566 0.8103975753699268 0.22388780663003374 -0.47239058359527025
Ni 3.8144619225241163 1.8645332579050458 13.282138963124849 -0.19115149273927726 -0.014369895568426865 0.479630038766503
Ni 1.3829184682087463 1.0592912466108455 12.844193318359041 0.9280317156463437 0.7663970014192608 -0.6635258783846315
Ni 8.276122297375245 8.007767395083123 3.724727223478978 2.703461238036047 0.3760292366547007 -0.0800150443720622
Ni 7.363835076768776 3.9643308146481733 1.409633578070063 1.1428180741957417 -2.672956898799603 0.13872335684654818
Ni 8.69364620593157 6.417962666700632 7.177414412318399 -0.37364119603849844 -2.907950842645127 -0.989066362261161
Ni 4.0917940274453395 5.0513375413093575 1.5249215764491564 -0.43931822652133373 2.3618729566680354 0.674385961027587
Ni 2.794522924860167 7.081893056983961 2.001614768778941 -0.5670755712746814 1.2459617341654672 0.6146934302629606
P 4.696989996369465 4.428728412191989 9.589657814162349 0.3718859039102886 -1.3065739485308852 -0.8686975966624007
P 5.316855572916194 7.3975415797794914 3.042139742534152 -1.066294073696073 -0.8835413465434525 0.32904206927188495
P 2.1655401685123667 7.274492313805157 7.1650534948521765 1.6057004611902606 -2.9692773094687506 -4.187495297862046
P 8.846370632363843 7.377888784834706 1.6915905287532216 -0.18650833754031104 -0.8609598616985108 -2.4878490411512444
P 0.3115023989617373 7.743975748597268 11.135967902488737 -0.29493818560964047 -1.3098279366918086 0.25340844179697003
P 6.520649920058859 2.4496751639914005 13.16220745536089 -0.5066993841794692 0.5541668336328133 0.13909693813588303
P 2.7898943463736456 5.388663862137528 3.3640461780979516 1.0466845269952618 -1.1329062143986681 -1.7172194897078747
P 6.694566890327604 -0.06456307080009334 11.700099235062183 0.23448975051559617 1.1779097756925518 0.5091015658630588
Ni 7.877709938698753 -0.07869423290118045 0.0314146101149704 2.197785667135402 2.16374271861808 -0.4101547175835001
Ni 0.37811940146522444 8.090083304013778 5.807689259158531 -0.2533919867367378 0.9551815365882582 -0.5783763409994813
Ni 9.146882956963532 1.9591764897806485 0.6267477875019901 -0.31856430966901267 1.2280051496870463 0.5824350844498872
Ni 3.4315963617479146 4.429876225002155 13.080751006266139 -0.8720863106289755 -0.9565303373066688 1.7105893859858667
Ni 5.489540744071591 8.285920699413245 10.335646555379906 -0.5428025576599297 -1.7548283011995842 0.35884552578656265
Ni 0.9896386058378717 2.902846592343109 8.062045876467904 -0.08413883673244864 -0.19094220494194858 -0.38096549761405357
Ni 4.8641693987606525 1.1602147876022322 10.189874328488878 -0.5225402078664678 -0.24210612941027337 -0.21804343203411478
Ni 1.3427543516644163 6.899344161110313 8.933074359045227 -4.134876386114749 -1.6370612348897289 2.9950173945473324
Ni 4.544050938273502 7.267586773321234 0.46652058465204904 0.8658112762535413 -0.3838428191618486 -0.3366414788856977
Ni 0.7801282402802363 3.3378583155843935 2.640729072834032 -2.2550011971144457 -1.5333781574767658 1.7696939054575072
Ni 8.441957918915508 5.570139599692729 0.1529082631181293 0.6582409758366082 0.7693828235204621 -0.007903828228108969
Ni 8.67943385707074 1.1027681562251654 11.860486011888172 -0.708375173488838 0.7314315410876693 0.6517913635565227
Ni 8.197184504194835 3.5103195232646356 12.420343374810757 -1.0134427342229964 -0.740974190470782 0.4996229369486621
Ni 1.382143927857171 5.061565206674735 1.4097698225174486 0.2128102086596335 2.476169547930787 -1.8506160350248706
Ni 4.435559298184194 9.326520327660175 2.0880562715581656 0.39450466975106896 -4.211030919090141 -0.14372980892220408
Ni 4.196422297588236 5.627371599406106 11.158489296277791 2.8343787256849313 1.6020821477113827 0.757383999287373
Ni 4.034935300190553 5.703155240311428 7.829367422586707 -1.8175917575800504 -1.175304219748905 -1.6466635338661832
Ni 8.101990695442812 3.1865616563062287 9.587459239381253 -0.5661805702642378 -0.30124073078890057 1.0441676741106791
Ni 7.084552623251419 6.227052467754558 4.251368003492748 -0.43678954656220903 0.710886369946466 1.732683903892061
Ni 1.0510325934645324 7.385951469940259 13.473843299226571 -1.7389190861684956 -1.2561834118934754 -0.1717851723975235
Ni 1.5607361356697613 9.068635717831514 7.593984609743023 0.06185225742010638 4.250949095441317 1.397021243979865
Ni 5.335015278026619 4.182471239448419 3.1877617272605967 1.2948556316526927 1.1863712761963439 -0.9743488535453285
Ni 8.824702166142668 5.162227456945109 11.003607355034866 0.13899640800227672 1.5873422703980469 -0.3985333312944878
Ni 2.1182838752548183 4.47663793225207 5.162223724220524 -0.11378442751302338 -4.629598543327685 -3.157849728626942
P 9.183538312397111 5.506720608978215 5.076628616741152 0.24031895560286357 -0.3371934947344257 0.6617549025271378
P 6.850464132657896 4.247290001882647 4.652641495564336 -0.27526796087422273 -2.299064763092563 0.9433886577183881
P 3.4849183324575574 3.7785624438191823 6.600129891485372 1.128416811168747 -0.16283953316846148 0.9043598259507004
P 5.326196716192419 7.2531784564196435 6.8902260481280955 -0.038458561086514416 -0.3918464061926155 -0.9437892355909165
P 3.3337709821628283 0.5372333192074196 11.735159783916437 -0.23053899339796427 -0.48384561950974736 -0.9814168161357033
P 9.373804616352116 4.68837673438749 8.86981027640103 0.5164515784702266 1.9072021589500316 -0.49051480399980685
P 2.916023110131351 6.349149888959487 12.6101766827138 -0.853762058398491 1.7938039111318331 3.017828221794261
P 1.3980080073472643 8.629975256307507 3.890508720512744 0.29244113021939955 -0.001866878005409688 -0.41619012514430254
