# total energy = -381172.61826937617 ev
CRYSTAL
PRIMVEC
9.19568033268177 0.00000000000000 0.00000000000000

0.00000000000000 9.19568033268177 0.00000000000000

0.00000000000000 0.00000000000000 13.45880768048994

PRIMCOORD
 96 1
Ni 8.058928516289171 3.7524995692507996 11.965821715261702 1.7284328419251909 -1.5387443068846853 -0.08604428128527762
Ni 5.319020456790623 5.402085035122491 4.714256439849237 -0.6409531352904382 0.8391692481859805 -0.6659195754277887
Ni 2.803008816336064 2.724744383015734 9.247761672109739 -0.9360628134809363 -0.8010307894430463 0.9675125473497852
Ni 1.3653837767402026 2.828149805726004 1.766428535910243 0.7582679445542231 0.5029394029164048 1.030470893349877
Ni 6.672431458042274 6.89801068654433 12.196061314437799 0.42056408584228216 -0.5267280206955703 -1.114710517326248
Ni 1.5180780447796898 1.1111048306499953 3.466235289073164 1.4116978721554332 0.738605176017973 0.7088042906064568
Ni 0.7298123923320369 5.75235768576339 4.967591909161315 0.9532290408475775 2.1626592557459143 0.8329875448553009
Ni 6.422143437114917 4.751646994698702 10.94968159255935 1.5375662274161843 2.3124589250112817 -1.0273819700119082
Ni 4.715590733031563 3.690097684100787 11.50454801014898 -3.32440064920872 -2.332695820883447 0.5050916733727172
Ni 4.625785721187323 5.486620922270158 9.648941607777232 -0.2049305488012406 0.645855457688062 0.363393035947929
Ni 6.8669476791708055 4.506434989185847 8.608899153794237 -0.6301257056576309 0.5555585717740175 -1.1363856883068366
Ni 1.608094557266202 6.562984473507135 12.77352519630206 1.5104994531063793 0.6313603493956804 -0.1842182559545537
Ni 1.54670419692705 8.833655368927456 13.412602893531874 -1.409770059005101 -0.49625170648358413 0.2820865264579529
Ni 8.873343924233595 5.897309191159742 11.729283075217973 -1.4156853960482716 0.6727322274742478 0.32006660524615205
Ni 1.4723755146889792 7.374604394701544 7.433003400304577 -1.0355704193599713 0.8382189684575692 0.13864108154538704
Ni 7.133999424918155 6.515010610432037 6.847504333170041 1.1836572196992905 0.31445054461095523 -0.1818484701707965
Ni 2.9320058167611123 4.2907870951904235 6.273890682563119 0.47232399202339304 -1.6737480487878011 -0.6210633383450466
Ni 6.8068263226852785 1.7310224088260853 12.165711891839937 0.3312426764676295 -0.21234663875965362 -0.031311408518771885
Ni 8.412870243289463 8.267744019971234 8.247907098862244 -2.5036011617791782 -2.4710293984907445 0.46309270323311214
Ni 3.635787997437661 7.585902732010266 8.53396079796562 -1.9245370506840533 -1.0606255625563863 0.6339581920298436
Ni 7.467821003862415 7.55826051763347 2.6736862888355204 1.6354172715284025 -2.133798108539848 1.5475120257749866
Ni 6.816003611423816 0.4439462851026763 9.929235132866758 0.20512492420023382 -0.47166990337916187 0.7380583023755676
Ni 2.087382599692345 7.02503061574815 2.2895183613506878 -1.0922336763799707 0.7740586317295766 -0.700882978876851
Ni 6.286755439021248 7.4233966733054295 0.7924975044290904 -1.6931992155338775 -0.17873486424247925 1.0776087273779442
P 2.549143675850299 0.582582197407218 7.826592302050563 -0.6814755208845167 -0.026297243133632128 -1.2011466347333057
Ni 1.5199539635198314 4.745274388390278 11.05105385039979 0.32195893717285845 0.05058285515387417 -1.1375879361450538
P 5.3991240261307 6.598406233247461 2.8392296806769695 -0.9274267350724931 1.4169362377362371 0.009951711896073185
Ni 5.883469692611147 7.737548692518497 8.647485147056537 1.1174050334392756 0.5303257653491577 -1.0608739311217665
P 7.26308838214419 7.099451254787209 10.12839885071719 1.1343249491230656 -0.10315008772762879 -0.06794037259571525
P 4.0422186664415305 4.074495503588088 8.189886035711268 1.6058722108814343 -0.49928046600757886 -1.3291523480520335
P 5.630698838057131 -0.05513453916798266 12.784601392980987 1.1006517252403367 -0.04028198744849837 -0.11472596549068628
Ni 3.0942084180226903 5.28605394363666 4.136497376653806 -0.7285614186287258 -0.01802986091851734 -1.2673150030302625
Ni 7.601673323379595 5.901116202720618 4.521647402773183 -0.6611342382240033 -0.1113004847489051 -0.1116630102946464
Ni 7.46837274466834 3.1824685556103445 0.7362778750094571 0.26886694244388537 -0.448862161456027 0.9692585835066145
Ni 7.9734638654515315 0.12172045876291944 4.166927721236538 -0.00012187028984495142 1.1189325258273954 -0.827117202117453
Ni 4.91355533419712 7.720784967698504 10.809104472185965 -0.2577716038616722 1.6496616972625588 -0.506950838068643
Ni 2.3805224898798043 1.7762559592317606 5.7499925568419945 -0.9436982185390069 0.23308875640301144 -0.21580040163620895
Ni 0.2499312285395257 0.3790017944053637 6.740857433224967 1.2623453177298132 0.5380509019075572 -1.008520614331031
Ni 2.3066811786869663 5.25430126025573 8.425106015228838 -0.7481611951375243 0.5079021462383189 0.8488877610253251
Ni 4.266795565812825 2.169233348251181 6.930653511758818 -0.061508243817126336 0.5026792072764826 0.4478879704682157
Ni 0.5329181683299725 2.012318263046375 13.246831448823977 0.4124766808484574 0.41008966867351954 -0.6059339389027759
Ni 4.2753291569444505 5.972465484606699 12.082281325440137 -0.5587948193231279 0.201762178375588 -0.05493958946067312
Ni 4.169725966690583 3.9575724311326788 2.046196068098123 -1.2747123239355982 -0.11833142345375748 -0.2796923151941635
Ni 6.111384623858282 1.1516026058048223 7.794103044693725 0.2035452384179398 -0.048519544866942245 -0.295175241321111
Ni 0.2271378962787924 8.95745681009672 2.130246423336576 -1.3227600713724446 1.8091785938156904 -2.904269022918166
Ni 7.00817493412717 0.5388558189697253 0.9834982170558758 1.6345862909866755 0.308425678573114 -0.7176139184782867
Ni 0.05883212213568382 8.263192158322362 11.112062590014844 -0.43108735397110926 -0.049390377507669773 0.35167009108404595
Ni 7.2445774781054375 3.456867649756583 4.062756298374044 0.6759126820847585 0.7674398408614783 0.9770585391670075
Ni 5.742591873498534 7.806691011180883 4.949961031708011 3.1506028172565417 -0.21307760338840726 0.3227503227259022
Ni 0.6602001744166065 0.4438708805258667 9.02626992341157 2.549961494211273 0.6147782766672831 -0.5203118327565813
Ni 3.7502466276266095 7.796796459394644 3.9306713885718403 -0.1909136656968583 -2.156909240636014 -1.192843771294565
Ni 9.167145903388164 1.4678144573600067 10.816762634572193 -0.9472815650148911 1.2506971919679235 1.6717772982146757
Ni 1.0637010997410188 3.7146041715639146 4.325902638783461 1.5917113460000198 -1.2039565933782748 -1.1341022915892984
Ni 6.495478985902325 4.8513925367296755 2.4284669267785866 0.026684708380037912 0.25327602998416376 -1.3129849942635516
Ni 3.895382046624937 6.210826708445997 1.013210379022897 0.3005583600098953 -0.24642249739744015 0.3688682001298873
Ni 0.4143784953132053 6.458061763580574 9.586277645744405 -0.6578509394870412 -0.631319725965732 -1.6314860547947967
P 2.570293740077389 2.9689172766774323 11.507455684196202 0.3385140133180622 -2.0242017509662427 0.3830709739928306
Ni 2.946516599956915 1.3169317382999706 0.4651009471698151 -0.4201624795284893 1.169539549350986 -0.6691781915744024
P 0.9398812672115582 8.137312493450784 3.7401488513101895 0.3188944393149218 -1.5796117345230085 2.8078323426549705
Ni 2.7480554320660264 4.4775697493559194 13.09632115480794 1.0869845121658892 -1.196325044974946 1.0830265559594057
P 7.759526367954472 5.376567022848503 0.24338942171728595 -1.3483770006096005 -0.2380479001804997 0.04161638998920575
P 7.422743780018419 2.5465321027022587 10.08566652529837 0.45853465154878453 0.7267588182023483 -0.16551810844188913
P 8.299395550871079 4.2630437283325415 5.718580113624718 0.30642458898268515 -0.8466347033250903 0.6014977575082932
Ni 5.856103348637312 3.8636937330046974 6.179302077931515 1.1078634124974274 -1.1639103760896665 1.2394930957219878
Ni 4.461422135102541 1.0504685160789398 11.340511790275716 0.2403780909755731 1.028331478409371 0.9426864894450411
Ni 9.036466093505046 5.216019644004697 2.802244655319859 -0.3367414947986717 -0.084227539791513 -1.564536842467757
Ni 8.939755125906656 3.9336360758356723 9.316079138267268 1.4868902983278716 0.041920551493185874 1.0827979848883675
Ni 4.187252932958771 0.5503090385326992 9.13788432974598 0.2946332527747119 0.04238823515822378 -0.2839212656738465
Ni 0.5045219081850802 4.410422893274959 0.1853168627577576 -0.26163211525834296 0.6918638060973762 0.6069752356830966
Ni 5.105708265540278 5.90211853185138 7.309532084050859 -1.832924788392695 -0.6323666791730077 -0.10289529140434538
Ni 2.1458763208003955 0.4764934752441373 11.022709086063449 0.6191419529526175 0.08735040169121085 0.26126213351343397
Ni 5.147990002634259 2.0535884753294953 0.5306955724501083 -0.02484971205382817 0.06539935134141639 -0.8342576698169761
Ni 0.10914076838785058 5.215523077279365 7.312815861414117 -0.3220432693565486 0.7460024969233088 0.29466050646822156
Ni 3.800390671205009 8.268921067023872 12.96348311880565 -1.138848290914716 -1.3477313966058015 -2.2359585786606972
Ni 8.329465424793941 2.121921574143192 7.873738553916775 -0.7015234406743273 0.2321176507389938 0.24951913404489284
Ni 5.3908387183617394 2.727107672801109 9.515834138348048 -0.6179106516486778 -0.11264311481972857 -0.6478740307799875
Ni 4.294925151234854 8.521701117257985 6.415476569043334 -0.1687697826099674 0.6181304809689676 2.6303449776663475
Ni 8.39159143954099 1.9191936106864902 2.7952596167168604 0.19980993974522362 0.38520036163100757 -1.1138723376956687
Ni 2.21981878447432 8.658606402567946 5.343981210850628 -1.7089148264969214 -0.08244756507295478 0.7568808343987093
Ni 8.821599832318014 7.180649110059035 0.8674698842740731 0.3846784276892665 -0.8001453015142994 -1.8875992971174396
Ni 6.014158698174362 9.09698286423482 2.918299655573948 -2.529292653008012 1.4448442770004148 0.6227042163825792
Ni 6.413021322456972 1.5636702267092155 5.111695572852564 -0.6368298571506839 -0.6362223054736721 1.03083727555036
Ni 9.17697608541371 2.0061295703399264 5.1383299406905385 -1.5485278686340105 0.07092850868976172 1.0294823041843626
Ni 5.789149601838426 2.316538947752809 2.738422957162602 0.41128985962920783 -0.7015314110941273 -0.27923800126556425
Ni 1.2262991152468428 3.102181072668293 7.293274121636296 -0.6535988490789066 -0.42734279932701236 0.37456422207340007
Ni 4.214269841088853 3.071531870899211 4.361837517473296 -0.21421814475075368 0.2907089780196413 0.7166348423944691
Ni 4.180806761209558 0.7038419525971907 4.590758456123233 0.21238803352055033 1.4457307933704262 -1.3173018764713507
Ni 3.9571310384879395 8.612260174870324 1.602957850363049 0.15565072872950614 0.6935926158630248 2.3752367795694513
P 3.630868308584838 1.5988620944470726 2.4659494384290386 0.10555304074216659 0.32516510281498195 0.6950239489929128
Ni 3.106769717037562 6.4610503596126625 6.124847099522829 0.3322646899742407 1.2828079564595392 -0.18304429025111058
P 1.9204442231799181 4.937850321017978 2.3253585245355057 0.8057737034446703 -1.6910849974043518 -0.6910670212276937
Ni 8.649447505189606 7.752151432515288 5.423657181066113 1.2676366480357395 -0.9823123313667793 1.5679749216150285
P 8.703665235051744 0.24495728517412022 12.869567637957275 -0.4891644606194995 -0.4497990714479995 0.02238171012930984
P 7.079046040648118 8.990340562129795 6.606753152073082 0.6039112520457922 -1.0510230064696158 -1.2699681243823935
P 2.196038755738992 7.145585981842561 10.49820588459183 0.8829996151073696 0.33459668054152697 0.502430067380154
Ni 5.498290240315453 4.425439438876193 -0.001179805756667641 1.0329566358862081 0.9848901193962843 0.9978145407674364
