# total energy = -381174.5781166451 ev
CRYSTAL
PRIMVEC
9.23028762473646 0.00000000000000 0.00000000000000

0.00000000000000 9.23028762473646 0.00000000000000

0.00000000000000 0.00000000000000 13.50945895057169

PRIMCOORD
 96 1
Ni 7.027424203575648 3.0505362620420247 8.825689171413911 0.7708234126217305 0.02622242403163871 -0.5201948475627428
Ni 8.817841580761225 0.6159712542216873 12.217535629977426 0.20659533809817324 0.2994543283124391 -0.8262378848362931
Ni 3.385004969276556 8.500753505376858 5.572611782047733 -0.7997889466161452 0.1895116431430091 -0.4458033200250451
Ni 0.5310609140980207 4.609633397699712 8.219276803195429 0.6718053447846043 -0.907203723157399 1.3783465503884973
Ni 6.423172645721543 3.1995961790618512 12.787553896591014 2.4478773858543135 -0.03462633182461779 -2.68217584629471
Ni 3.0244606991228955 1.9714417807147637 4.844788823791459 0.01802163338840122 -0.7093028275094301 0.5879233612579682
Ni 5.054164056172365 7.065748358350947 4.5019731673364785 0.514118816571992 -0.8299906670105061 -0.7995354358444423
Ni 8.664701876551927 2.872382478005881 2.694393916120623 0.17993634074974818 -0.7282084061646813 -0.5050510499427688
Ni 0.3169283914061349 1.2592235469438264 7.402373260805978 0.3611813730085909 -2.196416297591701 2.054242006082075
Ni 4.139221012350869 5.99544111097024 6.31931990905889 -0.5231076503341636 0.29074651612579605 0.13534698417514757
Ni 4.473163593183139 2.220234956970409 2.786677410106166 -0.15038922322025067 -0.11891069299599523 1.2654807780350013
Ni 8.117428885034027 0.8190828133293465 9.616870670905403 0.5882367787333288 0.4320461183399527 0.8875378692973553
Ni 2.191445689450139 0.20043108354245048 2.946858900846792 1.1445011183251192 0.031140173048230243 -0.5959937969709285
Ni 7.442685619564563 8.808362075232749 7.755388385234635 0.13934787780442454 -1.4289396899550164 0.22077471492234882
Ni 5.124932672420492 4.445869632279824 9.50248617590975 0.6036477139717604 0.09291606870444644 0.9824568273644436
Ni 2.741469306720216 7.264937968189815 8.168048706133069 1.2210279470382648 -0.20732064629997196 -0.6088678247201192
Ni 3.7038929507739233 2.150693968994226 0.7427538717352071 -0.5906911538110924 -1.5627188154224119 -0.9455725527435844
Ni 9.023335477139478 6.811361627713359 8.163333875145781 0.1453722296216335 0.07297742079899044 -1.8558271469121654
Ni 7.669289184047612 4.828252763271239 7.102531055070497 -0.6944721902545007 0.30361205923455453 -0.4841770347072371
Ni 3.785045640750907 4.179548139569868 4.494583398956636 0.24440006765077263 0.3102856145999882 1.1849198884617982
Ni 1.3358349353433907 4.088592883992844 5.228241745134141 -0.8143326487582749 0.7912184313383147 -0.941008844632302
Ni 0.32976033744867395 1.7808455687795104 5.064223223772105 0.6008372411061588 -0.3776981397166914 -0.9866209860444622
Ni 5.931881349461878 1.5810929113873453 10.690197145412075 0.7407278787879307 1.3027486612475243 2.5497833167621957
Ni 1.1141788050991575 8.483917460504474 9.187066936552208 -0.9904169627517846 0.39164688858729974 -0.6555004369769936
P 4.348896229083941 1.8243202241243233 7.1649176470046925 -0.08236426133052913 0.8798343300055105 -0.7320185239393909
Ni 2.6273275682926243 0.6883764004894827 7.580414435331463 0.6403949487941228 -0.6483514846370383 0.6766089368208347
P 3.263645145821439 8.832093145061096 10.05361835073968 -0.08687011962068265 -0.5308045047577891 -0.4971886164755566
Ni 7.550255393107759 6.891295919706157 4.2768787549020235 -1.4637079466741374 -0.17089968446877662 -0.04826269166112978
P 6.80144829866021 3.8808098762503627 10.78635736025639 0.548133740064856 0.44499727918398196 -0.06892896176122967
P 4.25844863933366 9.555747705365414 3.8449677458534532 0.5605002320500089 -0.22545437978620528 0.027130023447572628
P 7.490046226055908 4.50039294207214 1.0200483305330421 -1.565240296292685 0.4200483225481282 1.2500844980845889
Ni 8.967695302528325 5.282032170078394 3.1569984010541416 1.0531804191322505 -0.21159664796750657 -0.3155808015606565
Ni 5.787713484954313 1.0840419155660759 8.559553207487912 -0.2164925426072272 0.9068681941948511 -2.338338363881205
Ni 4.055889974462764 5.37932863334584 2.5878856256697107 -0.1282150011160566 0.2245156700220198 -0.9706870884230249
Ni 5.009498693706642 8.475554819794834 7.262374717279145 -0.7369576131122211 0.3881465887435251 0.6476907111245878
Ni 3.5276867574549255 6.333749617912509 10.268336996704262 -0.21214172183769917 -0.10563737292585679 -0.22286347913057747
Ni 6.614202681181467 6.928817039446426 6.424883018043282 0.5182408091601656 -0.4596607947334277 -0.2735666619123998
Ni 1.9198537024298044 6.4946335335515935 12.669468056204009 1.1045749715541429 0.3232311190170627 1.1899114281391185
Ni 5.3597604232967955 6.477105217097283 8.340389254938605 -0.26066229514590594 -0.3885492234985824 0.9228748540357526
Ni 3.7449954221646773 3.164567237016508 12.255754559472276 -0.22055565693300727 1.27950254623539 -1.324750619439912
Ni 5.655185013310826 2.8353136423658025 5.044067044392812 -0.3927843446258526 -1.8874337180738525 0.04425896981837539
Ni 5.334857106923057 3.791331466714775 7.039400501942929 -0.47923794553440685 0.6355772156905054 1.281198445880574
Ni 4.08191015565534 7.806525102448181 2.4711363309502064 -0.18344923899901308 -0.14001944995015242 0.1704327721346871
Ni 8.144935142555799 4.919568000070865 12.320018591936647 -1.7219037825574215 0.9807902382952981 -2.2039318892424564
Ni 7.683762275253699 8.497864425308297 0.6712172955455321 0.7419949184258126 0.8211039060438377 -0.1406686534983771
Ni 2.7955772535633776 8.643259918087807 0.7131237250000937 -0.36310944326923916 0.8012063957889621 -1.447689459758694
Ni 2.429624034782953 4.335789220466185 0.6770942197616768 0.18292473395411077 0.13031045019250462 0.9834891252836998
Ni 5.785996651431142 8.576386483273971 9.88784330561711 -0.914234147641619 -1.371683793656341 -0.3900628319296315
Ni 8.69009439817689 7.663298727292032 2.510206292976432 1.2837664637180664 0.9286693492303425 0.468287102949858
Ni 0.6260756502314465 0.9915728927965775 0.7904329231542371 0.05899910424202743 -0.5444519203378946 0.9775406210097486
Ni 3.952390757821281 7.87963821178709 12.13391291499614 0.5734794179184962 0.27700242706682615 -0.9136893308817426
Ni 1.1072283984166427 8.371649470491954 6.7723590467877735 -0.2882690011195809 -0.7226159996785685 0.12820214560025017
Ni 2.255706952828183 6.390386663601633 4.587447478042218 0.5872024239315435 -0.31938037781240475 -0.2823657482612686
Ni 1.306934904370013 4.496239312580597 12.12649545575302 0.16243741263403638 -2.0058481881597197 -1.7104621163793834
Ni 5.983229440265105 -0.05061612898393864 5.247101069083296 -2.078826123179342 -0.30836757164166895 0.6254902637681486
Ni 7.413545601109452 1.6013810838815914 6.670498206223509 -2.2190396914181716 1.2571488611305381 -0.6419111283283332
P 2.0219406850441635 4.5588298938742655 3.214062809066507 -0.4082821831511355 0.3591113778534396 -1.3961964340857245
Ni 9.062564200115158 3.289646866438496 10.47782853071093 -0.06864665463412048 -0.08438257731213855 0.04344984365351872
P 2.404905324164395 4.101801425775949 10.141361466176578 -0.06095442819618534 -0.014048250562949999 0.05712862669219193
Ni 4.847156392601638 5.305209422641202 11.871653671928913 0.4666241134251384 -1.0900281840882193 0.135541873794773
P 9.29166917258089 0.6636373832378546 2.993588155655423 -0.679932858987745 0.33828389958512706 0.6233739887560941
P 5.824902314335257 1.3002798668957858 12.956152486739057 -1.6135760072835952 -2.0835248142065925 -0.15285234004876255
P 8.922466892509304 3.103878095001191 6.8109425726491 0.009263941800429209 1.731671660577463 -0.6595483817941222
Ni 4.065591006897456 6.189803280311159 0.257378266900276 -1.6374335306274832 0.4395272572083463 1.6643851195156627
Ni 5.30277262667283 4.03822320369207 0.7617553421158508 -2.426262635798015 2.0947139980541922 2.8117669018226867
Ni 6.5125956735305754 5.967381036182929 2.2592273845794595 -0.11777555095028748 0.9412932086419401 0.2495271044646928
Ni 0.013484527387099213 6.451038884465914 5.675499030610797 0.42096620637670723 -0.5210301989798446 0.8043128026284276
Ni 1.3860107796012258 1.4262917553814305 9.714895403877033 0.3212413422805436 1.2319695336514331 0.5274013926135112
Ni 9.098636164677266 6.060597712260906 0.6594819076887602 -0.35985545510831574 -0.7899904724684846 0.6401203549764976
Ni 3.9275059020230607 2.287569906172195 9.605928164767127 -1.2962666530676064 0.2616693962541816 -0.43941078623513996
Ni 7.932887741868667 3.77212323788833 4.841884975262483 0.39365492015626397 -0.002430978038995813 0.6801915119657704
Ni 6.429799992332493 6.687804995771604 10.977624614111724 -0.2722870238690278 -0.43674120982277687 0.3558879858201355
Ni 5.3195717503941795 8.634085012055378 0.5585542492169294 -1.731892004118385 1.8306359923585183 0.9292589031852255
Ni 3.2748968665996396 4.725925793175146 8.172277100955458 -0.808018276504473 -0.3165534498865709 0.5260870446774617
Ni -0.19733524502808736 3.4970329718073407 0.2148054106695157 2.3229731942790446 -2.815795563366106 0.8063015509236824
Ni 0.9677310595151228 8.418714707775012 4.579814953094315 -0.3183771333588711 -0.14616490072625796 -1.3010825863990108
Ni 7.25935364409563 1.312537689039716 4.074345011808076 1.1541604957917542 1.077836527118034 -1.735172731752186
Ni 8.641404630248251 7.209325484441939 11.994454343303206 -1.1465011794742834 0.5264547124295256 -0.45364389911538644
Ni 6.344069079627052 8.622399467752505 2.8257602945352547 0.12295709515122695 0.02460417170192537 -0.11959563487816179
Ni 6.477751337240413 1.6821184109094214 1.431381336051734 0.46662179943229315 -0.41870466403604023 0.28708655077570555
Ni 1.9741554853159051 6.728741321982696 1.7016783136994835 -0.24272782215467228 -0.7983306169030638 1.0106320042470789
Ni 3.06447399655809 0.996981841423342 11.690518504946617 -0.2183959302775271 -0.1328859242291647 0.5489917171897771
Ni 6.600246486089885 8.70681044930841 12.101017092451897 0.12200732964344795 0.8252228133082176 -0.6002281467672502
Ni 8.169884610368332 8.919014764887445 5.544200956325582 1.3197115143541078 -1.0989679097800105 0.1187692823221245
Ni 0.9094122553963123 6.248600213335885 10.37696640728219 0.00851420811859824 -1.4729600614000244 -0.9641351462371202
Ni 6.372184536140916 3.6042427641279353 2.949655678037764 0.24807828783330824 0.9247198776642913 -0.5189990274824288
Ni 1.4284424124292738 8.249772750922334 11.383097309932234 1.0788045474582582 2.2132354260315688 1.0453254418642062
Ni 6.186240389236191 6.7436574670012135 13.471470222035355 2.0276822533156755 -2.009900246741906 -0.8734736778948053
P 1.820148134057263 5.651769806840002 6.85790166162293 0.29450135518253795 0.9549938460574843 -1.3310469939715852
Ni 1.8216803618252542 2.4775292282520787 2.351564414234004 0.2861943779787393 0.9796777219574098 0.6622374985905111
P 6.098764952144303 4.9952748202700485 4.7426169225297174 -0.49792780863442637 1.031568754399746 0.3497739025025976
Ni 7.460140093716802 5.588025439576461 9.34039955377567 0.4336060066279048 -1.2980962500771773 0.06462519217955322
P 8.145636644425482 7.840326416221579 9.737348078850761 -0.6515627924854843 0.10730807576006036 1.5327160984127346
P 1.4727570239601542 2.2668848313043126 12.70388964531481 0.6492685971346689 0.167829273073569 -0.21458786938534657
P 0.5997130253630134 7.98689415554648 0.14836210726524782 0.7531123684952127 1.509061435108272 0.17394387061173913
Ni 1.9426802040577706 2.90835290940264 7.0330242191590235 1.2197033146895704 -0.13224006311504966 0.8466593859154385
