# total energy = -340895.053878772 ev
CRYSTAL
PRIMVEC
9.04391318631571 0.00000000000000 0.00000000000000

0.00000000000000 9.04391318631571 0.00000000000000

0.00000000000000 0.00000000000000 13.23668112093409

PRIMCOORD
 96 1
Ni 6.230704470440987 1.989742284639498 11.315337136835907 0.7062987505757836 0.44558426203570356 1.3042671547745797
Ni 4.4960638435647 0.4006146025197241 5.906008092331072 0.4658774650671009 -0.7210882501801323 -0.057511463952907405
Ni 2.597864047664849 1.621266131831808 4.6880615974372875 0.48352551716616726 0.24134765397769403 0.5443033105751722
Ni 3.710401021811033 4.210194793320529 4.7942733132798505 -0.9568918344111456 0.41523727431273005 0.3415777398450504
Ni 4.578725209607021 4.754746890928869 2.3418200141531034 2.1562554091020996 -0.8383668068893433 -0.20035141407099044
Ni 7.197697750526004 6.095009597782454 2.8215308721578305 -0.041672697148437916 -0.1314982998530187 -1.3193315053068697
Ni 5.122779891993006 4.548871252352567 11.541406024657208 0.07858242569059369 0.16780150515942713 -0.29383749634629397
Ni 5.509298651502495 7.781012059825525 12.569526209221813 -0.13029528068385302 0.4464193563424892 -0.561404231921517
Ni 1.82963789043302 6.436127913360601 0.37916877130570265 -0.5193003607729315 0.1835204585565807 -0.2729927916868008
Ni 2.750281115707654 1.5589445264272528 0.3805244538844493 -0.3079399971859471 -0.486276340438427 -0.4149410832285499
Ni 0.5264199561665192 0.047757287693991304 4.7695336889025235 0.38513865515513673 -0.049316329736624746 -0.14440600905362228
Ni 8.388880593283131 2.2809834192851066 1.3440132176301443 0.46886945781588935 -1.1835638886545359 0.09471944046177236
Ni 7.026279420989225 0.8645827209325624 4.9220999815120345 -1.1223027278512092 -1.6713690070326634 -0.6736318564703818
Ni 0.9700953422898869 7.501048684857681 2.7613834234706247 -0.3400301928522725 0.30839096868043664 -0.5505811731640841
Ni 7.650318471129946 3.9448554258899313 3.7623673466774643 1.163809588845744 -0.7630160007621698 -0.7421065043030123
Ni 7.6134283494574495 3.8616785567989877 12.800519507744431 -0.8932855704144099 -0.6456171164250107 -1.8679046469019895
Ni 7.8794369664599415 8.738852899819204 6.966001739952893 -1.380699109781074 1.3614960544900616 0.2239227736330273
Ni 6.616653463423049 0.6444927640839724 0.2831685377824386 1.5703583342455407 0.10951073983833398 0.16623390356199114
Ni 2.050526424811318 6.408272660908704 9.331992516347212 0.019874370326423835 0.6146798034162059 -0.3614441397516743
Ni 8.97577629218361 4.500459185347694 1.3727629130909684 0.3977604576842053 1.8233962800769694 1.3491534737643087
Ni 6.419007785798445 1.9673947752860435 7.112942718593223 -0.061831688594816095 0.1114490945116274 -0.4852499560564417
Ni 3.3963511382421494 4.202652169766995 0.19868030128710346 -0.40749542558378204 0.37588756887051394 0.9098074793288331
Ni 6.114752460153394 5.470690186334587 4.831640049174496 -1.2137658661592128 1.4680955342188715 0.3302504877576893
Ni 5.4666475571638085 3.030117875891625 9.201571149436958 -0.9246885102057236 -0.16724151889089905 -0.35572086411465187
P 0.1862033187278052 5.411533950526838 12.46377844612301 0.46808372868980025 1.3688776916661136 1.3726016774849201
P 3.969065981348935 6.206177378022303 12.67729890447126 0.053503114124462695 -0.3882476330977636 -0.34899717223757315
P 2.3443812503525763 8.63293058919692 1.4211957810960498 -0.22435986117044585 -0.10860262620176779 -0.6292926682333743
P 6.347244335082273 7.6915134954541005 5.706320299120871 -0.09175932939218391 0.059766835645987386 0.3079824203881083
P 4.638586870639201 0.9129016356321585 12.64545166876213 0.10900397540524452 0.33809466639245644 -1.4268200725088522
P 4.0278061971525325 6.214452558539668 8.175001091583475 1.4921245501436173 0.3031538886512134 1.1799725717588516
P 4.597274275444308 1.0687644345789158 3.801627877982313 0.9968532052954316 0.3969515886296648 0.09040641490871526
P 0.34901998248308985 5.589563380564376 3.468553218745308 -1.524293164456362 -1.1213236517673915 0.19285407725268075
Ni 1.3738698880585374 1.261065159541484 2.6221469544289224 0.057052779148934 -0.30507373138174554 -0.8680370802602664
Ni 1.8841726866294308 6.2818116235597135 4.876486101230738 1.2834481611466992 0.9371779009219858 -0.4246148588728881
Ni 6.056735757400496 5.722943011460672 9.210889997529959 0.028963220001569475 0.02531096796096286 -0.36596362488858264
Ni 8.589230400934722 2.3940775530224396 10.415719200814575 0.5220010475335461 0.4211443838257844 -0.16290098253401622
Ni 2.4816226321569768 5.345070232907034 7.105172188428719 -1.7466989872242304 -0.6460729730155067 -1.025330743909834
Ni 0.5734311210269775 0.2795464505723785 9.114064054737584 0.3904976054742049 -0.9996060854502204 0.262040149330039
Ni 1.296137454674101 0.8967546331231913 11.493807005443056 0.6584507778545692 0.8033640655619132 -0.09936593809484823
Ni 3.8903568053460558 6.997881533749303 1.652228872836457 0.6006261535366172 0.3053748075619321 -0.8200332986874781
Ni 5.476261236824967 8.100162710401834 8.033884393001271 0.9077871064646947 -0.6654678326023507 -0.059688159889252045
Ni 5.730892611105223 2.938132235408425 4.659906991460663 -1.1106905975335775 -0.6015142125685254 0.5954386957984068
Ni 0.6676180499669281 7.546449128789021 6.8490955968296925 1.1696688758399985 -1.517267367957832 0.6302198080333339
Ni 5.107595161841469 4.51348242026027 7.005539919390948 0.34694851723866055 0.35698019044304974 0.39689193903632286
Ni 8.244422168798012 7.3147169425633765 8.99190249369237 -0.32985865163590933 0.33381223696701867 1.0777773917453244
Ni 4.753896763094298 0.2753826329656077 10.297833601898992 -0.6874006281197 0.18433498403807608 0.6965326723279552
Ni 8.339754057140691 7.074971849301244 4.706156658835261 -0.6670387766338964 0.05140303706232438 0.5932450305811977
Ni 7.495613293064308 6.119048318891918 7.04049826121808 -0.9372542626858762 -0.1180915395288095 -0.6012686722166225
Ni 2.182558512650689 5.168107984619277 2.4120405732886603 0.42307579652054234 -0.05670773710468943 0.11131256893376312
Ni 2.5058331876159805 5.040597853346774 11.503509315452925 -0.8863309934734478 0.4275914250027087 -1.3844850591860671
Ni 1.139451659632174 3.4016327835122495 3.8284846824242473 -0.32791078388091915 0.40431214275979405 -0.026540212382373644
Ni 3.5852151762138993 2.6631882322298037 2.7328317897074292 -0.21981055123686657 0.09487679197524304 -0.6786920446021085
Ni 1.0371016946977158 3.3362814672078938 8.133318600341413 0.2724387189555437 0.282182685716185 -0.13894241483588976
Ni 3.7587316935977033 2.5129507472522286 6.835223138473859 -0.4600073794395691 0.7963863486924994 0.22928738037905028
Ni 4.0757841563269865 6.941628394057482 6.061791304842253 0.9263283598019918 0.049513019128463114 -0.849577073782866
Ni 0.7010126992132377 7.243306204459419 11.134577349423296 0.4244521080427786 -0.3062458973129758 0.9720970813966742
P 0.33851638176957216 5.649877237253243 8.155423732822884 0.17580509219019402 -0.5687097644439948 -0.3779542215915555
P 8.561302797177753 1.6613306670142458 7.942617743612202 -0.681286287691846 0.39967078733304073 -0.05515093414053083
P 1.8151043220271106 3.2235400460827766 10.277448621695555 -0.42793029639936625 -0.3224158222046189 1.3566153293589926
P 3.8966694567134015 6.1631102636794655 3.7239949276423476 -0.25948138746392735 0.5718691360085828 1.1819433223319775
P 6.947932001511695 4.034155024172413 10.416857829478111 0.3522254493668837 0.2008170408534993 0.6582353194096535
P 6.47483586157298 7.808614082709679 10.255317261865997 -1.0025757096015058 -0.011226979064070988 -0.44611699461072196
P 2.379869565489345 8.420064005768243 5.9419060967328 0.33055464926166944 0.07063488870874286 -1.4920872691477787
P 6.653236092048999 3.8729020529979503 1.5656876680597642 0.43786015391856853 0.5347128386732597 1.0904272192988511
Ni 5.065197297070528 2.755607980543423 0.6173592159001462 0.6541166692555895 -0.2378473541339194 -0.6045072337585782
Ni 1.5508863998250966 1.2047758441971286 6.749264361702978 -0.3799884784127649 0.13169241814169577 1.727569465483631
Ni 6.947796342814689 0.8614652840753645 9.340013562905519 0.11895954395605965 -0.6538821846472803 -1.2644739340370417
Ni 2.716131299714678 1.5255815308769112 9.252506468206144 -0.2152635552961325 0.36104561876167496 0.1264288557499113
Ni 6.371002694884589 1.8385551887828808 2.5237455619686524 0.008963379840874886 0.09805184726911499 1.091358472863869
Ni 4.3110706004141885 6.957165836821236 10.376274173681798 -0.6194425149121718 -0.44229864930589635 0.4755296434448843
Ni 8.347866447221651 6.874694392954724 0.7679340388376097 -0.3559221814921806 -0.19919261787619888 -0.6972073297974767
Ni 7.714693044815859 3.894743103215916 8.290027005166174 -0.0021910941140478395 0.0060240947068928505 -0.10333315027271235
Ni 2.9468776994087453 8.252118538874818 12.399977256529777 0.7714373920566456 0.3145418187731808 0.5985553870505176
Ni 0.14158517328253267 4.837760969583407 10.434528731350115 -0.08378376738587506 -0.4696937534893975 -1.3561810700350514
Ni 8.689816802808101 2.337706842459881 5.755864664050088 0.25241162510133947 1.1231627618586593 0.7161658731778505
Ni 3.804095961876509 2.5568679894296364 11.297189620741758 -0.9876820803191247 -0.10098624730709059 0.21974370255467315
Ni 1.0407373477774766 3.288421078904178 12.714110344099492 -0.5205974823178002 -0.3362334448140016 -2.2607532691068744
Ni 3.058651421828553 8.528672358591244 8.052522089187267 -0.3063148028776983 -0.9242624784118987 0.1998719033314106
Ni 5.47059974720325 7.9003464936251335 3.561355524584484 0.24061206136325014 0.14011458076711997 1.0196789449406953
Ni 3.0603245457582937 8.492406266924975 3.5003877929760487 -0.02721461274157894 -0.39849373630580404 1.3021110276635253
Ni 3.2822440862338382 4.244670190186319 9.09346744696682 1.189648918506351 -0.39496721120978434 0.09958216787071236
Ni 7.302372001135831 6.205770401931284 11.478280415375062 0.024683104568976842 -0.5545129041183223 0.1087664054731417
Ni 0.36410432519884334 8.954568315885007 0.4558656766363267 0.7704212920873055 0.1786245639168601 -0.21103434770613333
Ni 4.6089137916474225 0.41090928883985256 1.5889178633350711 -0.5090216045547427 -1.061119214363353 0.6088840226700352
Ni 6.0219438235750244 5.646250628086615 0.35261855551900223 -0.30362362919878033 0.12081485199724354 1.0953084586505524
Ni 8.080564550641034 8.85127778398464 11.23455328716015 -0.40581958054325584 -0.11414206796275828 0.4257489724773313
Ni 0.20358843294478043 4.848821675345961 5.838448252439458 -0.8287976751436695 0.152453304838131 0.23360991901380412
Ni 7.9629394164237 8.818764916268869 2.4292882200260033 -0.05102199957382181 0.35366912379194576 0.9268325531319198
P 8.563952663725939 1.71352308970902 3.6537074435496 -0.6218318410799548 -0.029308262045814045 -0.9125351626726412
P 1.7753472798912198 3.21284109684557 1.4020027886436413 0.46419776337183283 -0.16340954673931857 2.1901178661774994
P 4.6040933859471425 1.1064956401728505 8.259000956769588 1.3366034050134399 0.5660322176118316 -0.7359391991500357
P 8.454711236983574 1.492878740985332 12.48903357354896 -0.533877487256158 1.0463682813064237 0.29994823722972214
P 6.321324480040993 7.69962588553506 1.5473809790944617 -0.1814149821778037 -0.041885584490192376 -1.3048651933698947
P 1.8506740323820832 3.51120883504056 6.004847210187015 1.2741153137815475 -1.7092282439722823 -0.6289720516691619
P 7.099254756065318 3.995935447269256 6.079660268411883 -0.41973953305845774 0.01935989258385053 0.012126865170521051
P 2.4346847229929014 8.468277106684175 10.313730992405466 -0.19183797728334057 -0.1776953672343714 -1.0749779746233163
