# total energy = -340887.88794205885 ev
CRYSTAL
PRIMVEC
9.08467701918305 0.00000000000000 0.00000000000000

0.00000000000000 9.08467701918305 0.00000000000000

0.00000000000000 0.00000000000000 13.29634311080389

PRIMCOORD
 96 1
Ni 6.543674466622183 2.2525092521443955 11.463016004800204 -0.19202103982842414 -0.4270592066483226 -0.5007480516920408
Ni 4.830631487016318 0.5604891229188043 6.051524824272762 -2.5441801116428056 -2.3558617174769494 0.7912639398642696
Ni 2.9330787233806532 1.9079910571782661 4.6429902149237385 -0.5127103662602396 -2.2800447703466347 1.6541439014036285
Ni 3.4948297078948167 4.437619287759146 5.053035274549077 -0.003935330498664191 -0.1830538033328073 -1.193839559548931
Ni 3.660479703069576 3.0632712253467322 2.9288788773364893 0.8663733194045982 1.0594641952584336 -0.9362085950301812
Ni 4.666925612658022 5.024852790451723 2.121510939353923 1.548065070064979 -0.7230754558134902 -0.1447525937597636
Ni 5.60105749561539 4.615224717487486 11.293992869162114 -0.622012075411561 0.12799105803070862 0.41426179777333816
Ni 5.6643413535942955 7.8837278744451105 11.92253803073687 0.4858456806589116 0.8174526824444953 0.9956812964745174
Ni 1.802890432291966 6.958698837553614 0.16451713598871728 0.4673584204880015 -1.730656074828755 -0.6971924173991412
Ni 3.1327599175202394 2.0046701867521275 0.24889197942324048 -0.6738686550715363 -1.606223680683582 -0.15397436946834772
Ni 8.137517403084031 9.347133022669643 6.702513679665621 0.9855046130518317 -2.4199685752591873 -1.1611587814864583
Ni 9.070404685331793 2.408356881146424 1.2278322133294106 -0.48588681830949215 0.5557390632159397 -0.13906788467016049
Ni 6.590278858157036 0.8691673597866587 4.720959452808314 3.001683493713598 0.5732166511754128 -0.5881100233474774
Ni 1.1436972053600962 7.502816464568918 2.4281115106576405 -1.1400690506956948 -0.52740344949604 0.34064880027287786
Ni 7.611342012575809 4.027564234989424 3.7249309420060315 1.086568250564077 -1.2124288925153441 0.9542245719916277
Ni 7.749901501794052 3.8791024481546144 12.89228002947169 0.1273372264967936 -0.20535118127842697 -1.03983819349739
Ni 8.07670457717091 7.133251815906572 8.556316457189483 0.9837259238848541 0.29550665651860075 -0.33523945633184843
Ni 6.9159554336215505 0.5771504200094322 0.30223084180503085 -0.34587405322755915 0.1614501090201026 -1.4266370099637689
Ni 2.2233656092508656 6.675211500741704 8.941338683278058 -0.9873907743309511 -0.4442310904419188 -0.169304829177831
Ni 0.06571219206414322 5.038988547416291 1.2198140776630049 0.42689517026663254 0.1133653376977338 0.29562518437433605
Ni 6.634121507971305 1.9194831732195117 6.979502747225117 -0.2368759913595856 1.4154452550130074 1.328805506235576
Ni 3.4519954571956286 4.391741670361289 0.08305756531121838 -0.4305219683859424 1.0660549611020735 -0.6251058838455364
Ni 5.762310507261325 5.394044967368859 4.344048026088613 0.26207948720840674 -0.7325530562866223 0.7996344233161519
Ni 5.621207308563598 2.982344925192254 9.034479331272422 0.046005520195836896 0.7353650718141206 0.7148055024952141
P 0.22245011938399212 5.877513292651867 12.26538373672024 0.7392276400933204 -1.4136215715407074 0.5913902367606461
P 4.307290515642381 6.270752608826848 12.430936525854177 -0.2562137724562491 -0.403140491049196 0.3664966145739172
P 2.3333265361783244 8.771927631944346 1.0681054273711668 2.1735267945880374 0.8268233250261181 1.4799303220702706
P 6.530056536230225 8.078639613310662 5.686779596606369 -0.49196490618277205 -0.3209541500574279 0.12712536759630366
P 4.920388092935295 1.0002774141006945 12.65141708732691 0.5651007069364977 0.7911595530759213 -0.48646120275572347
P 4.293300113505213 6.21217461338499 8.125687337069081 -1.6362737059914272 -0.2088211421048984 -1.2167863981530915
P 4.928954943075132 1.4675295914519835 3.5894275380338567 -0.6051852336622093 -0.9106225190309607 -0.6447452553430187
P 0.3482347362091915 5.607325922546979 3.478722576083648 0.24220100311692483 0.476115083634709 -0.7291499441423442
Ni 0.6132156780901757 -0.5921746583564771 4.495799374361 0.6023261669468595 1.6790743460967212 -0.05642697263947702
Ni 2.138269442485374 6.448358038555189 4.891697775409716 -0.14331586131323706 0.5761965597393431 -0.6845559595820533
Ni 6.2253292252646135 5.661843067498372 8.999709548090872 0.13870227380062564 -0.1982572505461231 0.5507711776877031
Ni 9.072875717397578 2.4006530752942696 10.28789853656244 -0.8089685562328841 0.49755551289667216 -0.03610214503919589
Ni 2.5526578860469336 5.069667500674226 7.090832734933143 -0.43381478020460124 0.5170275055783546 0.02970858280802625
Ni 0.4169139836876199 0.06598382389784539 8.957015201413057 0.7088228025492179 -0.5242957571049939 0.536010988659393
Ni 1.7747279344833804 1.2632515508958992 11.401613583368446 -0.03125561558017198 0.6985407038969196 -1.0507131885386807
Ni 4.250293253948488 7.225888264343395 1.3701881889457845 -0.2089108736052273 0.2299898057627136 -1.139857963126153
Ni 5.630019444974671 7.859217416674928 7.7140197541829005 1.143642884089882 0.9021221948694335 0.8610737615685559
Ni 5.161640767711038 2.690690464015854 5.451846222951803 -0.18951652823901555 2.051972493321608 -1.8742894673824109
Ni 1.0413674068710925 7.760485150164053 6.799882336201957 -0.3529566711059534 -0.6503680008464348 0.39225109783020184
Ni 5.091143676422449 4.613126157166911 6.977627669951669 0.051582242952665995 -0.7857576653340596 0.2602560608464228
Ni 0.943243813699952 7.623715342258163 11.135088246446346 -0.8926546216986303 0.7506510514389136 -0.18710689035625838
Ni 4.72319610021492 0.6111371040583679 10.438519751051796 0.0966768212984593 -0.9416480208781977 -1.2403713845618831
Ni 7.879094689321762 7.067079030733108 4.3591131454808645 0.5002783111444739 0.36229414645679536 0.6835360029579711
Ni 7.022827570466777 6.0924022356080885 6.472194413313307 0.11505660935722765 0.2116753237242419 0.8031894876572618
Ni 2.38342852824747 5.5368470006118145 2.201794952864831 -0.7118533618454257 -1.3553058665189497 0.6375883325832632
Ni 2.447711700664745 5.820225321303175 11.199097061626905 0.3788975593414313 -1.4711780297989372 1.309638703499138
Ni 0.9662552998125804 3.404509852019668 3.864276255759901 0.8777936454263979 0.08827934126338344 -1.1141487312855072
Ni 1.6502042707858688 1.1653096512590075 2.5785864618519287 -0.5484322451418814 0.5376251272240483 0.09015007592353506
Ni 1.0916056690909248 3.4343257609899194 8.342085244827242 0.886667293766944 -0.12340446710129069 -0.6236341843960164
Ni 3.4776960076151417 2.68666595223224 7.141611535417366 0.3560795330056513 0.8572325334455947 -0.145129260372892
Ni 4.590923207281691 6.845876237461734 5.778377666494959 -1.1195601321090654 0.8103651794700948 0.27406751280821834
Ni 0.7350557282868305 9.289627019079852 13.156398835532663 -0.6470019125876793 0.25082885399525184 -0.46611323522699083
P 0.5323020964830948 5.778817364847841 7.601067243214032 -0.24317673676663282 -0.09871596321567515 1.3244410586192932
P 8.662475446912783 1.812638290404422 8.02209567698472 0.5660409593625799 1.3450667052894447 0.0640387235484639
P 2.073295834637953 3.33509383725986 10.482796648412922 -1.3470878494845318 0.5319352759281226 0.8188369643865316
P 3.9706123966790936 6.365396770817123 3.6111798879541395 -0.7868192738293546 0.22479334916343865 0.04959040933361782
P 7.433945530411856 4.032142912052498 10.19457165269547 -1.1453138440344017 0.5361518851126313 0.5281398134414323
P 6.491510252939312 7.961792501435167 9.746072973481686 -0.20942046625179417 -0.6052199435548867 2.177351567650766
P 2.6720396227252 8.688466706987095 5.528738926645955 -0.44838676448150516 0.17387933592239088 0.3224667300472124
P 7.085966073618285 3.7812059719012847 1.6742223390782363 -0.09235942487002805 0.703282332346963 -0.609075569855551
Ni 5.25995513909314 3.110711407139131 0.781423009759489 0.9367151023529545 -1.0029688312748661 -0.4923611131799263
Ni 1.5590667940065999 1.1128638125980508 6.882000545941108 -0.3080029892133986 0.7110213528624335 -0.3683969169204236
Ni 7.088255412149821 0.8845586190728866 9.169450373189248 -1.0717494403836898 0.10471203289810997 0.059897704796896836
Ni 2.8032586931597856 1.707292379246886 9.158427934934034 -0.3392897151418221 -1.0099216084436156 0.2797997873063052
Ni 6.883386867607428 1.7118983103400967 2.478531466411722 0.33865465266098455 0.8407260511501391 -0.026410885893360964
Ni 4.404432963728577 6.876409835892269 10.130550118967513 0.05797014875688081 0.9472059745819492 0.7373044549286786
Ni 8.400491539879235 7.434972098880364 0.2950621234112389 -0.6396938089620402 -0.8970915744240615 -0.7909430661897411
Ni 7.873116972044971 4.145873979815622 8.053927475717462 0.12550043039837097 -0.07821527215916206 -1.128590874852766
Ni 3.1812811758414195 8.739858723149407 12.221559256259397 0.8144491197314813 -1.2801872310072404 0.39777202764843106
Ni 0.3029312703795605 5.225969363511876 10.004088693727237 -0.46561212722085615 -0.2993507128550393 0.010890421660258665
Ni 8.619159708347835 2.5551925108497064 5.630123918756864 0.3623285992391566 -0.22667154002275802 0.9303827323770234
Ni 4.011320833027569 2.7438449074603817 11.17973761555268 0.1673212230888989 0.3736013439394985 1.1308753000115683
Ni 1.1266906905543952 3.633625398707583 12.662306889302121 0.5834290729320404 0.16768040620053057 -0.9533192865685388
Ni 3.272009842168628 8.483461892294015 7.782110314610362 0.2984785946627311 0.6672886878611735 -0.24620112541525338
Ni 5.604373402615433 7.919412484571602 3.4607321907899893 0.21590890218961525 0.17913852743880113 0.7968110949347439
Ni 3.180935958126346 8.570275062958158 3.2918689454620376 0.6308715826847199 -0.15141817870539728 0.8902629815380022
Ni 3.5274800359993512 4.3802586389967555 9.364986229344943 0.6696487034529176 0.3166948605604417 -0.6251184822510266
Ni 7.41624858017601 6.36019125106089 11.39636173176098 0.33332269892510985 -0.4786964712086401 -1.0586877221037252
Ni 8.577070401139068 9.164349327215207 1.8642801351763272 0.2139486931394509 -0.119398174155375 2.127434371105349
Ni 4.891616921786976 0.44555342702360917 1.585069864160637 -0.5436093698319412 0.3104213688469041 0.028381636466486608
Ni 6.296471328599787 5.61724638951697 0.31644745239233923 -0.9679149249945267 0.7376682660260006 -0.3515266235276462
Ni 8.015537448866004 -0.08759899519977066 11.163409726097399 -0.17983812460898704 -0.4886826358870745 0.39928872140327365
Ni -0.035746385928136636 5.1298898226010365 5.594661883209827 0.49293806872931883 -0.7237272304648762 0.17981241357737418
Ni 7.2018956331458215 5.965943535770825 2.5547727987855913 0.07991579979003656 -0.4279814613522758 -1.6757594227908754
P 8.768321015289503 1.3555427816176489 3.8404889382560294 -0.22563384278686302 -0.3674553789427607 -1.1228858540481887
P 2.062448730643291 3.2472722674806347 1.6409678799723237 -1.753094606337929 1.2149868830505075 -1.0291645158336276
P 4.763695588999008 1.215348050591166 8.152745138189434 0.46022515187733004 -0.5549834159968378 0.32644911173372815
P 8.43641235160025 1.689813461252138 12.313889551091009 1.0528052951810192 0.9716535661013525 1.071506214024632
P 6.756083292835907 7.836051491058188 1.6415265875901395 -0.8769950607845026 0.547207885816477 -0.7743450526217438
P 1.7399154533212833 3.2482806665957162 5.942866639985867 -0.10005602218333735 0.10923666024134089 0.1656788023894695
P 6.918871614846246 3.970494295881832 5.908429355971995 -0.20380697671975864 0.2696922665586581 -0.5849871614477795
P 2.3750161176117444 8.637583432720678 9.902982601191399 0.936588346967103 0.945346038555075 0.5448514697691584
