# total energy = -340860.5224216223 ev
CRYSTAL
PRIMVEC
9.26932951276594 0.00000000000000 0.00000000000000

0.00000000000000 9.26932951276594 0.00000000000000

0.00000000000000 0.00000000000000 13.56660070012072

PRIMCOORD
 96 1
Ni 5.95471916601089 6.688451472935778 12.53576970004491 0.3116657827769665 0.5691874754113616 -0.20219540925826468
Ni 7.230633087911718 1.7186449017971535 5.330968379291347 0.3032683027418906 0.488737657494726 0.33339751802710327
Ni 1.6218731029127107 5.391598135931505 11.975469326900441 0.39419330915823725 -0.14463869388971864 0.8109297937243132
Ni 5.336584665971816 4.27721154806902 7.77504583047305 -0.2593924272945468 1.0371827581524138 -0.2893702046035597
Ni 9.110295510630486 7.1013722894975855 11.206120548707968 -1.8934256739912296 -0.40080464382716774 -0.49112801210377355
Ni 5.307859014176519 8.825550980943591 7.844900423727174 0.1161632121578451 0.34331529136144745 -2.275530170305733
Ni 2.6878181753566044 0.6996128323546057 4.082529676650421 1.1060302159434305 1.3824202062372384 -0.8434241668075927
Ni 0.4274236093333205 5.5908052939607735 7.168659278509276 -0.18633607362850488 2.2953664883053695 1.5512072152383867
Ni 8.008811829285927 7.89491030967941 13.255504392650314 -1.2432157959892136 1.3501952847652618 -0.25880081645713493
Ni 2.415726280293968 7.0978499443274625 1.8850655148231492 -0.4374608615976209 -0.055260206024885475 2.427616835833064
Ni 3.2762815520020876 3.2205543436789776 11.33238457292868 -1.7827440537732457 -3.2419060329479135 2.3590339445573436
Ni 6.455188798709054 3.326873551840334 3.499070810945332 -0.07342247875620904 0.39578970711107964 -0.29965307458680657
Ni 5.144125579742152 0.9538047254224392 9.596741574886861 0.25874862306296087 0.3988531765277518 0.7204907258054495
Ni 5.917261805925446 4.212103778398108 9.946814484284271 0.12828364957046295 0.45669451301625225 0.8367477832286816
Ni 7.304194485990927 2.657563084211124 13.564456702985352 0.6913045911597966 -3.1426498809580523 2.621921272379027
Ni 5.343147351183519 7.045348462633834 10.249078046527835 0.8080175051735246 0.1651141881352511 -0.6996817594798982
Ni 5.864584206973312 0.8714875187966555 3.6314396155056294 -1.878589123199029 0.06642779260593076 -0.3504393040007384
Ni 5.363595491829025 6.455883998413684 3.716516301492323 -0.3052159133865647 0.4296303098096085 -1.4762263908561222
Ni 1.3597179289615797 1.5081291619059105 7.886047903844792 -0.3469983966399895 1.0631964086073562 -0.048772027197380524
Ni 3.2192010215872986 3.3295153107179263 7.209156051703361 0.8397456895147408 -2.0698216056878866 0.44721434143995875
Ni 0.11078146333213869 6.3451247814720935 0.5994948055585457 1.1586352437336562 -0.03727713918390354 1.7013712098217084
Ni 6.3114956544268095 8.158075840534602 5.1379160559804 0.08467851128600257 -1.017038421994055 -0.43395053445151716
Ni 1.9436207955446927 7.808761162281708 11.195009403562109 1.8199268334711303 -0.575030821566016 -0.8643506325476146
Ni 8.072251119665728 1.5432228429956134 7.87869454483569 -0.5093792450044775 -1.0722083822979793 -0.9128560363471698
P 0.4517018368848657 5.881259730555027 5.094340011561277 1.0304112437565351 -2.4696368890185916 -1.9858213514158314
P 5.96519350822731 2.169653392843269 1.8141801721402948 -0.49225184129557165 0.37546925038617274 -2.100878989214324
P 4.607329445144742 5.574231733002403 0.2017311964235432 1.2977890032494037 -0.9075803897705272 0.036488581844337155
P 6.547566935460238 4.498210899506078 5.151536408593504 -0.5238712679730656 1.4246189510924754 1.1082506206335172
P 0.6011095227391654 3.5813073744053785 6.956491744119834 0.8712512163221898 -2.848788216242042 -1.6738884310204076
P 2.176355117995898 3.8385776117653116 2.4109479409908134 1.380807867444796 -0.7645391222749156 -0.1265108739407563
P 5.79136577408172 9.039533450028587 12.823082760907177 -2.0398474279232994 -1.2517027504143023 3.1361403619743085
P 7.3941625970993945 9.19512841325409 6.532969595528895 1.0460273530272373 -0.055718376608226615 1.1279774096384834
Ni 1.331288895706926 0.5122824660792301 12.251603576512265 -0.1681483469758846 -1.2777539389753996 -0.26683757071868236
Ni 7.467130758097319 4.731566267026752 1.1113972291325782 0.21865201215239116 0.9105736680708962 1.4512959461630295
Ni 2.05919079444232 3.1247280163928313 5.035406542200415 -1.2539357535098794 -0.3343678523601725 0.2416438450618741
Ni 0.878328283890211 2.549009967665558 12.616490728148863 -0.21888803942259719 2.9866158007471983 -0.13146976060792842
Ni 0.4424343613556832 7.33844465810568 3.4264891809831814 -1.1377231761713373 -0.02176181715712381 -3.540919159957876
Ni 6.965178032695946 9.083896460513351 11.25923380614167 1.8038875206200804 0.33217187315011826 -2.1732146626642574
Ni 7.973551300267112 9.074580784471314 3.6181177352990472 0.5112006144839325 -2.975864475767965 1.3567775659684695
Ni 2.6974119312804934 5.297115861407643 6.363197192993645 -1.1689888190538384 1.0466678148247135 -0.4435044966885394
Ni 3.48143035017359 8.214794867102984 9.22474577453719 -0.9128282684330279 1.024322614360294 0.6845199641377953
Ni 8.83456076911559 3.4879559580677135 8.838748652136278 -1.9759696554327324 -0.4423593273405027 0.8951565621848777
Ni 0.31281762069277946 3.045883100558438 1.3910102580663681 0.12015047894036728 -0.06294446204302064 -0.1295810282256478
Ni 4.344923999299945 9.245312562598953 5.376877513919208 0.09057790748957303 0.23651912224079913 1.1325249197998495
Ni 2.4733166238254856 1.1553477544592627 10.042689939016213 0.33130823959824235 -0.24531486615555814 0.6726134425081964
Ni 8.135430868822468 2.3457984593376233 11.297898959847293 -1.4212837160716554 0.056097357214200165 0.21867952295621695
Ni 4.872617652431404 4.561789229826805 2.0322226075003282 0.1877103282682122 -0.3330982416191296 -1.4466065111071602
Ni 3.8480323277482746 7.347853027441667 7.117649231915313 -4.898327417531809 2.4425192068661934 -0.7968162371410664
Ni 4.018031828853704 3.8605644610903984 3.966345121213901 -0.4748598710713693 0.6929367274465809 -0.1470069370115791
Ni 2.12169388255322 7.8156111967046575 4.760533848319259 2.1883957412800696 -3.2323908943686264 -1.6685356513489262
Ni 7.626637378327539 5.571914400653638 8.50708648478334 -0.8720570000529368 0.4764305579925988 2.8211532281335927
Ni 3.952562555336384 5.321475659057865 11.444065161212139 0.9729347468066212 2.150864319993515 0.9224650201918436
Ni 5.343898166864519 2.0546859003563203 7.055595706280074 0.7599941832167105 -1.3216961488843044 0.921972139715825
Ni 0.4469374015758041 4.96688673237918 2.7716833599913637 0.43005094228679486 1.5044151945855122 -0.6103189553443489
Ni 0.21766888138541202 8.494747153492634 7.735662303739313 -1.396828925463401 0.9260198274226373 -0.5856427927539076
Ni 4.903558673952119 3.2810459873111495 13.246849619794144 -0.5410971449330487 -0.04503672852466437 3.087548569108534
P 3.5308822224962437 0.9209699799063127 8.12878105191445 -0.5121159272093503 0.21779249236557333 -1.241850797320887
P 4.346870558472907 8.526726339905595 2.861589366592884 -0.48967199638353726 0.3742502903774071 1.2652828030915821
P 7.226193079131484 5.6970318088281795 10.77236876819664 0.190265233479582 1.638024884354579 0.5574761005117044
P 3.7060076627571417 4.122404477842097 9.679755835083153 1.0321115142770934 1.2999060495924064 -4.179751906471202
P 0.6373831894608598 2.2608914020788595 10.286766212915216 2.1762557634834265 0.2317229864037364 -0.8727987633149679
P 3.157040898664016 1.5760918850305017 12.789654778309764 0.607537793054786 -0.16555744632025682 1.1512245530918819
P 0.8544773724237781 0.5540398680710429 3.2699848965440226 -1.5538685641206338 -0.39307436506244564 -2.1478815832161073
P 4.234887790051169 2.331597846704389 5.3330576861369945 -1.058695949633841 -1.7619186323874623 -0.1440573674649519
Ni 0.06119982039795442 0.07940385639691583 10.12969186471826 -0.06296014577230448 0.26956525406249054 -0.35510328513531103
Ni 4.06635284299016 9.023293584928439 11.375526812732113 0.3328920391455944 0.47436236260966047 1.6598782327842445
Ni 7.6252191709300945 6.028790377206827 4.012444277094361 1.1799283487844776 -0.2685429834455633 0.6027388290042459
Ni 2.865316563942639 6.029188958370815 8.94852995482669 -0.06529882120781012 0.2293370026700631 0.10810717462258801
Ni 4.523386398143065 7.935611935053125 0.8442078823869894 -0.6575115538697515 -0.577101845162432 -1.7287300614506356
Ni 4.956115771622119 6.01788037650884 6.0708230782816734 3.1927316281057916 -2.76550967062736 -2.770512008937958
Ni 0.32562134538617793 0.810408199680837 5.260150702713077 -0.6827793272976047 1.188680641055811 0.9921020637636911
Ni 8.781336279729148 3.672610268946735 4.273465812060476 -0.654337527017144 -0.7738861107074542 1.8678763647672154
Ni 9.20500024905983 9.278691417750569 1.368055690752438 -0.03302067790039474 -0.08023178836855858 -0.6562833378896052
Ni 7.340400486608037 6.293012611613057 6.463128906268864 -0.5156524796076991 0.26023112114575825 -1.2704949434201411
Ni 9.054151182484599 7.7017282157569324 5.513290526894572 -1.6917043761559059 2.7748584588321115 2.22254307658574
Ni 6.397756033777252 8.652863374313593 1.7705225576224946 2.1759608579508267 0.16367822701967294 0.10657608269004226
Ni 3.8002396653873376 1.8441052751593119 1.976627023654628 0.12248889726555678 1.1998456565336948 0.13306075924413213
Ni 7.263780209828459 8.648812677367951 8.733376769439099 1.2955158909445108 -0.7559105000656401 1.0271348869981085
Ni 2.8950896499595764 6.583003581737558 13.396421372778736 -0.7801966263065144 0.41780812036369985 -1.9332296933620448
Ni 6.764256048728591 4.309709816928105 12.461207214391035 0.4672589187956598 3.5327443374565677 -2.957798876515506
Ni 7.917193777545138 1.6747917044291174 2.6777887609511484 0.9944229985873841 2.5146003411031597 -1.431933482476018
Ni 9.190521556544745 4.740140396717185 10.85258832558032 -1.742980914942695 -1.2971688531669012 -0.7078244431916907
Ni 2.761064416236381 3.852898725680682 0.06349676022205068 -1.1076314989922795 0.36911065515799657 1.5623362352720127
Ni 1.686192979585043 4.055275994363061 8.835289338406042 0.6690820323161702 -0.3634781394625676 1.0540237409691524
Ni 1.9961686238852965 8.984408748116156 6.420569707284377 1.7810360699432037 1.7573716364467282 2.9214851296861366
Ni 2.4343483630486467 0.13000697943043588 1.2243996237877737 -0.18164123925599687 -0.3099495714168082 -0.6491624105741078
Ni 5.589822745044898 2.457892459712103 11.39161651469606 0.5934589463642166 -2.0121178232185155 -1.0127997013223589
Ni 7.546856260224244 3.792008500884523 6.8401579524800535 0.44750539031781644 -0.8791581298740924 -0.1844817940285855
P 5.328362770798395 6.464170778892869 8.16309147467027 1.8923679221506762 -0.38012603243189375 1.5141617324493148
P 6.885220797334145 2.2898024404620565 9.55558111770809 -0.6249562456415496 -0.43065695130190995 -1.054272880865481
P 3.478204623544109 5.957815122028841 4.471442930079019 -1.1482297321296162 0.6005495346624108 -0.7102093984840995
P 9.120788391505696 4.587632120180237 13.176858767397913 -0.338377744850514 -2.6277440497083906 -1.0084843617764567
P 7.818985232604461 6.770726040646344 2.0746993094531976 -0.444989308764182 1.4312837647071608 -0.8412158463023641
P 1.1559131835523613 7.958293984082841 13.306108442616774 0.5673493937613584 0.26666582102750847 0.44269254231020533
P 8.253067928175193 0.8623062480308471 12.887930989355027 0.9126274652761316 -1.0086558543573145 0.5023223381576961
P 0.8523843578463731 7.237158695805842 9.165405381615885 0.8671009415992422 -1.0427646231155654 1.81664739138891
