# total energy = -381169.23156761564 ev
CRYSTAL
PRIMVEC
9.21333053380889 0.00000000000000 0.00000000000000

0.00000000000000 9.21333053380889 0.00000000000000

0.00000000000000 0.00000000000000 13.48464053394774

PRIMCOORD
 96 1
Ni 5.356915835322352 6.601222155658659 1.848231827887726 0.4882306359513204 0.6399509192781688 1.977659898650962
Ni 6.08851875249643 5.25058479061463 10.439376696405569 -1.5972068218969524 1.1316353181060446 0.1519912776000479
Ni 5.606219339242829 3.774323667266312 4.790283124726435 0.0836212736660818 0.4763284851970958 -0.3383108961683206
Ni 5.882020381035191 9.420630206537155 8.27993331314523 0.1701754047082424 -1.0316695416436683 -0.5147955309240424
Ni 0.921738414066311 1.9914889790059909 13.512284001811931 -0.5809291893283222 -0.6395444278683694 -0.11636658641790282
Ni 7.165980874876571 0.8002191943996882 10.167741922563716 -0.28249790296375865 0.11284546063852179 -1.032236727001048
Ni 3.102478410258101 8.27467618689012 2.3850280897199747 0.641750691491069 -2.086063521468046 -3.2664616108000906
Ni 3.742906211027396 8.029297561666938 11.840876251234624 -0.47934130388149054 3.095061332545812 -0.5779441385580691
Ni 0.4871576023077887 8.204691730118624 2.3605270805187577 1.056660407261051 -0.35987808081613504 0.004318424869695789
Ni 7.086386914627892 3.995719993782779 12.01169968653671 0.32310950583753384 -1.1888161381924107 0.4229945496606457
Ni 1.9331778116933516 7.290010727043224 4.190365415844791 0.7324142167159128 0.12186386208704819 -0.5962861314003666
Ni 2.134636491493979 4.534349708339821 6.859232256689336 0.580159143931517 -1.2613297319811052 1.5472626287683418
Ni 2.9027518365492377 9.164453558231271 8.358467740412246 1.553927185272711 1.3881859050764223 -3.1870353490519627
Ni 4.681108846295743 4.529134963403977 6.9679993059218575 -0.05926752741206567 -1.213018703580543 -0.6732950419562533
Ni 8.128829168631459 6.815358377918158 11.752497380568405 0.8364580199024045 -1.331426745908507 -0.6879140774210089
Ni 4.351557235677037 7.764828916113248 6.747511413770539 0.07969339936658533 -0.12154041730935843 -0.7213978110007511
Ni 6.318824369389153 8.183639270439468 11.525119760037185 -0.4100619007593777 0.3901829024472635 -1.390193165314438
Ni 2.961330190439862 5.669671544849109 2.459989587506212 -0.03828269763028245 0.2063667670271349 -0.15050826529661823
Ni 8.250122661706335 2.3654764815426716 5.122045934611223 -0.504707293450105 0.30633768569583375 -0.6601294511085728
Ni 6.857573857239775 4.762094019415999 2.62474512348896 0.12841631849358529 0.49391868747503326 0.6105655241375162
Ni 8.275081573422236 5.01566329525396 5.218919495791307 -0.8706225815992554 -1.8772277240751285 -0.11084385682746072
Ni 8.678358252904228 0.5767461832391589 6.4894018087728895 2.194067594853866 0.9351315599159186 0.11144446652593709
Ni 4.603772151964523 4.082859671526964 12.376229705545754 0.306330229496666 -1.0315294165213782 -2.2385461368822157
Ni 5.681501460922648 1.1197973749953372 12.309629304984389 -1.5005148310898415 0.3089851506210098 -1.6887416939831563
P 6.943626362011469 4.1386095330230575 7.003503795470915 -0.028592466925712046 0.8238462446756649 -0.6875392105800934
Ni 1.9825428353086336 8.738585792914138 10.127139697373313 -0.9203893686097375 -1.8434591122651154 2.141895540836001
P 9.064636338028215 3.640140725136231 3.6350678654866284 0.34171632230544374 0.4918769744546561 -1.0139507842076665
Ni 4.439378699861596 1.929529332904316 8.336460779716564 -1.6950943756740613 1.9577279356137252 -0.6758707731032295
P 7.089952473444449 0.20723359521721163 0.2608754467463076 -0.1882201780250952 -0.9401706650017227 0.44956304417779347
P 2.1907825261919127 6.558767129749884 6.27657387941249 0.18889869214935856 0.06926397650314522 -1.9693601205360145
P 4.580628266312863 0.6432673491601554 6.32943351920121 0.260732486262209 -0.9612200294728542 0.12137612381735224
Ni 5.588529745114173 6.157296263001857 8.144345338148161 -1.1441159670715586 0.3851718223859173 -0.17998082083443842
Ni 0.3343222730352786 4.701838839415262 12.153032172960456 -1.1149570861194154 0.0029004614762466177 0.28088504995068403
Ni 9.191586815892153 6.9837135620394815 5.494802536223118 -0.16229600196016564 1.497234617676673 -0.14689560824469539
Ni 4.855203935178604 7.718808331387914 4.280307788658734 -0.8792877134734213 -0.3110366338333998 -0.8377548843369572
Ni 0.6829334999945851 7.426423295099937 7.743231027281791 -1.352019482458194 0.5845814413689288 1.4465422335281282
Ni 7.246929194675725 8.244548596889754 6.857087393401236 -1.9468123171424858 -2.8714805156332353 -1.504864109197473
Ni 3.652311534429958 6.0168390429542695 11.309500191603359 2.178110557303978 -1.6759476275422813 -0.6174046585465366
Ni -0.19472373536935234 8.498016526094686 13.289773783665174 0.006949691844955773 1.025704582309485 0.3581492710504864
Ni 3.553176100667279 3.008373454825758 0.9236870334195458 -1.2146672949275596 0.11629665241191584 0.749098105129497
Ni 2.367641614157377 1.735515023966165 10.363323418981704 0.4304273517896071 0.40009733334749803 0.9792203227050167
Ni 6.252755577984677 2.078978763300638 6.3296094938094685 0.050998859645370244 -0.5206782149570646 0.836466761653153
Ni 6.612407138612925 2.7836326894193415 8.698253518300803 -1.0058065578339774 -0.7851465141126219 -0.12307176635222032
Ni 1.315341096759195 2.734516425721494 5.187001755718439 0.09846322377492074 -1.1965212201461521 0.7038032378474395
Ni 5.961826247880203 8.748158443070219 2.3310084916495897 1.8577595880481874 -0.1011374281729742 -0.299847964206432
Ni 1.967700160235058 5.118705181053384 10.430167051462336 -2.38185685598913 -1.95982492735207 -1.9782435390685738
Ni 9.04372207830319 8.940864459109273 11.032754783457774 -0.02393337088714588 -0.2543558933119039 -1.0713455200770516
Ni 1.320998081548255 6.862438495625155 11.478233122265971 -0.9266955133334234 1.6030514536031877 0.5125046780073368
Ni 0.02490363173424932 5.881384661246193 2.9907179500191203 1.0295085294366078 -0.9802114829736924 -0.12722795461243894
Ni 1.7871833801502828 8.72149506525338 6.17364623890848 0.8690398104931679 1.3949471350596556 -0.3447430249469095
Ni 6.856790724166371 2.2393552034035156 3.3186913171616608 1.8700859708240245 -0.7399285228150869 -1.0773261631405189
Ni 3.6331478074572474 2.465717514938392 5.813969802288487 -0.08596920507296807 0.456814069313252 0.25374294231825334
Ni 3.342135557380296 0.8918540559852118 0.12667223528962154 -0.4253334822064675 -0.8372936284298225 -0.6836141644940742
Ni 1.2431730807124413 3.894990653882466 1.7686046996500557 0.6525529243128955 0.17136942501634359 0.27213327189998293
Ni 8.783749537923866 2.9293138677330486 7.320069217066527 -0.00438913020663115 0.33238218938871145 -0.17262412335905108
Ni 6.119447902230753 6.18565489358936 5.352255732869083 -0.16563612207699216 -0.808732271852362 1.9023517728362658
P 8.41459903378174 8.811518515373747 8.461234147636437 -1.7295561568963567 0.051136927885131286 1.6718999398354688
Ni 0.6854855924808548 0.47531663023791926 4.305645368248952 1.0600398652562453 0.22121180245976743 -0.8241923151611741
P -0.057340082301618224 6.124091420689526 9.539938226937695 2.2834975047819257 0.1138924138457974 2.0052599197564174
Ni 0.2923739802916467 1.2853701333735075 8.801883214571793 0.2663531748830961 -0.8736186881131018 1.3007113191025212
P 1.828597299737945 1.7905830990218838 7.225380136494728 -0.000962621023585439 0.09109701321783666 -0.30952071140950566
P 4.450701882769991 7.354347412355937 9.689442015982642 0.36752557005906383 0.49658954943897704 -0.05426364643957105
P 1.709763765846584 0.3563476603915111 12.18072928643419 -0.002100591282770576 -0.3367636062858588 0.1521506859960476
Ni 3.04466476278033 0.43583566734202384 3.896292497450371 -0.08640115040406411 1.948998269050211 3.820906894905271
Ni 6.196167303433525 2.112828538732244 0.6980405976470634 0.054334351776506425 1.4978840783352139 1.5776561534585345
Ni 7.791510720590638 7.140229616756991 1.3562713165074014 -1.8184363649685327 0.09186577306306115 0.004824160861520724
Ni 6.212309058075925 6.374795350811856 12.937487359259036 -0.4138223962430744 -1.7894978275573115 0.4457282438127355
Ni 2.319732296725599 3.422365237417974 12.357135078550106 0.573101208643471 -0.7903144314668067 -1.3688131569767652
Ni 1.7851011675080555 1.4427061744855223 2.1504898688987595 0.4248776256159715 -0.2833772202449184 0.4651459862177151
Ni 7.36664720827352 6.884532061625425 3.6482963650959643 -0.9198833755075965 1.7993690639244366 0.42789250118289535
Ni 2.9900297142475525 3.3031447436550487 3.506019512318996 1.491277885872606 -0.8256866403185135 -0.9155886047869845
Ni 5.056201948465464 8.329025622184364 0.12443523869876852 0.9172161130880785 1.1485801734904995 1.5011285534144405
Ni 3.8113151883218097 4.547985437147327 9.279225856137261 1.0624176214598027 -0.6763448845261706 -0.8366179425190365
Ni 3.9302224288553735 6.299375029177906 13.64187133480067 -1.0158487725613279 0.3010175590345009 -0.4004997109922393
Ni 8.228756948797818 3.2698109147188616 1.4876792035585489 0.3398229619374728 -0.30342899668947093 -0.6765495443378091
Ni 1.3944651771638314 3.2558619326819938 9.028829651246127 0.877925543018572 2.203889208929979 -2.1250694704175985
Ni 1.7579126298655212 4.885340738509249 4.632445878447442 -3.0724775337080246 1.054890716955138 -1.4238126531410964
Ni 3.8117666415053018 5.429857771112233 4.853607265041887 1.622054991288884 0.919304877296307 0.2876017998492273
Ni 8.590757908646278 0.9296710914333804 1.778179192472191 -0.9035463289104696 0.05166966046014973 0.21964497219327977
Ni 4.497763573816438 1.2078860257578816 2.2968657323152275 -0.9011590596252158 0.8419612091088209 -0.4966049760579447
Ni 9.096403900817595 5.231946223467613 7.63415348881899 -0.4520868390409117 -0.2662143353123867 -1.3056720055419062
Ni 4.546971970817039 0.5285586232330654 10.260691526379532 0.031733326547538895 -0.4994524728090689 0.3993442572315574
Ni 7.97167739412495 4.268434569932901 9.54577671433318 1.798508515696354 0.30427720362237914 1.3118223414140182
Ni 5.6968692958219185 0.6421230535399578 4.370129466846071 -2.4957914359267726 0.31402297015523334 1.52104637538429
Ni 7.766017435718767 9.259489060021423 4.394293268159211 0.22669365150994508 -1.2933415090010112 -0.4174178269038166
Ni 0.42399193127307183 6.248388459434163 0.43575182603651824 1.0562886257439292 -0.6766742428411314 0.61697939808366
Ni 7.317963971098612 6.961831902635544 9.170283753629507 0.6409004276756317 1.8354596389994067 1.0746100497609363
Ni 2.06032176949307 7.819463964646026 0.048037382722605444 0.8323056882969277 0.8481452264323458 1.1914360923137608
P 0.43354154810346374 3.0369716320004194 10.870548575962212 -0.8358640950721475 -1.10187351346258 0.6670953409034447
Ni 7.9835810168406915 1.5910223652579771 12.146747760379645 1.0817793138158658 1.2801656337406855 0.9802634192575506
P 4.313727301566482 2.7981528979332806 10.450258560793774 0.42236077273138867 -0.17595935837987114 0.7000558549898653
Ni 2.760092630565843 6.753260531862352 8.268295955674446 1.4715742367960916 -1.286291029912133 2.310781794419175
P 5.199552154219511 3.2081553085162735 2.6973056274054428 -2.0206240609173136 1.3133976563209382 -0.6623989638690398
P 7.816091885765251 5.016418788336538 0.21542516716501817 -0.3729487979571641 0.7995806872600809 0.6372905988371863
P 2.2962290911932013 5.052258643107618 0.1647969959689866 -0.9439105916601293 -0.0038697673680513993 0.8289611973047272
Ni 5.163491179521822 4.554886221523558 0.9310291363159658 2.0620782142970424 -0.33657025932813006 1.325486212054356
