# total energy = -340888.93682253733 ev
CRYSTAL
PRIMVEC
9.14963544771299 0.00000000000000 0.00000000000000

0.00000000000000 9.14963544771299 0.00000000000000

0.00000000000000 0.00000000000000 13.39141633705102

PRIMCOORD
 96 1
Ni 6.237041066046174 2.1238042035081026 11.44139847580585 0.7338586624719233 -0.1441553264953969 0.866438882535211
Ni 5.067800017400851 0.5937939487060051 6.196449623861591 -0.4281794362956948 -1.251483949535277 -0.14188478529366533
Ni 2.9716185629584895 1.4759002264152505 4.7984658620021685 -0.6619127682612407 0.4019654969044884 0.9682252571460936
Ni 3.688657184616014 4.5470759714155875 5.170184436760126 0.4336584571323951 1.0222821868914975 -0.9407807877818959
Ni 5.030625049049042 4.6410427262699 2.8267542166822124 1.1251409686309526 0.3846138929999182 -0.552378888494455
Ni 7.3713671062665655 6.2425765954217205 2.848648379066914 -0.05527537553353706 -0.3936875731664123 -0.7030720161083698
Ni 4.9471163273786125 4.459943994153892 11.585101733358561 -0.091247679863088 0.18275195582167236 0.8428626378771678
Ni 5.493624045727988 7.735742183707477 12.548051443966177 0.5932519725597332 1.6571811455680558 0.23482630791940848
Ni 1.8748792246798232 5.8420238598801335 0.5063563736242375 1.2070946247866243 0.46076379798961936 -1.2355176560140075
Ni 2.819524174843276 1.447829145218266 0.33610453419369957 1.1525990648419056 0.5449846529129131 -0.6300496010040568
Ni 0.5755697050527607 0.08173369241612226 4.597447458805992 -0.016487970352694187 0.5964457969066824 0.11484166513294417
Ni 9.02185152444181 2.5866568060217463 1.3743346994181425 -0.9107027374495928 -0.694680449610565 0.9945561817311388
Ni 7.249988043959135 0.8168849321758473 5.035105625470869 -0.33229580032249223 0.3982003734351013 -1.5657059230751937
Ni 0.5493157414326083 7.403033994148823 1.667941007424178 0.39594037375633095 -0.2633131025051917 1.0059988763504417
Ni 8.07085672735831 4.058421397267167 3.8978800658139305 -0.8539191528016454 -0.6215778160876199 -1.478021277973016
Ni 7.44434459767046 3.8035583051087563 13.092466640715243 0.9520453049521216 -0.5638696627428741 -1.2506128597842332
Ni 8.113512327273675 8.924856240292778 6.986542593859795 1.2249619919853485 0.22886829056376068 1.3200745541204815
Ni 6.797694120618021 0.680052135793545 0.10543582274232452 -0.37617296132141664 -0.4073941241192274 1.0390750900791201
Ni 1.8815218599304784 6.693525522369107 9.5506775725131 -0.809323882689774 -0.5580707966729098 -1.1998829375295335
Ni 8.970851457104134 4.9734032296859585 1.3832125905802788 -0.4113299688385238 0.004683778628914515 0.5326037627500568
Ni 6.835317421101072 2.0732341690310054 7.2395199461763875 0.12343969121460031 0.24043954034112783 -0.6803748316211701
Ni 3.7750663406865237 4.357202739016688 0.4145022695679637 -1.1773551887406626 0.20101912956197637 0.36589369088259566
Ni 6.118599036680149 5.533214517807309 4.920126733077809 0.012995383818403426 0.7705393057224085 0.16279865262819704
Ni 4.9719026894915945 3.146147856906495 9.43794857544805 0.8124508583545298 -1.1826390628474213 -0.38344481239248157
P 0.08300549172719815 5.949715067731668 12.764028585965791 -0.3431551116344993 -0.9913844688713765 -1.269806916214181
P 3.943950309635005 6.303897451413308 12.619748901387197 -0.47460070387271175 -2.104171029702034 1.4630908819154287
P 2.3883567594825528 8.636459734644488 1.3438417097489148 0.9292329350432964 -0.8777193405450366 1.4054287513172699
P 6.687715503933616 7.929613806746232 5.912122876008744 -1.978822294390179 -0.9249528196107037 -0.9922609579390589
P 4.730269970022506 0.9089677771154081 12.54213254487024 0.2453369776427452 -0.22962445200349485 2.4104884036828937
P 3.6454251576747656 6.420866389490964 8.386802784989689 1.6825599906524766 -0.9919647668548787 -0.32581199237036146
P 4.9476287069571745 1.1331091387213044 4.029409733558106 0.7556893851937695 -1.0112940633111098 -1.2566030159293973
P 0.3794674009201888 5.797886019041067 3.4450490588788583 0.43823604920074855 -0.08621191721139346 -0.43900095239123105
Ni 1.86787975365124 1.125514941396175 2.5604787843748453 -0.9989178011339441 0.766995297124892 0.7192985052695612
Ni 1.9693492094773675 6.56160608015981 4.817588599844965 0.4657967324278365 0.2502603830862916 -0.9262111174978371
Ni 5.614490728456857 5.5877554940182685 9.549298722468645 -0.011699290714799205 0.7327104078000929 -1.356841843547502
Ni 8.51528196431435 2.3504040721275676 10.331705083824872 0.7621629087332551 0.6397904824409045 0.5079286286008801
Ni 2.2105518960858768 5.435533011008414 6.972589399979285 -0.3350232265559843 0.083117851667102 1.2683002497616673
Ni 0.7059812873594297 8.81282810529412 8.935047104124981 0.4051927455925345 0.04241985972710759 0.46225915158822317
Ni 1.2947465964872527 0.9809049549821134 11.520273822144418 -0.23629800736892856 0.5684169157939243 0.008352999950385614
Ni 4.230132603533076 6.811629015227867 1.3797311543366502 -0.7125362468450631 0.9735754657144137 0.612312845845926
Ni 5.7226943158869545 7.908084714811258 8.100976411906013 -0.47716640771735885 0.2937539354935521 -1.3018724292901578
Ni 5.3004020467977675 2.9063908126803595 5.239405087896914 1.240190893119961 -0.03693158291902671 -0.16034093511632388
Ni 0.8926311032310483 7.553179509938429 6.785095987730105 -0.5651210186514719 -0.8068949615333072 1.095707493861184
Ni 5.502627286894167 4.630868331781293 7.166938633982346 -0.8306105599826921 0.13200352162421136 0.13801913169067198
Ni 8.254425861013818 7.168409895343649 9.416267599566574 -0.5938225003512224 -0.75728989691167 -0.17920563323131072
Ni 4.651756949243065 0.32422098782517167 10.518234124510116 -0.05468813557149936 -0.4952214654468567 -1.1029850013592035
Ni 8.53208984441828 7.158738730798272 4.867176878450993 -0.8738991954679982 0.9286359248892458 -0.17660239128050875
Ni 7.459203605448786 6.230389281160187 7.137303880107211 -0.0017030987340357765 -0.05616343456544521 -0.24756458142168333
Ni 2.6086250804526325 5.212931533028806 2.635765643736405 -0.4960349624870877 -0.4128610607710696 0.8465269741026326
Ni 2.420664121838013 5.116878661318916 11.550350503406062 0.8229039353670536 0.2018010020333234 -0.02518858345048565
Ni 1.3464145872041275 3.2833466387020565 3.8888942089548824 0.9558592793815733 0.7109061674408079 -1.215687765772274
Ni 3.906500852223252 2.5843602475535445 2.7311121635987057 -0.3758490023230946 0.1065917664193261 -0.5611244958975691
Ni 0.952797275243803 3.1628459413864483 8.249942539701394 -0.5240471314292976 1.5532589555610927 0.3704728256128458
Ni 3.7657154133777495 2.8547960190461366 7.242037925819611 -0.5612756767634527 -0.41724067789600394 -0.19342049127911204
Ni 4.0559418460923355 7.025785379796518 6.272646871938633 0.5408320641971203 0.1274567827937934 -0.8284541757613216
Ni 0.5545923361282735 7.5940509309641575 11.293289668841028 -0.0767793110435839 0.041687095326141115 0.779182068999071
P 0.20507352157508935 5.502700483976818 8.089780918114412 0.27806943487875985 0.5420438251170342 0.8858710231178937
P 8.77095022438193 1.3593796204688364 8.313418134813544 -0.837552281407848 1.6115396935798567 -0.04590961804792094
P 1.8501660596494922 3.1188636443480173 10.686885692721177 -1.9548603842579428 0.9165630528851119 -0.836808718373604
P 4.214349482586271 6.433794824214347 3.901187658986261 -0.40589697074841063 -0.8726218714174714 0.00024476902095441717
P 6.859637151812149 3.9476101637675973 10.505646056221064 -0.10934798900822458 1.0065380366833632 0.8585962465623407
P 6.216655678527634 7.688603262479685 10.100890893171727 0.9057088837794274 0.25679587021196415 2.5377076165445844
P 2.3043814064102173 8.70195282434723 5.765058042435245 1.695885504116789 -0.035525446600119456 0.0042225227217798245
P 6.925843913070747 3.740343474603552 1.8295619958465295 -0.245224620434597 1.8031228745399137 -0.3080718947781211
Ni 5.33636926328582 2.7671333629352146 0.40682572552485097 0.28181707484665014 -1.0967940420571434 0.22796171958909128
Ni 1.4923055225645965 1.2408369451141648 7.0354748436125565 0.5054914799142971 -0.864497185427808 -0.7610334231145022
Ni 6.717525015843582 0.9690378779571822 9.379160338516218 0.36924923761838985 -0.7932287769001243 -0.6429261998564089
Ni 2.5465265054578694 1.5577071159140248 9.278149279420198 0.8603091154883894 0.1784736401612926 0.03855780566854005
Ni 6.5258218563783865 1.783163280117055 2.543511700616146 0.5770956745148448 -0.3929077575775943 0.686082937749541
Ni 3.9964783660730387 7.109275802196285 10.674846602552014 0.035876402181634987 0.0796715449897144 -1.017186517536145
Ni 8.110236757825005 7.656506341736849 -0.09832838601682985 -0.9267011697603783 0.2431147731804458 0.5900262665335838
Ni 7.435405403951603 4.10581650828424 8.500228069303464 1.4701663007049712 0.21205893231590575 -0.348253094982697
Ni 2.5237896616591384 8.120402002678281 12.716448652315021 0.6768498491870473 -0.20931093725712338 -0.9486931006504371
Ni 9.420556033646438 5.013771420768453 10.656875803797451 -1.2427697095907306 -0.40044417516395553 -0.4642196177487038
Ni 9.092248818682227 2.5489054106440543 5.678697379431993 -0.547745760597818 -0.11978769628430982 0.6462066703798935
Ni 3.6320300915494768 2.467967736501771 11.519644327233612 0.4716871297703425 0.18823971840912096 0.30638088022894333
Ni 0.9920675100865205 3.5044933246639594 12.839529546794108 0.010277984887240363 -0.12106964832052695 -0.8562400876253383
Ni 3.232044633398441 8.61905712824401 8.024538528419752 -0.19221978610279153 0.12851196353118513 -0.09020612597245109
Ni 5.917078318504274 8.009782911520672 3.657196163528716 -0.8356522361716576 0.6902944047277273 0.893433923066816
Ni 3.275331558151679 8.40267740228981 3.6296090980407665 0.24131268697470049 0.2798280694410794 -0.21901608036002926
Ni 2.978736979246382 4.337485274877346 9.14250685059452 0.03654128945914352 0.5993825109375032 0.2750339904865457
Ni 6.936585584949907 5.944710217205348 11.743990640670933 1.53704583613634 0.007424574598845277 -1.428053173585005
Ni 0.5853104068266557 0.4887058121062769 0.47726602305132587 -0.9073523329201211 -1.3086439436860366 -0.27609071388583417
Ni 4.764343211996942 0.20725387967458134 1.6432067982325844 -0.2565058497753711 -0.06308612982720747 -0.1806955875132759
Ni 6.0178798509512035 5.529682758569357 0.43573033850053344 -0.06316274870141379 0.15824008672323714 1.2671435104494049
Ni 7.734461234761069 -0.1301828414233819 11.366527009888339 -0.18884084232822962 0.01907861389800585 -0.6905150053789656
Ni 0.12102771631070176 5.114362511602759 5.668144190040663 0.2911841178838469 -0.8981030464077114 1.0250975448531054
Ni 8.095185607704718 8.787218276001305 2.7827362360659897 -0.1644439015411039 0.6902093012130888 -0.4451502598220785
P 8.89534866634875 1.838948606733096 3.4677474742091974 -1.0171250681705901 -1.5800555069286466 0.641652732460624
P 1.9822410456594244 3.237388020432026 1.431207917675097 0.9906686737512747 0.702482462153487 0.8265299621554152
P 4.839187229008459 1.0926769001914887 8.28480082038727 -0.434825995077935 0.9931083935410185 0.14495313980634392
P 8.467127433564762 1.7267649279338042 12.598416526611846 -0.09483745409687537 0.41028224430029986 -0.7350411128157986
P 6.406437414573218 7.668044031889846 1.4435141771959394 0.10726668099916366 0.6590876401076198 -0.4399175506682295
P 2.034156076530249 3.565448195242287 5.951788375097782 -1.3062409906714987 -2.1301911079148796 0.7197918999662121
P 7.294052687715549 3.9298324223185297 6.029592299139033 -0.5263644667085644 0.17443572264649312 0.14887072969319523
P 2.470456437311934 8.75631080785156 10.283093986272245 -0.4500109303484895 -0.6315845495913446 0.7948069200205216
