# total energy = -381170.56223326677 ev
CRYSTAL
PRIMVEC
9.20069476480212 0.00000000000000 0.00000000000000
0.00000000000000 9.20069476480212 0.00000000000000
0.00000000000000 0.00000000000000 13.46614680876438
PRIMCOORD
 96 1
Ni 8.112740049727764 2.708068038392296 5.760723250476566 0.3535729645337137 2.077399418035145 -0.03740235190785817
Ni 0.9439820634146058 0.6550342500681239 2.4272324774587286 0.39332633317225163 0.705367754121082 3.1503449356094646
Ni 0.42602804185365906 8.462246834812714 4.611293357324605 1.7522217168146725 0.9742059002095609 -0.19884500472879302
Ni 6.460276901418424 4.914863834570198 3.3878806790390987 -0.3104414234515621 0.21233661145732463 0.5870820963035954
Ni 8.061630191324971 5.989348549935337 0.22173121900850837 0.5704755980951659 1.0385804098308888 0.5280022594223036
Ni 2.5919644734625313 5.788828612216081 7.598650319891242 -0.29313404252136616 0.3826261731459281 0.6281989209485633
Ni 2.2392006424955686 1.062753829773139 10.261190561283621 0.5986952550624915 -0.03336700549621995 0.6898681158235861
Ni 2.485549239927572 3.110165993707733 6.44015774257605 0.14975801739415498 -1.587118841533331 -0.9775753309024261
Ni 5.157182527775303 0.6135842009069318 10.50626026216873 -0.6998285694704077 0.6164181262635512 0.21517305246485524
Ni 0.6765417937229157 3.1381085031531484 0.9005685860296232 0.48399834303752776 -1.5373988486003844 -0.8910371406998654
Ni 0.5210399345237364 0.5944789586074901 0.38965493596279305 -1.625742210332484 0.6314361969389384 -1.779639446705993
Ni 4.8372467750767765 6.595251090935791 8.362638275129488 0.00013472580565138085 0.91306455281355 -1.5319735638197551
Ni 5.771650915431561 0.3050803112264921 8.122658398487118 -0.08806696814226123 -2.5683970752086416 -1.1346373381571622
Ni 2.143338605646118 3.9533084445040467 11.713649010770295 -0.7810885419931645 -0.326620861424902 1.1517765689406099
Ni 3.6565124386791528 6.829739993051646 5.603721678060527 -0.7588258739402222 -1.1095868229464376 0.2509283556875937
Ni 1.3151012800725805 5.277113581651162 0.2911808219215238 1.1258814463414029 0.27072456447791443 -0.6683042736098813
Ni 7.609204436646208 1.8277823835686053 12.699289979113102 0.28053280881758785 0.1153510006691949 0.00012238451047720859
Ni 7.6559991692900615 3.824057087016661 1.4963181605588822 -1.122292186328248 0.24638547351191759 -0.7987196248113664
Ni 3.21760250434129 5.58841908283181 10.479099811762781 -0.2995810836982905 1.3574301119508043 -1.2081354073463129
Ni 0.38518523853487646 5.020018572947429 2.3490477351095995 0.753219069276406 2.126083256394093 0.10992777277109454
Ni 1.0444720496387827 6.058970205837035 11.189977677596119 -0.6537433450765708 0.6561236723832894 2.1768764277865604
Ni 1.4381237673279794 1.031443866110726 8.066585685426816 -1.9530333583515334 -0.2812460328345286 -0.2965674936829473
Ni 4.145336141124153 7.782076287146671 11.440151003765841 0.6596190871310575 -0.13632888847244262 0.9929399862839544
Ni 6.291260141947802 7.840574303298779 9.714006853105241 0.1166360380292056 0.49838597921776745 0.5129852171881811
P 7.4712584227788685 6.606862367498225 11.41627612139511 0.5289340272079535 -0.9993255780953241 -0.4830262089322456
Ni 3.4573910065363553 8.27271252642432 9.415919989830499 -0.1080215568873172 0.5509483266955156 -1.3867075207586828
P 7.127612480142629 6.955890716464911 1.978594648739359 -0.02166951455363365 -0.8253899350137012 1.9438804882076717
Ni 5.603793443478266 2.7112238766339085 0.31939383178764863 -0.08215805885699398 -1.8026161101068245 0.1881906103387404
P 4.844966157831042 4.515277668875637 8.691158275872983 -1.8122641747195498 -0.6178905970440198 -0.03162328333223586
P 2.755497618962304 0.1982869291442138 3.630715531210251 -0.4973914765149821 -0.714031343333351 -0.13298054082549998
P 8.630555140800523 8.933046376571653 9.297336837710894 0.4019163888341078 -0.9197769318367192 -0.49146765483137944
Ni 6.679741069281937 4.434265553081471 12.862338248008406 0.2696662984167291 -0.3144299757856649 -2.0497716290155474
Ni 3.470041961586551 3.4007975341627135 0.786765194745349 -3.6469861642219836 -1.3228166356419928 -1.4523788948145633
Ni 2.2043392107245188 3.240116603983348 2.90746181109472 -0.9220253615512636 -0.3369728940831874 -1.7088266376584893
Ni 0.5629178159829896 4.897778144731497 9.374632792963405 1.1287988770985138 -0.29244370132256087 -0.25295515630963533
Ni 4.81272692401585 1.6893395321938398 6.228402836702762 0.0124348833292431 0.783352912547309 0.7355679318535461
Ni 4.054378074486888 3.4424858813135786 10.459909923073186 1.406218851318733 1.255181195881206 -2.046635397379411
Ni 8.831544313943459 3.383684242240266 3.4607998638789716 -0.9325314032889102 -1.4901039201691628 -0.3767041512345383
Ni 2.3764842063530076 0.5308221130032772 5.924323561046787 0.23441338875170598 1.263952514315933 -1.9668581800497675
Ni 4.4823391822722165 4.698261082721675 12.932523906487978 -1.1051239020790775 1.1947965241455618 -2.6722035655733465
Ni 5.60671926435533 5.592955025260716 10.36617232660271 -0.8395849955671606 1.2353888437456273 1.6526261792075214
Ni 5.438861792402035 2.4030742136948744 8.63022483586503 0.20033007391475174 1.6135724077391698 0.746406931450579
Ni 6.037311770791099 5.929912062935871 5.5689117701791355 -0.5195289318439698 0.0610780982582432 -0.17367030523537832
Ni 1.1262202209995051 8.057379470428105 6.91866378611684 -0.22500443673298023 -0.5230667697938992 0.3206921546452929
Ni 0.09559613677603188 0.045953789159061884 11.542871238356685 0.6574531898279903 0.34372049721966613 -0.9300569736064885
Ni 6.680762346380535 5.009695393626469 7.774114006055443 1.3780066505505753 -0.4518299858350993 -0.16216847524336586
Ni 2.561684987593298 8.093943030696819 1.7845069166023522 0.5779963319522432 0.021567698868446727 0.547381949500496
Ni 2.3521115664053927 8.992068832314931 12.870457860976986 2.2980214094297136 1.2620923211787425 -0.7835256906797473
Ni 8.236388184214736 6.649617995220597 9.052387665924808 -2.0155181071493162 -0.10943489229507604 0.2920091848883036
Ni 7.7861429941518985 1.5462319286660202 7.793464906900223 0.27334734681274214 -0.02149622220056298 1.3375295163721352
Ni 2.08868647982927 6.549661649282174 3.6161986752988327 -0.6171544902089436 -0.05283025642715418 0.8862985975736156
Ni 4.267530565867175 4.458260964551225 6.548573207113128 1.8988080213490652 -0.024701873622054234 0.3583976396158667
Ni 7.421547069952535 4.387452419048453 10.357527353973499 1.4527877002172076 -1.3959961451494602 -0.6453409799454886
Ni 3.222561678720967 5.277214789291564 1.986701380735525 -1.2335453627789852 1.3195572481644307 0.14678942168413428
Ni 1.2430138380229168 4.231712261859602 4.7392078538892335 0.6572698701725906 2.308882777624249 0.2744518927308306
Ni 3.747976543518426 2.0296180206130816 4.087999252628289 -0.2376887170688681 0.5732328491253289 0.5987240514178979
P 5.8911311352729046 2.604090988921556 11.264525385376997 0.9372730317389535 -0.10654754344495197 1.040028455131325
Ni 1.1171851389200196 7.227237601076102 9.171550461803074 1.668660864072881 1.4362400802711717 -0.8618186101543803
P 2.0006910368473965 8.012526084341046 10.969954107502021 -0.04055272461138178 -0.24526138720980342 0.7782359030357178
Ni 4.619567541962163 6.772024035939005 3.619794306741463 0.46385426398948504 -0.28976872559355904 -1.1248095534334628
P 6.081189883252471 3.3510769806417966 5.336552828859005 -0.9325074920295101 0.8163890170666714 -0.2631467521306565
P 1.4689276927883845 1.8672073598523078 12.282418468507412 -0.453487061822548 0.6286321518312399 0.11145886470364029
P 8.41316112921795 3.614713683193304 8.38518089692475 -1.1329753770737068 -0.7786048563393624 0.15373551398466426
Ni 0.7649255060161484 7.443463124446765 13.177889869738628 -0.48246133756771103 -0.012118123419772678 -0.6722506598521389
Ni 5.145957680385311 7.663037700645261 1.4647266556422611 -0.4301447875521818 1.8043546900644858 -0.015949838461037046
Ni 7.679230923109513 7.552086524681395 4.333917257553857 -2.5542434094160784 -1.4371865033448412 -0.3627448608409688
Ni 4.776945422786605 0.26171099717550306 13.22127850524824 0.883530290799859 -0.5894837637665525 0.018955200946264128
Ni 0.23383565280053611 7.433857599303198 1.8782040300166674 -0.7439242742380413 0.010862910856432905 1.6774846330120983
Ni 4.841911527229831 0.13733876802493025 4.535196252576124 -0.07311883147286118 -2.7899094396279627 -0.4682001996630066
Ni 7.531835795906499 8.515794877279726 0.6466892200822854 0.17242152042994177 1.4206018595132825 -0.011187898296019442
Ni 3.7024423060323017 2.0834236825283887 12.014603730546234 -0.23384286096021664 -1.9199008374636228 2.7750065543742015
Ni 6.986611835674078 8.665388970487827 11.920462223583613 -0.3958555273520085 0.40623944168949394 -0.7080298743342773
Ni 0.6632431097741495 4.442536977510653 7.030284772646273 -0.8270133295497369 0.2388469990430274 -0.437487343960182
Ni 8.238071911323235 6.784555381959636 6.584797261751766 1.5917177737579233 -1.0104754240645566 0.14061800276609976
Ni 8.21261358941495 5.322693822610197 4.699967811566628 1.6666358632230522 -0.9497747637503902 0.7972664373046076
Ni 0.4629071859465329 2.754853570341567 10.317277075385794 -0.7639955910666197 -0.9038016394543855 0.2933420447671142
Ni 2.327306493812426 3.273680737818342 8.70638910568396 0.15499535453369434 0.32622234043490267 0.9257930561238119
Ni 6.739978016710034 2.551564223553141 3.359574742157696 -0.5830099831167508 -0.9633643295093667 0.7741025975936345
Ni 0.9365847049707092 2.025974545558625 4.585168905128587 0.6789653528681532 -2.763521693663053 1.18423571791058
Ni 7.066731484093794 0.7178602729515857 5.055716347855979 -0.5775250487427795 -0.1306716901866653 2.522483343395662
Ni 3.276670963557479 6.789238535501854 13.458780634839686 0.1911692333510901 -0.5912598818303688 -0.3664433927384786
Ni 3.6240707895831585 4.436022885746626 4.264028781509281 0.7106523995587891 1.2062890981661936 0.6991580257659442
Ni 5.772718196003068 6.80184348707914 12.746811566628931 -0.1535460236816775 -0.6195733840630814 0.8018838814719609
Ni 5.412593809370537 5.39876516541385 1.4835245947426656 1.1035709557696607 0.14234064188416132 -1.3582793473249768
Ni 4.734106988812995 3.3793875178704904 2.472384886119702 1.1658371607987341 -0.32154884621863333 1.2504989599141885
Ni 8.907532850495874 4.346306912877925 12.184573681975548 0.8212016079639664 -0.7234325820425928 0.21030672551148943
Ni 3.4241304956225664 1.1858959260581037 1.5567400419480775 -1.9180265032590451 0.20049282474486116 -0.12381610071741257
Ni 7.517353902634493 1.2184203814053352 10.250376984941441 -0.6581759269266277 1.1066444524886618 -0.03449186312928253
P 3.515447389348528 1.399922483423678 8.224516527995632 0.6821445219270833 -0.5418363370919184 -0.1785165775840861
Ni 7.7146719986392265 0.20784093039812201 3.103744828958982 0.6938278718022826 0.47266749140574077 -3.3356978193890936
P 8.066626168482976 1.6919801315388625 1.4370399255062245 -0.23952808427045202 -0.4188031372871175 0.28468616886432907
Ni 3.661158789443043 8.390840244162113 7.15651646217186 0.9878882827926598 0.890912185086227 0.4737103308479583
P 8.95490722689839 0.7458653471201583 6.2313921423724405 2.20290421930889 -1.020959611425332 -0.9872246810667321
P 1.3278442420685963 6.203632726749206 5.744294490231016 -0.025684806360613828 0.5889106648719018 -0.22701092564004774
P 6.445969821343475 7.700088897726817 6.7282931345909445 -2.103219464422042 1.2736761693615999 0.732418587591287
Ni 5.464899758068984 0.9090010226139904 2.1956013110800305 1.333086392999117 -0.6565422479779467 0.13826338649099412
