# total energy = -340862.1119740666 ev
CRYSTAL
PRIMVEC
9.35919692559593 0.00000000000000 0.00000000000000

0.00000000000000 9.35919692559593 0.00000000000000

0.00000000000000 0.00000000000000 13.69813074273378

PRIMCOORD
 96 1
Ni 4.422922481855753 7.514976521670758 6.34676905016412 -0.711716064936613 -0.5619842727947031 2.4519523272546353
Ni 2.4530642296764675 5.277024073876475 -0.2096057663374002 -2.0251607724454024 0.6465342289226413 1.868982967567833
Ni 2.7325579271332905 8.499348775543991 4.9315321275378805 -0.8358658948443605 0.5230258892536348 0.8085785198833172
Ni 4.757981731393786 5.453276470169777 4.304884290370455 1.8895736472349907 0.6141424428554971 -0.8954380979810385
Ni 8.714039393565022 6.833327491996065 2.5925902013576976 -0.9736849947090843 0.6833966491666295 -1.1822474838359573
Ni 5.499819756425437 7.580547055253537 8.876004975768385 -0.25230389587888163 1.9812033930278463 -0.5687681284857559
Ni 6.624327265699031 2.3460792497471585 2.9235239168958325 0.9254439003145094 0.5943991987902989 2.494955827399355
Ni 1.6990030934745182 1.1274462971047376 8.46866371254021 -0.3973650220179995 -0.3939210293334571 -0.6387496998812161
Ni 1.025197070814151 4.373019243907798 6.04506691434895 -0.44388656261830645 0.1726305511169543 0.10074919159562004
Ni 6.993790923094657 0.824994489616719 9.75423364151492 0.3153172634866247 -1.1517074062655712 -0.036346142729201926
Ni 2.6918922165399177 5.976717635202266 4.912985007012475 -0.8473026759263923 -0.5708034137482298 -0.7295554071108791
Ni 9.110869342738559 1.62574865922496 2.8619918767816483 0.4268296071360197 -1.0524242576925162 -2.550197007260847
Ni 4.578940294419971 5.838987693408923 9.849914583410932 1.51210459280997 -0.9392607515929435 2.6704248764063685
Ni 0.7767403421650935 4.84923390130987 1.7216083617820381 0.7419992893011866 0.2022997960466129 -2.0749938939174455
Ni 7.025153591955046 3.732297982340083 13.026950131209327 -0.08778568945641656 0.18062282529381152 -0.7923679715617257
Ni 5.759893120284735 4.466891988959934 2.2244256004938006 -0.632161248030421 0.4623254860497844 -0.853554570373375
Ni 8.346644118687495 2.3376559725241353 10.740361680729306 1.326933486023844 -1.1854261386742553 0.7078200723163165
Ni 2.3973489304446263 5.047368099989204 10.958833414303784 -0.572969053940981 0.5660646135116638 0.139768767391927
Ni 8.45510785172929 8.850234427064393 13.09974128521162 -0.5982761652472018 -0.005964702223867147 -0.18197856799075757
Ni 8.282636570989434 8.731372626250621 4.0628245728124375 1.3740078138038272 0.7301313342190071 -1.3274330513680817
Ni 0.21991117805992333 1.8347676039158227 12.950966555139509 0.8277946878004516 0.11503732608351801 -0.3309845377102364
Ni 3.532759904123578 9.36462524868059 9.4480943104426 1.0248316927862284 0.6898416334610249 0.6019975799628471
Ni 0.47902148055672217 5.3743597217869645 3.8689544242473364 -0.4618074087627853 -0.869338058459877 2.267874196422372
Ni 8.031229823472934 4.489325983963919 10.648625640332744 -0.24104966312130094 1.035249545685443 1.364592176916882
P 1.2262700573246286 2.049645405875144 1.1609615812554555 0.6674061872756442 -0.2133365134767487 1.4981471021886135
P 8.836214350086516 0.9405150571320244 8.582193578871806 0.08891080419979526 -0.34759746367656913 0.710488620287415
P 5.268497845487392 1.4532118641067018 8.929441310551553 -2.0994489416360165 -0.7046599294207799 -1.3778696107520787
P 2.6441509530792056 8.807088529288684 7.443920562776409 0.04658196152459719 -0.4685856080268833 -0.7504309650083076
P 7.952313075090122 4.300382516654595 6.654442353610722 1.561219862279382 -0.36325625325974853 -0.609053458368364
P 1.648762924437642 0.9256872814604293 11.347928923147203 0.43490287106245745 0.15536996426429373 -0.32984913855421255
P 2.2329171998542994 3.275063776280556 7.610531114408425 -0.5506297670138323 -1.3002958288316573 -0.032325194495266905
P 7.402825265044663 7.668794922960076 7.9535456813237575 -0.0376805452699093 0.3073028778225804 -0.7246248025784812
Ni 1.698263716918275 2.9173552702095047 9.833710069873218 -0.316903377026822 0.7809666717033195 0.7123233595033086
Ni 7.361279789941329 6.511015468655541 10.01877134230242 -0.5509352140693932 1.2841256468296982 -0.5265750400574738
Ni 0.7644021128727473 8.225816886521685 9.052300424367496 -0.8829577061258407 0.4832637788643483 -2.234558098768745
Ni 0.2797688578461089 8.748939838859082 6.474626911052081 -0.015366455153741276 0.5947478403789693 0.006448583838821153
Ni 0.7999633174689683 7.18187334428785 13.280871694936744 0.2122103702921055 -0.4463771902506442 1.451561026898958
Ni 5.556854702422219 1.9698676113762001 11.802185968668235 1.1293912592668744 -0.8849451688695147 -0.35944819236756803
Ni 5.428362287983457 3.426916746217835 9.523132607624056 1.6892782832129165 -0.004251833297818483 -2.3348866578871785
Ni 3.80787349742443 3.268867987923177 11.011872919137778 -2.502893851299509 -1.2352793147509564 0.6386172880684099
Ni 7.581679518080187 6.42728809305869 5.207138950516126 0.3354986235305061 -0.9843314186793372 -0.27320927857298105
Ni 3.1239876196871776 3.3900695879655656 1.6041747744174146 -0.031234018313617176 0.6578149440427833 -0.7930487996788342
Ni 0.24483565536284888 8.692419648692596 1.3950173136122175 -0.7088508275736759 0.5868725513959505 1.657359580127449
Ni 7.567144685272016 1.0067407344988155 1.1050188535385927 0.6119734602286364 1.535736116185981 -0.7634237777235497
Ni 0.136571273215332 2.32608800513785 7.0810570110448685 0.16657945982686795 0.4420384536659742 -1.4985589929150513
Ni 8.134948443679093 5.757309981936341 0.3249073286449072 0.9514873755661226 0.13580695453070157 -0.07873026412236764
Ni 2.222837344777415 1.4076044975424886 5.985726798152135 0.33969286411751176 0.2942082494221514 1.047264567868448
Ni 3.799815228881071 1.850378744369159 13.31080240666922 1.3278433994326226 -2.120942078512786 0.689412002122774
Ni 8.907306809848832 6.171847531672055 8.071952625167485 -0.4326421000527388 -0.8803894311780323 -1.0264039223693548
Ni 5.579737938878098 2.431538076773186 0.9804273523737826 -0.5198500626288143 0.4409529339112793 -0.7909538648230184
Ni 8.128864965684688 3.3842107306971076 8.654903307860941 -0.5759304505621501 0.04630119705938478 -0.43672963985855107
Ni 1.6116537086717677 3.3325666821230606 3.4885854306069706 -0.6809456165229757 -1.038033279078167 0.6807854367960275
Ni 1.3393946704298296 7.377808131692283 11.116498445524948 0.36712859173096124 -0.24839736173562385 -0.24910570065655807
Ni 2.179522981457247 0.34601512544611185 2.69988777846395 -0.009280396860661436 1.0604437855628834 -0.08762242440567491
Ni 4.483878931359698 1.3728350810052319 5.542729802438901 0.6946786498383519 -0.29582830152407763 -0.2828977095053386
Ni 4.505377006672235 3.1765301511650135 7.224284545105771 -0.6487222377128956 -2.2488750296120497 -0.5747811674490553
P 5.468756581866311 7.676797036321949 4.640502283964282 1.0713249512517613 0.3179423598142976 -1.1392522112213541
P 2.8910559268798437 7.448011467747724 0.5950184311949743 -0.3783339735284774 0.8965105051096107 1.0357372839551389
P 4.457682539196096 5.217593173469588 6.397794455822121 -0.1455537495048203 0.1224449314014988 -0.7131260579102622
P 6.52939693139556 1.2542540560988944 5.09445796334467 0.5825883221982999 1.3279606417367775 -1.786111427583582
P 4.625371270312658 7.750116984949908 11.069157755692176 2.7783793275011766 0.7461091977045022 -3.6069533166698133
P 0.6556089360995629 1.4315078864620454 4.6725556615569594 -0.23271363245177984 -0.1392478618914505 0.7195597293507479
P 0.5235937199421951 7.2687922060325345 4.848508563548999 0.4526349982348979 0.4663873148239838 0.47290454711721136
P 5.472612570995072 4.386225070754116 11.267247030226322 2.198843161865639 1.558403990097142 3.6990160362350295
Ni 7.1330370547881445 1.4626084978088298 7.152986183011338 -0.7496593769496057 0.38386467353871956 0.933136898083393
Ni 3.942692728977373 3.228848061916902 4.04530415618855 0.17498825271585344 -0.2577330373142529 0.1417739707474139
Ni 2.8572785852155205 7.175752429505787 9.06595736450509 0.3040956837391924 -0.32967378931861285 0.2026605218201413
Ni 3.4710079228819035 9.084710387362614 12.057478654743623 -0.45286356930593613 2.130684245501214 0.4355865273930434
Ni 8.425326887147445 3.1741248375579945 4.316760175335226 0.2804366495593557 1.4739712762733583 1.4579360771873666
Ni 7.069010788696254 8.713702462476101 5.8793744999342445 -1.511902761211809 -0.8328073105236947 2.4145790288124993
Ni 3.4295186029600577 4.99258872044881 8.244316275142825 -2.0707531163632207 -0.23661553860934734 -0.7489188992391554
Ni 1.904381310565652 6.747662762637919 6.832750965466134 -0.9549305969197167 0.6791373596696433 1.277015518147478
Ni 4.067862628511498 7.948662988293478 3.0459983677185893 -0.8134476750501604 -1.1168802712840573 -1.1387876128801098
Ni 8.175529921500235 3.562568946296166 1.3689332318115892 -0.03735967159538082 -0.6777083405326005 0.7235205137707088
Ni 6.240731220962556 3.6066694821571494 5.3337782439658215 -0.06334581124649735 -0.07852303320756798 0.3822497636431159
Ni 6.3118423991187 6.81725775089392 2.790391212626876 -0.43640310975706775 0.20971974265976787 0.40309215430976386
Ni 9.027525694215202 9.212042261383981 10.830084557869567 0.032496172855492424 0.4534454099513352 0.25267567739600355
Ni 5.42388859185834 9.517928894139612 0.4091110873647041 -0.18126045887781042 -1.3017816693485647 -0.48499387418157763
Ni 5.5229744095918365 0.3429687068504518 3.013959028921283 1.5557112737563272 -1.5632597755275466 1.2012654196993569
Ni 1.6914127847768827 7.340146723308456 2.9039079760827944 0.2467891367082395 -0.34125635194988974 -0.42933000496037027
Ni 5.095380780160437 6.767242202582991 0.7043029658061685 -0.6466522425577444 0.4947288420811545 0.8383593506901756
Ni 6.3363822134284415 5.998992523858705 12.613553467577486 -0.1794959107782199 0.7749770297787879 -2.065189249122198
Ni 1.878081967235991 0.21365361900290852 0.018887795293092303 0.5046628133654147 -0.20236535917722565 0.0950534267624234
Ni 4.671643139857799 4.436905122045972 -0.14703859904447547 0.12998237742912452 -0.3880666274352091 -0.6805650932551054
Ni 2.3593412317749625 3.2102887744355075 12.890269355390096 -3.151281074270489 0.21035711913345062 -1.27614339995517
Ni 3.6176010241532506 6.738930631916719 12.43621821220118 0.07528395744498002 -1.159500934168061 -0.36416873777168896
Ni 6.120194123901094 4.73937564792782 7.719622849563181 0.9646082292187967 1.7552738733774351 0.0029225729634336766
Ni 6.52091749899105 8.756576943541289 11.691998271554796 -0.5620716903021868 -0.4713148340325883 -0.07824355429393622
P 8.469998334020213 6.898898025578844 11.781954192698228 0.09305182295136233 0.9878232338826796 1.1709228028517578
P 7.540143402173769 1.6780759291737628 12.640224371024653 -1.9705919360605866 -2.2779169253703544 -0.21836739103243683
P 4.079524187866927 1.6781508027490786 2.536099024701647 -1.0343044081633541 0.5617456744213358 -0.4996478766493266
P 1.0500457386220692 5.797517091880906 9.479243589613338 0.9591572334065546 0.3506293085243574 0.2127734418844271
P 2.7327451110715804 5.340629176107214 2.75324175231427 0.1808007456325725 -0.8137536363263534 0.6022189519450337
P 7.533835303453416 5.043175179771522 3.240772614705629 0.8832179017657628 -1.0825974388417872 0.1493427842336073
P 7.197241145621409 8.581157515773375 2.001584993799648 1.070885806831814 -1.2495018861082416 -0.4950404597843023
P 0.2468441390206942 4.104400933265588 13.148041292728125 -0.311027120751703 1.131742275997554 0.6281336149282666
