# total energy = -340870.1156378584 ev
CRYSTAL
PRIMVEC
9.24864058533470 0.00000000000000 0.00000000000000
0.00000000000000 9.24864058533470 0.00000000000000
0.00000000000000 0.00000000000000 13.53632036355517
PRIMCOORD
 96 1
Ni 4.489327182053929 1.2078354786271122 2.098278880889852 -0.4560357963863308 -1.0895039361536334 -1.0463685384167398
Ni 8.871333137623209 2.766027963604743 3.1823888190530147 -1.7927880682728092 -0.5513501901196246 1.232975092097812
Ni 6.0304466763308815 5.345298125899206 12.389739870511937 0.08355545342515287 -1.1135110977015081 -0.643862338517433
Ni 1.638544675230872 7.7981856132615155 10.473457590708795 0.46292969529268657 -0.07452419646082004 -0.8388956828096198
Ni 3.5844031830739356 4.366366504174457 10.165316004755484 1.1890956171060425 1.7429750014054237 -0.21847383470331405
Ni 5.655173831980567 1.0278476822967328 7.086534158088854 2.294777962791751 -0.9161527048205705 2.1984950344976006
Ni 2.171386610896159 7.54909197374833 13.006021192690426 0.6971438235493929 -0.3477797548907043 -1.0086324573185468
Ni 4.062946349289777 7.34367041553991 8.21439386613852 -3.4607439358588654 0.7711663977834461 -0.39768203903778604
Ni 2.402140195935107 4.371573488878942 8.047802725837355 1.869305383904258 0.3119905131062369 -0.2477980375887281
Ni 5.773186487094674 2.593568560790263 12.315804387164508 -0.048535742816858345 2.273406181984194 -0.1948058016624129
Ni 8.303910534444471 2.399596819747303 0.5408947271079088 -1.0836994136567142 -1.2882499534107168 1.2899553661375978
Ni 6.997780502639244 1.3273556621725362 2.7765704891192073 0.45870305880584866 -0.010919475125981196 -2.6564141639495733
Ni 7.415495359083496 2.696570672075985 8.379699445384757 0.6646741330564617 -0.18693385511350386 -0.2091183616303431
Ni 6.096250754789884 3.8173209500326872 1.126136686290437 -0.1357575893500049 -1.1863424798409377 -0.0351544364139459
Ni 2.8838186513424597 3.479005673851336 4.0749464605758705 -0.6426305229928609 -0.7334331448987305 -0.5170102791871741
Ni 6.821649389473644 5.6427529075434 9.989669520361668 -0.020852160858660863 0.34036006538786545 0.821136816164302
Ni 8.539269942543514 7.755669612042116 2.4628797187561404 0.6137215532679946 -0.647605093389317 0.8925399504976371
Ni 7.644389967345177 6.76400261209698 4.5630665942188795 -1.3916761776178679 0.34027496187322687 -0.08364981291117207
Ni 0.14833339872900456 0.6676038790561692 1.9194092452180378 0.2808292570120841 0.1824575645097051 1.1324809539357916
Ni 0.5401955298722797 6.114526068779342 3.9052958699367952 0.9837961150011574 -0.25795286663454287 1.5024536999837672
Ni 6.276275545682995 3.3977656140925334 6.659544764767767 -1.1312784489872583 2.6471029138509765 -0.5387461282023689
Ni 2.3254504673923035 8.511237312633572 1.7691697016442827 -0.5218334116074302 0.29146951033474966 -0.6789044177232307
Ni 0.8606553803511785 1.7163904838590416 4.748446348067404 0.5813040561692376 -0.7156336548234643 0.7210088030924486
Ni 8.611418588511002 7.181134804178208 8.614365205432582 0.3693680225844413 -0.6961974004757235 0.3915011070380548
P 6.32788296069371 1.6548407801141838 0.6353353717134482 -0.901939389434666 -1.6639485461988763 0.4037192463708015
P 5.376059104810611 6.319106000685616 6.505380098088177 0.37067311454911 2.1786474036440544 -1.036361033582067
P 0.6607543357663959 9.099006925314743 0.05278014264930935 0.4381943973295357 3.108574536540898 -1.3437860388048082
P 3.2808720445010597 5.870158484655129 12.076901824819835 1.3203432344008357 0.1867057982630978 -1.245331556780636
P 5.256779385922942 5.0616793107166655 2.6818560847494535 -1.5827682778741192 -1.4839582122827408 0.6833408562280296
P 4.615043954856912 2.1912249451610304 5.877145832691078 0.06639693936799533 1.4549062892221072 -2.681322754265795
P 1.8896082752095207 2.139127352194121 8.261026437325889 -0.7773133912214485 1.4448260221679698 0.1034971866544024
P 7.778310284433913 4.981817298419618 8.251822190118244 -0.5909071264766405 -0.1376668905575758 -0.47302487474515953
Ni 8.7304115995375 5.437183371084053 6.33950572743994 0.3521382889697161 0.2554840933790761 0.9207470090594723
Ni 1.4515649065442024 6.3972755117376865 7.2455321643893384 1.6197589961658556 -0.9009364020914483 0.6318010364775247
Ni 6.579094538923286 1.2826662303926486 10.024930887829383 -0.3512098636181758 -0.2099071760802256 0.8901835344503186
Ni 7.746689181938996 0.2704330281608958 8.301189584355553 -1.6380302836712177 -0.03408717149169613 0.08358116445676574
Ni 2.833580035152818 5.925095410311697 2.85359131899846 0.3608586995618495 0.03728588093465191 -0.2875421502558854
Ni 0.6515362155977258 0.09826403266386016 8.375855710316934 2.868504977944679 -1.1306750110753043 0.04242063105805598
Ni 3.672986663534979 2.176889552102499 11.052595447040595 -0.08785485213145514 -0.898162438890737 0.3482476956660583
Ni 0.5767646551325603 3.6958585519438496 1.482010506808319 2.449151881691363 1.2805770102464915 -0.8342962363643954
Ni 8.009683528398616 4.841330446446007 2.6352642075810886 -0.5309921952885629 1.3547569359940153 -2.192811096738946
Ni 7.453109580740947 2.380220917516578 5.139091358096805 -0.23774142468367446 -0.9413996523128174 -1.9186631084017793
Ni 5.806666566366857 0.345867716163027 12.25528405712766 -2.56084008879699 0.15063784889594703 0.9171780607612913
Ni 5.16731728459702 7.442464395314902 12.73312895097194 -0.5718688788982668 0.2546608261468324 0.952383919238463
Ni 9.279068710770586 7.234980390234191 0.3535376138813756 -0.6559179841303865 -2.401404953324387 0.49906089379760504
Ni 6.926778688116439 8.264039644460386 10.78970653508476 0.9569535408870163 -2.3616071046011586 0.1154546161265947
Ni 3.003329586247201 0.7514640787204439 5.387644876994109 -0.06970594913657027 -1.4155355007339687 -0.883842165613323
Ni 8.120491492420726 0.13587732945724282 4.418336465899942 0.9127238816446797 -0.6207308947062922 0.23546445572403965
Ni 4.1306926422921935 5.490714503356816 0.6111890206184708 0.19453840693363916 0.334242896746534 -0.6429639950728797
Ni 7.564805414268617 3.4153750259528204 10.493111877024077 1.0691554544042685 0.9533359987390871 2.2383430197324743
Ni 0.37933299761011835 4.049563566221586 8.826019422597223 -1.4045278367695553 0.30734787212790293 0.7558076559391887
Ni 5.000573541724588 5.1609912143699015 8.166232494646263 0.5820702449113008 -0.769490809853236 1.0522825899083297
Ni 3.013521588279783 0.5594872694727904 9.085659287081148 0.5596504824552039 -0.608973497060048 -0.4778487784963641
Ni 0.6765482394606248 5.858412710987817 11.401777876024381 -1.0930011506736144 -0.336428334433627 0.19545757631379884
Ni 1.3621952916251099 8.606683284481345 3.910101463635642 -1.2847599379795873 0.7180355793967376 0.14542468012612372
Ni 6.939042385661995 8.597480887001836 0.7015769108767531 0.3826773380988377 0.3969983827072001 0.038514354025114314
P 3.596713123822907 9.105360741463913 13.450757802617977 1.0066959024174662 0.7790049199912583 0.2983693227783765
P 3.56622960413199 8.535505745785564 3.6110300196000726 0.33016024203672817 0.12257194389766632 0.12151650604995846
P 0.8500619873129576 5.832784727655435 1.8385030613878888 0.217368003233645 -0.01924367872096041 -0.48851885661570066
P 2.2491399331174993 8.504513550857087 7.0832582895589615 1.4767915193309726 -0.44185770511373584 -0.40564551685923683
P 1.6241815362502914 5.920850284238235 9.368920179869258 0.019756099581004685 -0.539993884566541 0.4635552446918274
P 8.096435778004441 4.512060340852555 4.595783660634722 -0.4686583702463477 -1.3764087099358362 1.2879848726747885
P 9.025350750915939 8.72863586052638 10.533883584610678 -0.4188530166884464 1.66790315997125 -0.8050823338046006
P 9.23918857214582 3.0925604715560495 12.405117585375434 0.4329861136557188 0.4921549107063911 -1.8765862338363877
Ni 3.3645352481187887 3.57293486862711 1.7596805963036029 -0.10149789683618649 -0.5887448287179989 -0.3307009450315466
Ni 8.0578412004346 4.6981984832370784 0.041923163351625145 1.0289922519218213 0.8438625398965919 -0.8597481007785966
Ni 1.9939884339569984 1.8449373407109988 0.4708991646914051 0.4754586809976327 -0.5317195603728908 -0.32364558084666195
Ni 9.06955000473963 3.0009064423882745 6.5792471414945535 1.3343549752988955 -0.0089464105600104 0.713219646065333
Ni 1.6155618031338066 0.7696080620122038 11.650954753303713 -2.0508684616241517 0.5045021194178344 0.33835511914269467
Ni 0.25569161977638366 7.844558297645695 6.135716554312056 -0.8912353727536005 1.635621417119409 -1.2459136545363512
Ni 5.645305532371887 0.6390551749961201 4.399791091602544 -0.961367353683996 -1.5646340301672537 0.8794049557775757
Ni 2.6964134451843758 2.8473697584110575 6.327160641856373 -2.273035171798021 0.10115465456415482 0.3562965341124638
Ni 1.6945914377693903 3.6142577951984136 11.1956201260176 -0.8949585872414588 -0.6115446002213338 0.7590413323851379
Ni 4.3771966624141605 2.8580519383998344 8.104763254075346 -0.5672174961691845 -0.5329686022886434 1.32686997977576
Ni 6.274518303953239 6.200658659459411 1.222199542471761 1.650442027072009 1.3076496980935672 -0.06529702143559722
Ni 4.585707266610677 7.887092796146462 1.6007917239631773 0.35532028624212353 0.06129175693094606 0.8936118434055771
Ni 2.6470719471409776 7.1229053624385195 5.074251912861032 0.5466954649564326 -0.41062085858664116 1.190578372299156
Ni 7.9998059801492545 0.7364979283673366 12.297056467636153 2.1615364549953804 0.4283838389970171 -0.5064818688520244
Ni 4.085882978183428 4.694388043275715 5.760908916588092 1.5349308466758662 0.4542499081305016 0.31937600693703067
Ni 4.735331775579017 6.7998965865874075 10.552374391928048 -0.5180019536764822 -0.5314868755367943 -0.5827631572132673
Ni 5.240242816381874 2.7430080969449455 3.5944342587586346 -0.06789357851817984 2.9040453369431343 0.7751896600102263
Ni 0.1475768599211414 1.8843920418643518 9.727633333076797 -0.10259678632732007 -0.25984519856124927 1.375934855623211
Ni 4.703220495127906 8.541600599995611 6.09363153974848 -1.389998789915445 -2.5409461780865397 0.03824875906855348
Ni 7.002941244140316 8.345501671595578 6.323546273077487 0.4492773946165747 -0.6778726340246068 -0.23750539741346835
Ni 3.5392420706192183 8.944776593286306 11.193927624772627 1.4086714266242835 -0.6094373240703439 1.747880152016525
Ni 6.188043513567902 7.499574751531957 8.506657385767388 1.4858939958528732 0.34105169213825137 -0.35319012727299814
Ni 4.98691329943591 6.561068938232267 4.199440563080571 0.29341994919290115 1.1043525711306916 0.21329280472300682
Ni 1.8654970689491384 5.048555489587597 13.469897864511287 -0.8393363698914641 -0.47470406221979544 0.14039020302600982
P 6.517748305273452 8.073841348816059 2.924656949141978 -0.23726139972346236 0.39873516289264876 0.5846688588764124
P 8.97550057763498 0.72140692136501 6.51700748915475 -1.3941493217487086 0.6238033629840289 -1.4100150851363715
P 5.097804501224166 9.01184773551887 9.790969874201597 -0.5053729520585619 -0.6578177722562606 -1.0614740265996105
P 1.675067557287738 2.144611796119095 2.7082526301225864 0.9005754192076039 0.23228580088574188 -0.3447353116374256
P 2.034192275005668 5.019718227938241 5.37766836828944 -1.124505906150115 0.28739096939000186 0.44745345403395836
P 7.782139221676642 6.673948597767351 12.610761110960244 -2.124943743473011 -0.2506779302396844 -1.6334814879582706
P 5.429932436788642 3.1103918507927264 10.087740256435257 -0.0212149435147183 1.0810223810451833 -0.4609280914816255
P 3.524185283587419 3.373663656472834 12.96561573127487 -0.18414343685256027 -0.3287919009342918 0.6183266561401738
