# total energy = -340893.95126996026 ev
CRYSTAL
PRIMVEC
9.07712412081305 0.00000000000000 0.00000000000000

0.00000000000000 9.07712412081305 0.00000000000000

0.00000000000000 0.00000000000000 13.28528868058107

PRIMCOORD
 96 1
Ni 6.50257953144514 1.8783656389296997 11.377454580526388 -0.9767312377345759 0.6491279577917467 1.273848690383722
Ni 4.699172784946271 0.38480017626489366 6.100698022681296 -0.5146821452746297 -0.20853472121273117 -0.528647092095154
Ni 2.518747680840895 1.498487987170163 4.906377208948186 1.5404134670569922 0.7205987121382235 -0.46600164934979105
Ni 3.3352803968272537 4.458156980656685 4.881997868515791 0.3917841854961124 -0.8404008066002365 0.03942940964021596
Ni 4.981053802813432 4.5005562282401685 3.0176872488449793 0.7163257957944824 0.05466808096684134 -1.1519472901905194
Ni 7.549916286888841 6.124235913691515 2.566957195685819 -1.2715650365558682 0.26838151816703454 0.5294641886798108
Ni 4.811792666078425 4.421812174978186 11.596582715002645 1.781246129071481 -0.6763284294659385 -0.7528588577235098
Ni 5.662500755036698 8.190007860822586 12.338193754767785 0.3654720299641448 -0.3991547669285706 0.640902998778793
Ni 1.943630162613118 6.4030034779253775 0.3459845773532059 0.24779700914746358 0.6270470667323071 -0.21997587317013725
Ni 2.6004054910016787 1.6015950420408098 0.45934787496514556 1.5298971409067006 0.400033312878782 -0.8095658234972508
Ni 0.5577094092541943 9.187683669246539 4.8480412542393925 -0.6473469546319238 -0.733066505587931 -0.210463819914644
Ni 8.760532354156927 2.252597319377541 1.2672455226093573 0.3206499885534478 0.895715005791509 0.9383747494435645
Ni 6.9304933249755605 0.9064289241575831 4.834263994983941 0.030643178807153677 -0.6523204965871153 0.2730334151167491
Ni 1.0165289955853518 7.424951516715041 2.615049615627334 -0.2935886135602815 0.2890866119248699 -0.5212824241999668
Ni 7.431441660586201 4.0975682180247235 3.9406029538601692 1.176612139927051 -0.8010493013858074 0.1875133817660577
Ni 7.543789227989493 3.844261987439261 12.643290425732678 0.24439338278255332 0.5685313298846015 -0.09853084378806257
Ni 8.147027677284202 8.689540165043155 7.112014025783841 -0.7834557566737604 0.02495024218743445 -0.4805170693571466
Ni 6.95690775667497 0.7584863215425859 0.46570912367131245 -0.16921149813307632 -0.6271884774061779 -0.2509743784341807
Ni 1.8378816645725302 6.587505106352243 9.076734886697157 0.1488049094522663 -0.9145282818432702 0.11759171707425554
Ni 9.029841554875055 4.887069257859592 1.3463844307781867 0.7713749142498264 -1.1703785003125136 -0.016451717798120054
Ni 6.380555749543027 1.8915910090279944 7.029206143974839 1.1446728680162932 0.5590439592194566 0.09215373661712517
Ni 3.5009469923413112 4.12144105492144 0.3429491869888478 -1.010740247690169 1.1086162315030519 0.08770315704493928
Ni 6.057264890640575 5.892024919968398 4.721831102612274 -0.08109927857517645 0.44454810746170537 0.6329168952495229
Ni 5.43730637839387 3.045829057297789 9.032335948631411 -0.42273075447629777 -0.06751408369157405 0.27487252520801697
P 0.14097318658104319 5.687835008944962 12.633007859330931 -0.4757625853912967 -0.2529577274127966 -1.6256661056789101
P 4.014975464061521 6.08098341642427 12.56868009487479 -0.46848070701790284 1.2091077985619112 1.5464020805402594
P 2.475776574426806 8.555117031353621 1.247588102235392 0.3001063600741412 -0.7706390645250664 0.9026760104903745
P 6.474376906259552 7.950743941521997 5.813377084223945 0.21507972142010054 -0.4039493601037366 -0.38925524842667153
P 4.742679441693786 1.1064379117305898 12.858445502904873 0.6976251340611856 -0.683443700354481 -0.28650111058588074
P 3.9165975909487405 6.174141943067236 8.192174570391881 0.26945881039161335 0.1077958140297563 -0.48227493258851784
P 4.646906703253765 1.3104190488952325 3.8074705872454313 0.5518114460267594 -1.6347575264572167 1.0227843233388967
P 0.39392631703141784 5.534767461952822 3.5211599327221506 0.07809905829627194 -0.565562991284897 0.5790443136007835
Ni 1.5343970908824862 1.076220164951438 2.5736797139389402 -0.585181793957089 -0.09322974329012332 0.5161085933085111
Ni 2.0201503204227453 6.497614344455596 4.86608203877636 -0.6134310186107693 -0.014271936537981873 -0.4290569538046417
Ni 5.944772089248557 5.650400948351024 9.033092980797642 -0.13800807594707845 -0.10111094581041295 0.758323737492823
Ni 8.504702683017362 2.3559131481069806 10.15119590496016 1.2511093398046775 0.07226728210584328 0.404242208753807
Ni 2.2619467574017302 5.234405419020372 7.001626209515909 0.7869144046463221 0.1530459441168074 0.7314523670232759
Ni 0.5592933674437294 0.13295354726611963 9.268269471028043 -0.2169892797379876 -0.8469622618678381 -0.5317959221367808
Ni 1.6227084331517463 1.0704198825267226 11.232393057162728 -1.2000827122451656 0.5287095699019733 1.0478970592461243
Ni 4.053480625322309 6.83802465977904 1.632097810522835 0.489969215908982 1.0609718901522116 -0.3571668525325591
Ni 5.797886063901536 7.894347768275116 7.970655521376232 -1.0133728002170095 0.614174067424381 0.2874387919088017
Ni 5.350465530260454 2.9811454695692716 4.990525782015608 -0.271401535940281 -0.24309651834800067 -0.39070329372710777
Ni 0.924695729089504 7.289502667980135 6.879746753890092 -0.38559708284879396 0.11478535797371199 0.44344201888172013
Ni 4.9250207145383635 4.697684136561838 6.804220541190804 0.3224489894353995 0.612334700222797 0.46301094215258326
Ni 8.154697847313756 7.069073781592355 9.26892030084002 0.19039995928523337 0.4435484625525974 -0.46382778162692373
Ni 4.604144370698468 0.2605298060996861 10.442502608695591 -0.6376263849100503 -0.48098295324997165 -0.3264272573568572
Ni 8.579480032962286 6.931800430874088 4.90613757286679 -1.1557563795239645 0.8514025570273788 -0.26012390614393266
Ni 7.1577028232119515 6.160989189963304 6.968931315516563 1.106131003187353 -0.7698057699904935 -0.011039288533297118
Ni 2.4550534996605684 5.2596216703127965 2.51145058061988 -0.7898449480295558 -0.6180518052122324 0.31278858352750005
Ni 2.2625276933566316 5.154871655944695 11.390394928921808 -0.4329925414136221 0.277132010666155 0.8665651237004302
Ni 1.1460323279068168 3.362012527876999 3.8499705909085935 -0.7139853205867639 0.15454566859078545 -0.3883697604979247
Ni 3.4769016900829834 2.7532279556378447 2.792275021219064 0.09398179096479943 0.020419444196616447 -0.020752144945686838
Ni 1.1271882178697128 3.321564862017011 8.236733265845224 -0.27649951928847866 0.014385065077078454 0.44566139513054215
Ni 3.8542377470398277 2.623107378864298 7.013702415678416 -0.8740429201347141 -0.27813037002368235 0.05617089076461294
Ni 4.152684516745964 7.01093480048077 6.052764452414951 0.1907645417135037 0.03151812521293927 0.003914247452741645
Ni 0.9113977419968463 7.259375692443936 11.122696010053671 -1.0799353186285916 -0.06761409960454808 1.5748251117676426
P 0.18298484095711637 5.44556656150262 7.999869338208321 -0.21461949395423038 0.7291972524405119 0.16643342116730692
P 8.603243944367458 1.5145908056700774 7.894557449846338 -0.923873470503596 1.4881881912036885 1.184695688266134
P 1.9187316106710295 3.2228965209267804 10.473803256403173 -1.378272245507136 -0.6551160570543814 -0.7144969701158598
P 4.008657785551972 6.245660605390136 3.807524142278774 0.46906923253152116 1.154266168131683 0.32774006263100974
P 6.765870598755467 4.089326189164565 10.442184001632823 0.655197046803962 -0.12084519101454672 0.5853252615134887
P 6.358525568878263 7.922296233980435 10.169011576814603 0.15294027177687855 -0.8932467467566745 0.8942011402501439
P 2.4696222841545725 8.544941575018557 5.890364713934782 -0.027871015378655228 0.24079460968770142 -0.6230641708251592
P 6.794136763811122 4.006570046964046 1.8616673610760115 0.7652204646126564 0.008358399267024315 -1.206525896767348
Ni 5.415838979435416 2.960050232706926 0.5113107807061884 0.6776116670537362 -0.7293679736904213 0.07650883099101662
Ni 1.4643035370739523 1.1405043592109612 7.0255135698114985 -0.12922724443065486 0.011575363542425225 -0.10990797527675265
Ni 6.701967643716348 0.8540856869085659 9.307713206940969 1.5995298136031741 -0.6395940501593823 -0.7232222658039996
Ni 2.78174828017377 1.5445997785904366 9.012195625244935 0.3449890795194446 0.6625064359811816 1.3648161200022302
Ni 6.537599076976522 1.8689980466569196 2.612538883047246 0.06357849608259374 0.5660656419529283 -0.0069784882003621745
Ni 4.039492776783206 6.565502157060364 10.422561982043609 0.42017199261018606 1.483151914331362 -0.04964157428652741
Ni 8.034643801383726 7.344410192842584 0.37531911993842204 1.2817841431807149 0.17265549081761877 -0.6063000639929429
Ni 7.726829439404812 3.8117295739648 8.40718350586292 -0.2679901962658869 0.17013555260924249 -1.5617276551537362
Ni 3.2014654304655075 8.364588192394658 12.2971960151755 -0.34506261306985736 -0.3909375212251009 0.9917541935059695
Ni 9.09182923668786 5.004563554738335 10.170659074874205 -0.001583285326719854 -0.7286354663997708 1.0299453598637098
Ni 8.585706940228881 2.4551896565249987 5.785291553941767 0.5331488366202496 -0.24414887087191503 0.0974394104960967
Ni 3.6514094046606913 2.30656990043757 11.452742972569139 0.6853823121380906 0.7907039535957414 -0.0203623657064359
Ni 1.042598496561538 3.329834122250056 12.636315563424148 0.3683102707438882 0.8436766491380308 -0.1048110203698195
Ni 2.972004805403875 8.433665108282113 8.038529718294559 1.4342130225388139 -0.4061630799256037 -0.18064647944289536
Ni 5.552449700080125 8.191051730116548 3.834625712287339 -0.520969263834922 -0.03088794782810809 -0.8621623666470442
Ni 3.00439198488961 8.344464207831912 3.654158865609747 0.8747569154826031 0.598114442858357 -0.18825488791777256
Ni 3.4565689316614456 4.30754933434858 9.440221067404186 0.11738577171103654 0.09150864683395853 -1.061988504342184
Ni 7.012641299848292 6.242211298157912 11.614597175879156 0.6187465172864118 -0.7692249577863591 -1.052463081350252
Ni 0.7550551685589514 0.18911462299375234 0.22362040329001762 -1.6651016859667132 -1.044971400958897 -0.7454167996231678
Ni 4.525264160572055 0.4278802081705271 1.798283617546585 0.15328222849732956 -0.45989656489331765 -0.8032799904885392
Ni 5.951906708944685 5.641360132552876 0.5240360012558107 -0.35943610818271005 -0.20480842140107955 -0.23627641010237374
Ni 8.132785669264829 8.790731946687487 11.295272112581333 -0.4408673161760085 0.8144969422502811 0.5592478477001466
Ni 0.1174643423685695 4.791514370402658 5.817455436169837 -0.35106022541418896 0.027729604704784503 0.1482590642511253
Ni 7.932698618422883 8.45421571768674 2.867271129859505 -0.45796155265413385 1.4575653241115092 -0.17799721474550637
P 8.597979212276167 1.5435559092964737 3.492357309620641 0.04022053808294364 0.08142863689013718 0.25294975699299665
P 1.8667106113344965 3.3550776049153668 1.5534091277190536 -1.7076858391858267 -0.3304489769217406 -0.41842030002640196
P 4.809986318343653 0.9830797925570628 8.332958045075152 -0.8176696835513079 0.35597694598951596 -1.0803610933121006
P 8.6107416490354 1.8360662397134644 12.40980137290878 -1.2336564344355527 -2.0637448033661876 -0.6487500056270374
P 6.25566359636359 7.6757070753735155 1.4147106684864201 -0.7145597050329952 1.0054705146507974 1.09142480732543
P 1.8495639235406192 3.341262221737876 6.0991167876290495 -0.14703830447014676 -1.7068353182600735 -0.6874859887446547
P 6.902735478880444 4.019713722943683 6.149428564460772 0.4889240624739193 0.19943918666936622 0.09957908254691883
P 2.459464982068099 8.417843680635354 10.228210766043883 0.5061982761733347 0.504407502821499 -0.5801534875045621
