# total energy = -340892.37048584025 ev
CRYSTAL
PRIMVEC
9.04861111948816 0.00000000000000 0.00000000000000

0.00000000000000 9.04861111948816 0.00000000000000

0.00000000000000 0.00000000000000 13.24355702100485

PRIMCOORD
 96 1
Ni 6.123529976668055 2.223270910054085 11.406807729906033 1.2817777154228118 -1.23013145200143 -0.2169031477820845
Ni 4.894339489639092 0.3696348613920805 5.804015372541004 -0.6860973359272442 0.1674448931509568 0.981173846886962
Ni 2.4967380368032677 1.4661917107671198 4.787665412567883 0.6690159549649253 0.39375545028987025 0.3518945483900262
Ni 3.444516716476674 4.091465269225875 4.782327636839296 0.02468259034834459 0.25590009787057216 -0.050556115680996806
Ni 5.181424776197605 4.5229935358749565 2.595750654797695 0.4803931421847727 1.2364864476851802 -0.3460707426193975
Ni 7.566276735896324 6.442647346764787 2.6888129060873958 -0.9251474521200133 -0.1164977126791284 -0.18771058537852833
Ni 5.164404338588737 4.3501560139360995 11.759338001605371 -0.03476131474058529 1.043889480748628 -0.3583891549754344
Ni 5.608627806707909 7.89950089080551 12.22032040247063 -0.957288812739248 -0.014630348318665125 -0.054576806804615685
Ni 1.880735734252009 6.348822297553541 0.39127823444718507 0.06000054892334828 0.12188803045676426 -0.9574981005365768
Ni 2.78372378863892 1.6757937398855791 0.3884731649847985 -1.6090634641252224 -0.0934994520117422 0.7772280305964937
Ni 0.43731666321388385 -0.10994967431438436 4.7705282478749345 0.1380265878898397 0.6846780869822143 -0.7300377460639363
Ni 8.754377479606907 2.434329765570751 1.223577633520838 0.29467824708003443 0.11290613867312813 1.9899615988364503
Ni 7.119184858036581 0.2587061273492115 4.752066366506846 0.027584851596804107 1.2193240769732807 -0.27063149054347585
Ni 0.8094833260110473 7.48568075621414 2.6755693587804634 0.8752675365704347 -0.023507081983004677 -0.24917229222843537
Ni 7.430683297529026 4.096975873427789 3.6392898816113943 1.9860715197534244 -0.03750313915178057 0.19058585004379436
Ni 7.6785338060588 3.865530496947391 12.541860085777301 0.040900337758787625 -0.01897191311681249 -0.03598258874219609
Ni 8.058204482098406 8.686947229175601 6.993869737096137 -0.6338126675909149 0.6355821007865118 0.4219126294503766
Ni 6.6287320354550445 0.6266543276193924 0.3136701061730009 -0.6453546067922433 0.024644280911241427 0.6501913660592544
Ni 1.7825492544573103 6.405719964584143 9.299586162955347 0.5812958286391214 0.1451878815249693 -0.4829022817598716
Ni 0.05058083157353117 4.870279232540751 1.3851034866373424 -0.41913506670523937 0.4018798791692176 -0.16237339216532035
Ni 6.720819751321844 1.7943576920328408 6.966296809141994 -1.449041345800898 0.5704982238029852 -0.2811727563944319
Ni 3.5266057170017415 4.340564486096971 0.5468618646090143 -0.30275202522710437 -0.11489720096122794 -0.014896714606174345
Ni 5.851845426319162 5.62634498737679 4.720970814224616 0.4382825861679677 0.7511465030180935 0.22271101271311325
Ni 5.3341562841189685 2.9916970677469616 8.878904466514532 0.27227391124290523 -0.0676421246290061 0.3138627904282853
P 0.08954867557278194 5.775737557776797 12.376567295831146 -1.0514125285985507 -2.7270853052128907 1.188966547727346
P 3.986573768554955 6.047376865069844 12.58369724437824 0.593839469632087 0.6840661644298284 0.657194536849965
P 2.407962112624318 8.205162976093956 1.322782082072048 0.18802271730230843 1.7497963952026316 0.9901071448208496
P 6.2867126304896015 7.599349409718979 5.733599080423932 0.8895921807232228 -0.24768979414563796 0.46569877339739146
P 4.480021681433428 0.9125524363925326 12.725945936260329 1.9071689917192511 -0.4825215013816851 -1.3835280945894366
P 3.8975625804856113 6.325431637681704 8.372762257027086 -1.0016776232672684 -0.2970071523235272 -1.6505883228418863
P 4.650198911688602 1.0742511179823646 3.860814360806114 0.4177523274250999 1.1474869404263206 0.3545823796348345
P 0.2957800970307929 5.697286098941663 3.735874757229182 -0.020600706969487105 -1.0690019595455396 -0.9353737578337117
Ni 1.5527145307649917 1.046091840024471 2.5856985526500655 -0.29084704625940233 0.24766588288623798 -0.5971734191013264
Ni 2.0271603601885877 6.529658791765785 4.922801896071148 -0.335642348197222 -0.389054188159459 -0.46582707144513974
Ni 5.637139980501393 5.473866840568157 9.285454946892738 1.0539185828498558 0.7779301988698409 0.17231610520032906
Ni 8.746523285112225 2.1932114237507037 10.094663195124248 -0.07022325509262099 1.4765801746511151 1.1010533315541295
Ni 2.359352973424509 5.141737567610419 6.987022653024563 0.8935262256703063 0.8627609194629915 0.43952365766392043
Ni 0.43442744166762565 -0.004944161142735546 9.330086316622658 0.8156881343449048 -0.2924164476290512 -0.40971634449450084
Ni 1.070740256848797 0.7865541453088295 11.665798888507068 0.8235788499468912 0.750365916098327 -0.6038683146229987
Ni 4.152950582119154 6.704541299828834 1.6595768189485172 -0.33559169746494466 0.8626809581546755 0.1422056589681938
Ni 5.596421230240943 8.079152016954616 7.972025509324956 0.24591059075802812 -0.6918537787950473 -0.43669107331113177
Ni 5.569619243958398 3.0355194916383748 4.766792981184376 -0.7632517709220596 -1.6334938292534449 -0.22656509635188077
Ni 0.9055126169030592 7.407708873770962 7.258303635315318 0.7469478915557136 0.5210715937407413 -0.28727861218185363
Ni 5.093092233965934 4.783141106983388 6.951860654882989 -0.4559118692139567 -0.7255059196318537 0.28197725457359823
Ni 8.301295421153293 7.000322301720742 9.557782853495745 -0.298660371656234 0.28417426222491704 -0.7452321944161875
Ni 4.673309064614201 0.4023302081289882 10.335338154997014 -0.055077914810750306 -0.5748744984938099 -0.08145203392890488
Ni 8.454153609631025 6.836587682617888 5.353561935631982 -0.9082781871685003 0.7234099563347735 -0.7705616743199116
Ni 7.185149233458511 6.1830698381600016 7.259191304070996 -0.7905663995766127 0.15136187154616512 -0.22011471274084674
Ni 2.2905925771513624 5.3680252357244935 2.4764392873678753 -0.7532553218309801 -0.49978465933750693 1.6660573650117627
Ni 2.3103366467220963 5.068099969917187 11.437427325240774 -0.10793465360046574 0.9212625152433102 0.6304530070900626
Ni 1.02990387464315 3.2464607152098446 3.6680146977673496 -0.08830839472910598 0.914395870030464 0.07322218981994486
Ni 3.8812660317702625 2.7480632120219353 2.723907944506319 -1.9242753123822347 -0.8531359947787179 -0.19661045897131946
Ni 1.3466595572247761 3.498690751545411 8.35876405554866 -1.5575714668935174 -0.2492748792445707 -0.775069332382278
Ni 3.5053505293657867 2.641398183561894 6.96883946888048 1.915438687927211 0.24766254045212832 0.3225456629142639
Ni 4.198618922689041 6.99945363504852 6.042756644206959 -0.74645269708685 -0.05260322801801263 0.07545622135678617
Ni 0.935011089313963 7.282195588245917 11.393737011072426 0.07944914456626316 1.9839043368987768 -0.6952828590812542
P 0.07413617616864313 5.634642563818753 7.979401937149916 1.2662747346912064 -1.1161832452170324 0.8448380164359838
P 8.65170288867239 1.6204162395313666 8.025833980502465 -0.0005103639775152502 0.15934257575879654 -0.8459361345961689
P 1.783499358630054 3.2617619166966048 10.428718917399863 -0.18710020548803907 -1.2405025108231087 0.5174429958492186
P 3.890558955440814 5.9583023367223165 3.85133232116213 0.38948484793897437 1.4855306989761836 -0.1307123136166136
P 6.918794315088153 3.8771127192436965 10.183858070000321 -0.029816312030484134 0.2292734964219793 0.9667880104789351
P 6.304963679217451 7.801576820734712 9.978967652717555 0.05887337729744055 -0.7090511165099401 1.2221888001155854
P 2.21042188219412 8.485163200107149 5.848765279077239 1.3431715451492607 0.5177890663347277 0.34563879728830155
P 6.954690155595532 4.05114465785686 1.4372307258596535 0.16093383150531637 0.08733497507224314 -0.3365766870860333
Ni 5.185116609554552 2.7293959271803105 0.45875825223991995 0.5938299565503902 0.15367329328816115 0.008596483419759389
Ni 1.536046988991714 1.2136902160964838 7.12125970457763 -0.8467043802207611 -0.3247902359740665 -0.2711400547487782
Ni 6.944980995811206 0.8287288171063699 9.160052054423955 -0.7509238454843261 -0.5449987939803 0.34796204610483944
Ni 2.9199596783992177 1.7352702610993431 9.181308146921026 -0.10888467621856088 -0.6998072293141689 0.4883481353657912
Ni 6.4773849650425355 2.161821791605481 2.4384695051805636 0.3161487582489846 -1.0846275818979385 0.7689714470146564
Ni 3.880153052596477 6.764253084932991 10.600831645584085 0.5809708411995349 0.5932396312645589 -1.1996906190130694
Ni 7.843209480723229 7.337310678876228 13.185364737115584 0.738300757403677 0.44319005077191415 0.8630666236288684
Ni 7.725794702194429 3.932309247374529 8.044481358399517 0.18195722783451887 -0.9046786427426999 -0.02859041004318302
Ni 3.073849408550212 8.29866227530312 12.232570412271206 0.10805549544904618 0.038220476933779335 2.3384491784274566
Ni -0.024669228630014493 4.776617058330547 10.26308137536817 -0.006728834083401315 -0.5124928509327947 0.30526425012599684
Ni 8.43602924145954 2.3253935357072937 5.645490038888136 1.5647816114887116 0.30144616193148727 -0.8359461132629926
Ni 3.7047004820297817 2.597811023560874 11.499142472857747 -1.2324585574727096 -0.07481447400772923 -0.4314658203564505
Ni 1.1008087917633471 3.356564215914102 12.562851053967123 -0.25246664670899105 -0.38257706507554756 0.24213569709662816
Ni 3.234100312353006 8.55146237414233 7.888644367124957 -0.7552630962896283 -0.37288220638528685 0.5572709264794338
Ni 5.4890323128873835 7.998510794216586 3.520283452377969 0.15384607142059956 -0.9084463373152484 0.39782447815292127
Ni 3.080789693316827 8.516037061415739 3.6849401249589437 -0.2513551588123671 -1.4339877939018855 -0.15515039205431988
Ni 3.42674524414078 4.3275797290694715 9.406500933083652 0.2957192867500391 0.23300185311616003 -0.5764657542403298
Ni 6.965322273719094 5.992307017495378 11.356972503892825 0.39368525917356717 -0.18983560214133113 -0.5492791665232089
Ni 0.46121042586671596 9.01343921737506 0.5546852938257222 0.5914455154786137 -0.34271365322170655 0.10316834256007393
Ni 4.491323396783495 0.5054680879553577 1.8745989661572007 -0.02162786268242082 -1.0245283026131966 -2.202658678956987
Ni 6.071645240225072 5.81033944688701 0.4194447512940138 -0.45129108261249373 -0.7526521410293424 0.02167414253932396
Ni 7.6815288963557355 8.934508182147969 11.318301454339919 0.8244897917969349 0.06674969472172375 0.024305666624900076
Ni 9.397706587888512 4.667735120134103 5.671129278635466 -1.5443071456844435 0.4146880866774793 0.6959415757111757
Ni 8.044685857011936 8.848483035764392 2.4162072071215004 -1.3499708274592814 1.00795882829029 -0.014270908096717357
P 8.539319137953548 1.7218511707357327 3.469109936772869 -0.6527449857190436 -1.2105141919911346 0.37980233054388784
P 1.8191870810805464 3.4270528969205256 1.6307452291807676 0.3858572784887161 -1.3303479110220313 -1.0181913046515754
P 4.9035057327532785 1.091787326427865 7.999598437279099 -0.5776088667058376 0.25447699227080045 0.2994525285402262
P 8.352383879813406 1.5340562945345364 12.67724902553218 -0.23070740065502846 0.22238191150846864 -2.3719082294168508
P 6.1206253724828095 7.779869202540308 1.40951211526569 1.0738965686336797 0.3145970974911485 0.3268890274846241
P 1.8310950533789356 3.2455920485376217 5.891766993935624 -0.7520990967393498 -1.1961041872133917 0.35058559977061554
P 6.9827137043858905 4.082081859443633 5.91389718227162 0.6020166061262406 0.06022911999438659 0.952439712177063
P 2.4291630085932585 8.698809958418147 10.282615517159783 -0.1442622843869064 0.20420781170260316 -1.9821361892547604
