# total energy = -340856.92973036616 ev
CRYSTAL
PRIMVEC
9.41292573836174 0.00000000000000 0.00000000000000
0.00000000000000 9.41292573836174 0.00000000000000
0.00000000000000 0.00000000000000 13.77676829120787
PRIMCOORD
 96 1
Ni 3.4312844522656465 3.1863412954335244 -0.03008935881675358 -0.3106460832632004 1.1020329218585794 0.721607613018712
Ni 5.721157514266781 7.432286242447833 5.203389172900883 -0.44725239376674586 0.5464632943409685 -1.0823814661762392
Ni 8.744937580029614 7.606293589969108 9.218104654774281 0.49117069241625083 1.5143969883885726 -0.6774365749284527
Ni 9.119553203563731 2.221845846782253 9.11702489167667 0.568072130859996 -1.1893059333446356 -0.8726290705063229
Ni 7.283985595461049 5.412046441820003 3.8232603349706764 -0.11352654586594643 1.1777141147419783 -1.403337930226512
Ni 6.641619295726421 0.39921348140183305 8.629381678245808 0.7123593549475667 -1.1453081876074467 0.5432594426916902
Ni 7.545636695701711 1.72484336116485 6.756665016928399 -1.37379312668986 1.528652212756006 2.769693369691404
Ni 7.25308295984965 3.4433988878525708 8.665463305667563 -0.9539219531495443 0.8948621708729104 -0.857485015776033
Ni 3.9447407322932615 3.423443485020963 8.936108456571244 -0.6673768766996055 0.25938985619138555 2.314427618701879
Ni 2.784145799117987 5.35595481659663 10.219620199555946 -0.1484585818564411 0.33011884727583146 -0.34409202162647196
Ni 0.0716700175282368 3.4453944281357316 6.904558084225273 -1.51292014673273 -1.13546497626478 0.5719444693312085
Ni 2.9235606440891866 5.39791764009819 6.023768020111905 0.07422132050842056 1.2582541783795749 0.32512319383345295
Ni 0.5270617230713914 1.964082284923409 11.301923121857683 -1.062368513389422 0.8747854547276933 0.8321311103922765
Ni 7.548065230574614 2.8249225939606877 12.931481317086778 -0.055432212826375504 -0.41388821648400337 0.6484327314969349
Ni 6.276670747054596 0.3345335026201774 3.9344797018089523 -1.8314114370719623 -0.04482358407259377 -1.357987784226487
Ni 7.670508570213084 8.099154388206365 1.7623519881475815 -1.4693348059426115 0.9179794736166642 1.4209281325044496
Ni 3.350418006168315 0.9152837309418714 3.8215518889263667 2.888705364151954 -1.2683663271129124 -0.9518126201160254
Ni 9.27489471909676 7.3761569655210035 3.8227642737776453 -0.5636248937219197 -2.0440781781751953 0.30178811865193833
Ni 5.263792859462539 5.545446427164128 6.465230477961562 0.18284734374895606 -1.3366741103503754 -0.00943440594002246
Ni 3.0513975902477086 1.1606608236563225 6.4082361531478345 -0.22873022232399964 0.5756489147659892 0.08466976953525418
Ni 2.7871202836910003 2.966380043844368 11.386802298250823 -0.15572040562517697 1.6328860204661169 -0.6654367222540992
Ni 2.5960096498748992 1.3034737348644139 9.66770929349627 0.5071734956024103 1.0089456176835914 0.06146016418801027
Ni 9.001035054010536 7.675186794367474 13.750068884505888 -1.14399898187772 -1.8416963639377377 -0.7316166605152818
Ni 1.631109445411477 7.981954048274125 13.090395979277769 1.7269788830874842 0.02236756906192277 -1.763367963239479
P 5.736359389537086 8.794967280996593 11.853986517316354 0.2959203470172517 1.2111816503718043 -0.04631456679582346
P 1.505635143644811 6.933824753321515 2.320090436609638 -0.5049669748693949 -0.6409911876172251 0.33058138873454684
P 2.8047224550566163 5.350052912079923 12.44607084967085 -0.3342878910518565 -0.0003841228122961126 0.9933845300205407
P 5.129969292454535 5.5413800431908955 3.985853568589306 -0.9959427776660204 -0.32457452041883456 1.1854881022604422
P 0.16926135030066305 4.088391393903247 10.0705834617666 0.31722965001798914 0.9512130388588136 0.8299996658715706
P 8.172546971167709 3.3946964094324112 3.4596220655791163 -0.9313432965180798 -0.6787043858972828 -1.0237153197935984
P 3.790971175379514 8.784368326473768 5.445033099217685 0.3756607975716885 -1.8023191476916962 -0.2415399724941582
P 5.348753928310696 8.61047393406286 2.2811576339436885 0.8819050964916102 0.7377212307511231 -0.6605099743764431
Ni 1.5624233253821174 1.8505247473005235 4.5482212939912605 -2.191498805685426 2.205703893541214 1.0523065011677295
Ni 0.03276168846953352 5.205046789145528 2.569450138257133 0.6435010985232724 0.8038757150910092 -0.40123221828288963
Ni 0.4259057152742813 6.373859206600045 11.03041104048193 0.42178638828515747 -1.2384667113400025 0.17738297820027515
Ni 3.8410573539016766 9.349718066789427 13.307641601755172 0.27029647580156035 -0.7169413178912943 2.29664355524558
Ni 4.571001515874645 0.5812481720998979 10.682726739137207 0.15989099206309884 -0.3206872695492864 -2.6141218309392658
Ni 1.1537140843687155 9.162165518949905 8.777578783048089 -0.21952413034469936 -0.7714049961568133 2.658178454938848
Ni 7.944509429187268 6.286328408991025 6.048153145855095 0.5717724625297186 0.5720136320062471 0.8306923210632209
Ni 4.123765169300031 3.5685908018433183 4.618027552198432 -0.8138389969513081 0.06641108043538241 1.5442217850594888
Ni 2.4513047405681507 5.083648284277959 3.387487049513199 -1.5755241947171963 -1.7929870716574925 -0.34896580477900546
Ni 2.382298581059416 0.8562496250934225 11.887477707540345 -0.8266505468936796 -2.033108566537569 1.532723297501586
Ni 4.672303424022647 4.424197524100232 11.587970643352573 -1.29134324762406 -1.9101872097202846 -1.8639140376853576
Ni 5.704891978373848 3.132537011195095 3.0761733524142536 4.149288961995654 -2.3603976576740897 0.7106161470042149
Ni 3.27281784534578 8.133445677128792 2.115174805721445 0.7420807932713993 1.0091939862489716 -1.028179783322855
Ni 2.899632986542985 1.0210671330937073 1.366867907973052 -0.9833451435066679 0.9865453956115201 0.022411277815664626
Ni 5.781437891499619 7.552253982584079 7.604238748253004 0.39302191455795543 -0.33032633530094724 1.06605521821239
Ni 0.8474956040399342 0.06746997000773519 6.705373983895648 0.04705247340311251 1.4398244551883204 -3.557804622859305
Ni 7.774163709827077 0.3356724666497172 13.297915225459937 1.1059019178956826 -0.10424383501243983 -1.165332967468806
Ni 5.506580456271814 6.41654682539313 2.026039104252619 0.5410071563224038 0.6140532255758006 -0.46855655456116074
Ni 3.9721888241125867 7.432229764892649 12.347387617498203 0.35417717377661584 -2.8665766505737147 -0.439510802148114
Ni 5.333166123079969 5.4536609870645965 9.485525878569554 0.7213391898486738 0.41822721017898934 -0.9845070250252528
Ni 2.988839284955791 5.946437068969079 1.0275949971803677 -0.14820738507758344 0.030296079880380085 -1.6215502837383233
Ni 2.9982616237456203 7.840289514021437 10.257947751088842 -1.4731495517030113 0.9529691023179718 0.8129761347303806
Ni 7.9995938713431975 7.908156709500632 11.817188566236352 1.2134588764417553 -0.6253043730095876 -0.9406226649374769
Ni 6.59801862312453 7.772921203613033 10.131600871094586 -2.2350864604683895 -0.5012036511722207 -1.2528144954212426
P 0.5197676468194042 8.515958745462777 10.899434883547777 0.8465945941157742 1.0735006187468417 0.6544074610231311
P 7.413488629497493 6.120519719897265 8.57419275261279 -1.0748751304968651 -0.6210725943164273 -1.3493864157107212
P 8.210509301177083 6.059740457593636 1.1610138083762211 -1.1063145799530687 0.7336894838839105 -0.8320462639879542
P 2.804948365277352 2.818446500966279 2.8392405954923663 -0.02694104736521812 -0.2232794836220735 -0.5225317232260356
P 0.9871900129092938 1.6948820181398463 0.20316859184784122 0.8125066512931297 -0.09925872309302261 -0.9375417120193079
P 5.710464430485316 2.624596705723764 10.752740081713384 0.03707659313732324 -0.3444067246534133 -0.7333590971276854
P 4.998593086171163 1.4250416723975343 5.392379074519832 1.028251517101055 0.9675027771577726 0.16363400404529885
P 5.3993578177553765 3.512734499766544 7.4890377137742705 1.498287998641852 1.0580518882919392 -1.485759784267854
Ni 8.04550071078176 5.360585976121701 12.77222120051658 -0.30961609933678935 1.057969870101094 1.026188206814123
Ni 4.845331827254069 1.497558853253528 8.05349887388837 0.0627850536470209 1.1781509451690808 -1.1372277245921574
Ni 7.8876553569689145 8.7808855439041 5.160942525009915 0.16408163310567872 -1.554275569751065 2.9538825721802353
Ni 6.278101511785919 1.0276279424208916 0.9331296970873645 -1.552252368673449 -0.3692950032546608 1.4972641853630277
Ni 7.1348942627016925 4.089059711639588 5.621417210519611 -0.31480432840594813 -1.8908566277124725 1.3382160009161985
Ni 0.832960163920798 8.848517416236694 1.3130222068608208 0.7263304724156782 1.8114697038427126 1.3767599226276677
Ni 3.744546625018434 9.061560167315836 8.42271712573209 -0.03162945397982294 -1.2892891933085084 -0.6889286347284522
Ni 4.7497435651054944 1.7555200865555152 12.516497419692456 1.7989150071061535 1.8891031353564756 1.155407223714662
Ni 7.421988501552654 4.0558226704139235 1.3947047536305583 0.8717965473026985 0.34085397430514847 0.39845799797186215
Ni 2.3426984019497117 7.712207831790452 6.903758926819422 2.392403521156725 0.7096157307641586 1.788313063220591
Ni 7.37455676812413 4.080776336879298 10.92003130663072 0.15320715228502002 -0.09695475755019431 -0.49031888593891687
Ni 7.953112843426934 0.5024120941114237 10.545634062976648 0.6461886726577646 0.1660179308964431 0.7604369271810839
Ni 5.2447034458104165 5.069895999590705 13.587186674063235 0.5043830773414669 0.8481344277990683 2.4416095505677307
Ni 1.3035302124195978 9.098317642814624 3.666039058142612 2.61543052244836 0.11369341046111388 0.5071477845707976
Ni 1.8081948196902684 4.208820367406826 8.274588735288617 1.6532812962930172 -1.5854936472250822 0.438337093554987
Ni 6.3433519138749315 7.6196881834735315 13.346436975703508 -0.26443230371129944 -1.6852699333844718 2.790115642101498
Ni 0.7011114287590541 3.042389420195893 2.276115129558362 3.590728884391151 1.8391918523483293 1.2777364554739026
Ni 7.999631523046652 1.6381032493284036 4.760148613355523 1.320335263981036 2.050141867870772 -2.877081920980413
Ni 0.22135436461702346 5.637900185000002 8.131861481705888 -1.904851656439984 1.1905081811828528 -0.33206362970702813
Ni 4.257899362861545 4.298619680149062 2.166493136239201 -1.0302181539091224 1.351841819229749 -1.9697784390203559
Ni 2.8708953238802977 7.082247768344531 4.170268788238368 0.6045848810740491 1.5425060879199628 1.7646717696525676
Ni 0.05408196555141641 4.383721942885178 4.755037394611389 0.5974174167913324 0.9914667441725377 0.8394176167513608
Ni 8.751846667613764 1.7289662226932672 1.5680437834154917 -3.8134254989265615 -3.264724830614642 -1.0282350620408227
Ni 0.813151602732668 4.339829469581505 12.406173222103844 0.3716221087259406 -0.6739429599528973 -0.7048954424703537
P 1.8489339628295132 3.7042216506172037 5.8072801381665515 0.3494244895829789 -1.388857734332466 -0.4149377407944402
P 3.7225674431260733 6.854021967846812 8.517514702108091 0.638503645308681 -0.896430800911611 -0.26314392391717906
P 1.6594611781137425 1.9287744000076725 7.956207813451005 -0.8299700981852158 0.31280323881551936 -1.1570879538511942
P 8.773807023654397 0.10625122456727494 3.4095989536602422 -1.3281665870999966 0.6822404240749992 -1.8513146037537924
P 6.127993583033254 5.8593769176532575 11.692467298538803 1.7769444163723331 1.87339626614418 -0.23100770550426664
P 5.740491663991367 3.07760317585299 0.6277602626715129 -1.5720508914566151 -0.6831063716197203 -0.45908023963960937
P 8.35421644034225 -0.04054147169610138 7.424080053679627 -0.7258872142306725 -1.7376034526808657 0.7770719646346037
P 1.0405707154838448 6.723172885411822 5.825809482729768 -2.9692395142522794 -1.583043385912377 -1.7462642136796571
