# total energy = -340870.42025351815 ev
CRYSTAL
PRIMVEC
9.26188717593485 0.00000000000000 0.00000000000000
0.00000000000000 9.26188717593485 0.00000000000000
0.00000000000000 0.00000000000000 13.55570808788393
PRIMCOORD
 96 1
Ni 0.2991626563665644 8.983817411997098 5.1921481190398815 -0.5071992066340233 0.7681736337037093 1.044481348696356
Ni 0.8965654851498316 2.7483075290590757 1.6531319904550037 -0.0960157906756927 1.589558047102443 -0.12845642770290136
Ni 6.524221425960974 4.173813826319614 7.78176247543903 0.8612385692811942 0.5365974572904824 -0.3031837134478843
Ni 2.5031453789301925 8.322852104789028 12.594351053791277 -0.35002432795050686 0.34504255846519927 0.15913277374083562
Ni 7.090817366049164 6.1648509466579595 9.837431822156082 0.3529499862377341 -0.4007406233584518 -0.9897469332679535
Ni 3.832096503727807 2.7813354182679757 5.133790821135384 1.746930386508746 -0.2682586194359251 -1.3613808690684361
Ni 2.6498536697515567 0.9502510872279221 10.851547325326532 -2.8995430781974068 -1.337137423140039 0.010774979128316927
Ni 6.779275271455842 8.800320905825831 6.216511900227619 1.9873439587079451 1.4661790339224492 1.0578096903741459
Ni 8.360992555647764 2.476397049139025 7.89464079763324 -0.36879492368979067 -1.402571741484449 -1.1746236487421124
Ni 7.758525327027305 1.5499212259602466 4.64753341547987 -0.2132997467015423 -0.930147733548082 0.21451176473177253
Ni 2.1540000229268497 8.561012268310527 6.994623407181066 -2.3231449439702185 0.6707049126315741 -0.20411679465069366
Ni 8.765940781108098 4.826323030653951 11.25381330829811 -0.6631384131382256 2.523260330771003 -1.0004476075149094
Ni 1.249910180740195 0.38482584966244787 8.759048084767867 -1.5890654237367408 -0.8695062086066251 0.2664639894293475
Ni 4.109017664540178 5.919966653140482 4.244048568172932 1.0709030332229945 -1.336489762253711 -0.3815020868438139
Ni 2.0902041449484687 7.676279770051692 10.001712691271347 0.7797793362634377 0.5964095443521084 1.4240108851948314
Ni 5.30968239185252 0.7741140765040456 4.590179179942541 -0.27718137584685165 0.21111070947002353 -0.008764376456191358
Ni 4.208638521615594 9.003508183858601 6.531899530322773 2.4494871535435943 -0.414975278900595 -0.17666409775637962
Ni 9.11705891905241 4.466350528692895 -0.031970181708155535 -0.10566411239873416 -1.7749063028963818 -0.5509622106525865
Ni 6.75610203006474 3.785055379417093 11.093557655293388 -0.8451385783955381 -0.8355985001155867 -0.08434812452977732
Ni 0.4674066869491552 7.33214509494067 11.711413509242112 -1.208095555247313 -0.2530194338886675 -0.6959960830981949
Ni 9.199452666220772 4.865389670217367 7.6758657637007 0.27071710827874673 -0.1639664476840531 -0.047849515383111135
Ni 6.345198411233313 -0.052123121733294774 13.314673942704898 1.8744514468815716 1.821193615998696 0.022791029752586556
Ni 4.980440831112757 0.4136395802650529 10.684744444368423 0.9310337356974611 1.2037773874879334 1.011560172488303
Ni 5.510739435864526 0.17736606313498735 8.456687298804042 -1.872914184301439 -1.4032859939426543 -1.8825514502808867
P 3.4080687909510594 9.06354373569598 9.003769369073321 0.002175667495080124 0.3301265605853153 -1.0037190791773294
P 2.2835738227116273 4.184696543599608 7.648307018792938 0.18342815595309056 -0.4175679793284357 0.4353834102433018
P 8.705423611144285 3.655453793971175 9.472376396583742 -0.1901366783215177 0.08610933019525815 1.9352847761188605
P 7.206748406214 8.666051329308324 3.982165007169751 1.419183896119833 0.3809079049032408 -1.1590821014630879
P 0.628103205777306 2.8806506330708475 4.221247654641112 0.342846579255145 -1.098127673266902 0.14012023719407482
P 2.8109178854954657 0.915712584241688 5.416047755075419 -1.0498369565813146 -0.8976176221308606 -0.00490695038331413
P 5.721234342777223 7.851579506186538 9.96134383038915 0.2839567468974723 -1.8960435712300507 -0.43029828241091056
P 5.8140106653250525 2.149887745078069 12.31579424372644 0.010450248799046519 -0.04189612601315366 0.36901912388545477
Ni 1.7750777000680342 6.380199082383182 8.174241422368251 -0.4185087459751502 -0.8740493478926172 -0.7523042707716205
Ni 3.9145458222184497 1.0611899702745318 12.67102188095342 1.1126955437787482 0.5350098010883882 1.7590950468957383
Ni 7.294940094673661 7.995018350880381 11.4840165846577 0.5276407623178268 -0.32762667698159703 0.28539990710190205
Ni 6.048660573655813 6.926854179659606 7.221965686631898 -0.29269721209426364 -1.5105907272686048 0.22304062813839004
Ni 1.5909328618034917 4.7625271526755695 11.989589655749324 2.36364521807711 0.9756336337950229 0.45620163254023366
Ni 6.2658333011292555 2.0555091160711436 9.324904000081016 1.2608581916613253 1.9900194486575793 0.2987516458184597
Ni 4.917524832403823 7.87973564280882 12.187964457272574 -1.1573142109293875 -1.41675806028716 -0.22293032781277092
Ni 0.8863588856242544 1.8938336157821458 6.322530868874967 0.6958305040546081 0.2544250559869424 -0.28411538396252356
Ni 8.995459604014929 9.101795329199277 13.354473197533716 -0.20209976422066483 0.29580053360993575 -1.8537746352585107
Ni 2.1905011197783013 4.3065551914743985 5.472127554955108 -0.38561713745345205 0.6340859758569596 1.2642469056279002
Ni 5.779565707397991 6.828548510544835 2.3675180097716244 0.09711365172556179 0.3518197292880328 0.5617549303927164
Ni 5.277228739640522 1.412715631248903 1.4091701808873869 -0.5917247372819293 -0.4016050282412761 -2.019548568464948
Ni 1.2632009886523579 6.588387779421226 0.28890233789611575 0.419104213467304 -1.2087185335432924 0.7895266454581886
Ni 3.4588887651768694 2.031493042958783 7.255991081075739 -0.5648451392822659 -0.09229283329815073 1.3583667648324604
Ni 2.5955975354313834 3.311291333199012 3.1974525533180485 0.3224183933077802 0.08162429784071103 -0.025992567409019753
Ni 3.4134499473252524 7.188094965701739 2.048809993170191 -0.6803208384547833 -1.3353885587697325 0.043726494353673075
Ni 4.315724459650734 4.402443508069952 1.8737103137955564 0.5824690230116163 0.9978124838849073 0.6073953539396506
Ni 4.980663116401881 5.533921939142674 11.147807306292629 -0.4437806331680615 1.1522694494166283 0.1787700883557889
Ni 4.946625681504879 4.141600983170832 13.081868076085156 -1.2427990201667694 -3.0052334158483855 -1.1898273530657444
Ni 4.131311026661833 6.471595383761037 8.958886264444512 1.1059952489404372 0.850309066852884 -0.5134418451096254
Ni 7.620986304382277 9.277724873653307 9.052460961655775 1.5728571894079946 0.029658189186065047 1.22550115231827
Ni 6.938042539212144 3.202566041156589 0.5546221725140829 0.08416943286006794 -0.6742471214568775 -0.5358837190529093
Ni 8.625743596880637 5.602765545561563 1.7364861953101192 -0.4291250880384158 -0.12977540362464102 1.9236086253325129
Ni 8.400281480500304 3.6933812214278348 5.553108864348832 -0.8172721910025732 0.9059989042160203 0.6322085563285886
P 1.8215908968170802 4.925767911875478 1.8506519198038351 0.07480727491887762 0.10174086608492801 -1.1462834070365227
P 5.142523854431815 4.196848139405014 9.431207308660701 -0.37915338410597926 0.027413873236578595 0.14323872821839848
P 3.915434963374943 1.507066474594688 3.0006911725183505 -1.5652678070965107 -0.008664874763849594 0.2755314989482545
P 4.881255282728541 8.435485913165204 0.9503418537209808 -0.03286975414482727 -1.0657500282671453 0.6151346315654374
P 6.097007624040127 3.1946656515056655 5.353650422041105 -0.10069879797365884 1.4077579136710787 -0.4672177811450793
P 9.487136139781526 9.496953740051138 10.778590514870158 0.5167876216534067 -0.3561738924916704 0.26521211930011745
P 2.221408036853484 6.645116837582897 4.324081460333065 -0.7274154779497408 0.9046639874546807 -0.36669176130385883
P 0.18004089611410412 6.595862122267997 9.57523706174813 -1.168636320810426 -0.4867355394630327 0.6575053832221643
Ni 5.492789898767821 6.064387257861285 0.1882478542262765 0.6484895528767993 1.9967971337010448 0.08060845498168699
Ni 9.393868937220219 7.420772092091531 3.5176795193951578 -0.4262976458919497 0.0001732923530706693 -1.1180272404043068
Ni 8.11656209459558 3.126183258681602 2.8801810553975744 0.2889220613225476 0.9236179028493642 -0.39682997545013593
Ni 0.760918666028465 4.993212973350299 3.766670533629189 -1.1217975060800165 0.9527531296524236 -0.6868635246693073
Ni 1.3919041710547362 1.4251172980045728 13.414742148924674 2.329868378736981 -0.4305713335666391 -1.5922355939346062
Ni 0.3579515582074435 1.0178072913473053 3.0653660035774735 -0.23162811269708497 -0.43549731011334675 0.02236499795876148
Ni 0.38353196404200945 2.627412117437152 11.391958984544706 0.271249583743449 -0.4206764430504304 0.6785177238077734
Ni 5.863913712733228 2.6244760992433154 3.2524755718856975 -0.23432211458948035 1.64676072156568 0.3838708441863066
Ni 7.268247336204774 5.708832676021554 3.8880614562081157 0.7644493907745866 0.01923930784558622 0.8977158382716217
Ni 6.220079579118048 1.7864235117003682 6.7851065555405095 -0.19031691265312384 -0.5128237519096522 1.2760140734661574
Ni 2.706777227541209 4.792933927850226 9.766453350772908 0.4837234921095863 -1.2360128504828711 0.16096134230914214
Ni 5.515944616384829 7.7289150741386745 4.764370268197884 -1.1540851624691286 -2.141650514704731 -0.6066088534826134
Ni 3.246606314064138 6.707319670989228 6.469244716828559 1.8246710330243348 -1.236531956211135 -1.2494584344648159
Ni 1.4679072161608038 2.447907484583058 9.294375894186048 0.2566079225708742 3.049736640467083 -1.0385719251904566
Ni 3.006288130860734 0.17811349741966437 1.2881312100162383 0.5660905816535927 1.363442636693471 -0.18381459275823184
Ni 8.006354900625668 7.7284519797863345 1.2000515903898439 -1.0377000641084644 -0.4736951613393067 1.055636079761595
Ni 3.1805875831945243 2.6652839735715306 0.8424510577014741 -0.10898520635216713 0.4388441150983926 -0.2752353078640744
Ni 7.413677486613679 0.8110986438593404 2.069740005518557 0.5223178074430166 -0.2706973107844048 0.30079258750788845
Ni 3.9712934041542134 2.2661707369506843 9.621475180451887 -0.25822386090774235 1.7746221959970598 -0.48299278459114875
Ni 0.8002150003906419 6.658352074172779 5.909488680324433 -0.3626463875898916 -0.513868905344715 0.10497274275866438
Ni 4.439240985306902 4.4831330680217025 6.7009799093056905 -0.3188391605969541 0.25457957928693575 0.23363922958984282
Ni 7.634443826261282 1.2320532625139584 11.362706240496083 -0.6440315171054456 -0.013571053816215336 0.3259875987162773
Ni 2.2516573599483434 8.99864569315903 3.5330783327991724 0.7281772958164298 -0.47061446553145403 0.8312191401009685
Ni 8.516897900306605 7.478381029522647 7.735971705879635 0.2659538825621484 -0.9943893171359715 -0.3386849916782877
P 7.892711546561391 6.372437621037961 12.97667619395109 0.20357609165587523 -0.0863003631601417 0.21057746267437283
P 2.675379430452546 2.957459462349987 11.878337720920532 0.24659296153703333 -0.9975322336403272 0.31086822657633556
P 6.501307517407182 4.595183377513929 2.099928200158908 -0.34885396179148953 1.2899522808138042 0.6520255910545157
P 8.78094503812392 0.344358812777555 7.251666706013587 0.15287033777089157 0.41906333292703957 -0.8961860318906566
P 8.7014687853753 1.9782186686655705 0.24677742322984508 -1.2941305805612098 0.5105994905648239 -0.05569343690756215
P 1.167664623764582 8.441413520875157 1.3773417060510473 -1.0227740389262514 0.21895591654605517 0.9969038560277089
P 3.233760076730222 6.254033657031628 12.72003949195992 0.815188311890351 -0.4159821228985545 -0.6343122329351527
P 8.003863453010078 5.861107360958047 6.046062614339185 -1.158044918447825 0.40154897819236 0.34389096135925934
