# total energy = -381173.3446978131 ev
CRYSTAL
PRIMVEC
9.19399717171491 0.00000000000000 0.00000000000000

0.00000000000000 9.19399717171491 0.00000000000000

0.00000000000000 0.00000000000000 13.45634420427685

PRIMCOORD
 96 1
Ni 6.348703384081377 8.276436383153817 4.067475898634742 1.5960426263855223 0.5514628044380889 -1.5936085630227328
Ni 0.9843461285558546 7.775942751305623 9.634554359162568 0.6978503626981142 -0.9698332250631618 0.17717240485136584
Ni 5.045803636548059 1.3507269215670514 6.600094852671218 0.4362943520933454 -1.3012152553221334 1.5947791862920662
Ni 2.4605435314836037 0.9492526408036904 3.8598175170741693 -0.572921231422181 -0.35313382011376604 -0.16157583596468947
Ni 1.3188053628886356 4.003618070882205 7.2097883488313785 1.369328663160603 -0.7766839851675656 -0.9507088455288852
Ni 2.4728818758806184 0.9594947538128366 6.484396671056859 -0.5353401878446136 -0.14412524458840986 0.5968152644309592
Ni 6.76067720977871 5.886806152962443 3.6090052703151865 0.2555619978048631 -0.8249988702228696 0.5488065977621644
Ni 4.634583718630572 7.136564596013836 4.583297762806857 -1.6580918303077832 -3.222105453282219 -0.43445601333302597
Ni 9.079899808530191 5.132539807219768 5.749102138774124 -2.0545572233296485 0.06576239110778997 1.5026257067852575
Ni 1.3676071006377808 5.376410586005766 0.9409725268216106 -0.8510215195388763 -0.4285108514931846 -0.08636926872486415
Ni 2.143323042116845 7.636010112168097 5.03123298960291 0.8584754047137603 -0.6555253766776581 -0.23120979421274374
Ni 6.513487397961922 6.131384869541711 6.076804704479955 0.41999278671984447 -0.3343351993500242 0.14982229497318714
Ni 1.5392314485208427 4.338932346965301 12.104331422149839 1.9680403732833267 -0.13002737173444703 1.526320993519668
Ni 5.9513572081125465 0.5840928106359535 13.446871089107693 2.3474125582683314 0.9453056722354429 -0.310513157229762
Ni 6.69325762746626 4.6807559731475665 10.431330990291588 0.6646576779962295 -0.5620176971357999 -0.8980451965865824
Ni 0.6501783439379656 7.6776773080006375 7.243684778133103 0.09895584714062312 0.4706831139858603 -0.67956262013252
Ni 4.158196747742864 5.585509666945631 6.29071960121353 -0.6081075495153269 -0.5671439626187716 0.11727752826794642
Ni 8.933669281231746 0.26233508359413776 1.180605792245027 -1.2753751543305778 0.3538645276322035 -0.7368861364443373
Ni 2.018395006597745 4.945184529930378 4.9663868071389885 0.35088744728175053 1.3988804086757909 -1.0904781271414445
Ni 8.947478665199194 3.9906729226623865 11.00802998828665 -0.5763914493589686 0.8758928288592593 -2.303171586172085
Ni 8.811370728944794 3.1858212036914155 8.546111034804689 -0.8821251829222162 0.1922349556114431 0.4502577562519729
Ni 4.093158410735055 1.7405248257400936 1.809851243095718 -0.2196460006345443 1.4369191086160673 0.34558891788697255
Ni 0.0411440573853051 6.323052131571936 3.8624552749039034 0.23365079955406856 0.5966820812872047 -0.6101356356889492
Ni 7.689105446663445 7.935780394630583 12.495588413696805 -0.051340302145189 0.6719783800273589 0.19203466667517896
P 2.584607331255074 3.0558180816543183 0.12062800297477563 0.6139856055626587 0.11273721719543163 0.970535136226193
Ni 3.392318383391076 6.529337849333347 11.889635955044202 -0.0770446488898286 -0.5494915396443311 -0.1610114788207872
P 1.5515789869151724 8.995250675249034 0.07715970306818494 1.111841680418885 -1.5324839277972704 0.7797307424136893
Ni 5.26124657563542 6.531075514825922 1.8031230758604457 0.09530668042381005 -0.1873344329860322 0.550519209577897
P 7.150750933871208 0.6622252386200879 2.513174569114535 0.14723499386198513 -0.3208829304998602 0.6822543080320702
P 6.858767967134707 0.7384002645758136 7.973718505152074 1.026322161288826 0.14089593901783476 1.0857850925411494
P 8.030340657017538 7.536282823289992 5.218572637096864 0.26786292665940326 -0.21924902230644178 0.6493475300017203
Ni 5.1793372535541975 3.8035015253193016 2.074766162336504 0.2734028826410259 0.38253309921148954 0.8792586600076986
Ni 1.8695625780590936 5.779788024213375 10.303684289766379 -2.298892499180757 -0.4907616299032903 1.9764861900578345
Ni 6.77799870072057 2.4460445977175147 1.2732261211984723 0.8497053718306141 -1.966231859319678 0.24077892595841757
Ni 3.0429924553995975 7.29847088873472 0.6399261175317728 -0.4165495653662503 1.2485035267507143 0.9212542877131942
Ni 2.6689070926382525 3.4387848458221577 2.648249100070703 -0.6963285267369491 0.653373620441978 0.25791147187364616
Ni 7.070009249449018 1.0328720463855432 5.004562122791212 2.5251809448324836 0.6477354483195942 1.1176148354572364
Ni 5.040820490003213 8.971052074315397 2.0181421716715766 0.09588235042162198 -1.6169307826884411 0.1281322115942632
Ni 2.9709758744295423 2.091119525361072 11.142956495886041 0.7045707121410835 0.48065050961121736 0.920434620025376
Ni 3.2075925893338373 5.793910004089541 8.688963687489526 0.645329924201895 -0.6283243907828341 -2.6977950408892055
Ni 7.658241197676278 1.949771010637003 10.376509942500174 -1.6997778971926598 0.6458161198096942 0.34489292026121243
Ni 4.513572325967752 1.8145181161329196 8.831721642002016 -1.1456699418222396 -0.15091038583104333 2.0208035239179716
Ni 1.0108432288182954 1.7074815993892216 12.725799670671593 0.18725318612613556 0.12152164825628105 -0.7336028377073753
Ni 1.686372181553495 1.452541247835709 1.7102204911894234 0.4299015611931241 0.22775191757113036 -1.0872843027944952
Ni 4.655417316546842 0.28787968573472267 11.093235358405376 0.8478973720875979 0.19434197465211692 -0.627992461364712
Ni 8.585740840832177 1.563577153411524 6.760238656106774 -1.1506833358764312 -0.613404279137892 1.7065823217090026
Ni 2.401499680725313 8.821677199935149 11.50493244478352 0.3760593185616878 0.5014646181430912 -0.33112594838410714
Ni 2.5047574645724584 3.660479703083864 9.382947751035552 -0.4777240799930418 -0.4112080985486789 0.1256022460835579
Ni 1.0157068533980427 7.150539471932959 12.352117004992655 -0.3493715248578564 -0.009940399042163525 0.22732022935035043
Ni 5.032867682325555 7.884698545547265 12.847781030051168 0.523816246365414 -1.6324679590920919 0.5653873849389811
Ni 5.256511667018087 8.733644675641994 8.860773754118355 -1.5331159049543146 -0.9060724377664331 -1.2039874466162104
Ni 9.103785813555112 3.2079879312183914 0.6404225933867942 0.7133029498077587 0.5322083270838512 1.1323526558880432
Ni 9.085921876771655 0.2474251781480585 8.66813284777245 -0.4043437673286778 2.069422570477255 -0.5931642979419333
Ni 3.59437486238749 7.7148210571540945 7.09765651877559 -0.0416385014763928 1.1031441526448873 0.20247180284810293
Ni 0.9724123200407094 7.511449836541605 2.200771734340947 1.4913341930318382 1.3637511690728257 -0.9753305007323074
Ni 0.8048719457650647 2.097279503562264 10.30422305800905 1.4021107426876305 1.4156383448604202 -0.9224249109825274
P 1.9236876402537464 6.065877638670827 6.929775047199551 0.612386636506655 0.08010657564460398 -1.0408620067762138
Ni 5.42517554776565 1.5438008651865032 3.7482244552610524 -1.278006678416154 1.6346891351131265 -1.912220180989913
P 6.857462419515947 6.449414430672209 0.3525511822496552 -0.699989263417988 0.3011322302354943 -0.2788322811867133
Ni 3.7981506188818477 4.987890647459538 0.8232985551842125 -1.2587815116379546 -0.814436521325991 -1.5699117336264252
P 5.1238606737542085 2.520966481839177 10.88824139726675 1.0201671974310238 0.6619212529016729 -0.17121387327508578
P 3.5065538000325853 7.5243949847614235 9.946310855924896 0.1990244677294508 0.9409347968612568 -0.15908443700140346
P 7.999549960008893 1.0075058077928736 12.53400645087815 -1.1332710539372548 1.0124847411851015 0.5168441859229551
Ni 0.4948034669098094 2.4806508036119723 5.252414821814428 1.2159649306930607 2.079727551947689 -1.1488593952938149
Ni 7.843766869499942 7.483527666695306 8.457554452664567 -1.726833615758871 -0.32927166878418773 -1.3049703514891913
Ni 4.599710886813973 4.776208053274097 4.053090970435361 -0.03866682044257857 -0.6758268072391715 0.5968065226802108
Ni 7.847039932544157 7.500554949723079 2.1693779111084246 -1.2304325281816166 0.1267407305633753 -0.5177528137801535
Ni 0.0545295980765222 9.443062702481065 11.007074731965599 -0.2202610085107239 -2.730386858782298 1.5091190278190847
Ni 3.9107862799905098 3.4542767312982896 7.269143876098656 -0.0768621005653773 0.32335864573386247 0.4224384200468595
Ni 0.011763719564813717 5.534795577754922 8.491949196620775 0.49723438211182747 0.5376935185681385 0.39275272005696876
Ni 2.8680122984964833 2.9391094797350172 5.121861898737881 0.6252915174937811 -1.0271971076946116 -0.25530925836410867
Ni 3.714917361187234 0.9076415283547726 13.215812145580445 -2.338682120373869 -1.3837682356247007 -0.20892450045198213
Ni 7.320701974242901 4.608325662298327 1.3977909938236217 0.487823887431205 1.6228651458950052 0.4118395614850907
Ni 5.018286002583629 2.811634706959603 13.176317491313487 -0.6086292263467518 1.288909955592219 -0.9598681434306501
Ni 0.42033208865659244 9.059774148407191 5.280619247378303 -1.0275403499666433 0.5285992695763542 -0.0009261113586951791
Ni 7.074376398173743 8.849415489835142 10.191135971632212 0.4321361069505977 0.3347141799559977 0.7368730238182148
Ni 6.958044750144365 3.7548468915271993 6.062971416119488 -0.0390933664570359 -0.5014738741144719 -0.5237586536546012
Ni 4.280449330043237 0.0033263882286436917 4.9688489596200025 -0.87916558607326 0.5774803115477731 0.6106262021721226
Ni 5.720725785460454 6.891489403579547 10.625721514326578 -0.6905103773932754 0.5623642818419412 0.6103896606812842
Ni 2.514650205683626 0.4615708442142442 9.181963292126092 0.22684097572108675 -0.7818233632766599 -0.18760234193543818
Ni 8.188128038941207 6.6891111346771 10.532832720651529 0.8947464712306527 -1.1462726084032453 0.9049380670516737
Ni 6.391887589470928 8.485728538037302 6.523635732198453 -0.3706124365145037 -0.877469686428076 -0.09595562686171862
Ni 4.378944623281104 4.645616515408826 10.533209674541451 -1.0135211528694157 -0.9934117837140505 -0.9565334226304621
Ni 5.309754105470479 5.251905474363165 12.42358378492326 1.7075801668458979 0.30257590466055634 2.007134253960995
Ni 5.3800054389560135 6.269221277291369 8.370007371429654 1.2701121061594254 0.15807656456217936 -0.47325087471303656
Ni 2.77310266421155 5.958326258077476 2.768413725580792 0.3438696212030207 0.5309729120148532 1.2202877264381307
Ni 7.426828285252394 3.4539457473949424 12.512906227039739 -1.5848470147800189 -0.9929281592094126 0.30904788553814516
Ni 8.582734403710104 5.596211479820538 12.748285429905406 -0.5205977394281164 -0.7186647283403044 0.6751061270230632
P 4.9728768498437965 2.936700652438432 5.379765475626087 1.0200682099593144 2.477646646696946 -1.1572183087814716
Ni 9.18831542487117 1.3134820384431278 3.4576748327059925 -0.6788830775669922 -0.707591244134962 -1.4404525756906226
P 0.6508586997392913 4.455447874940982 3.035548995173202 -0.10640073345444256 -0.8053854668673162 -0.6430228733352733
Ni 6.430603512165286 2.8218400439794884 8.236506852813852 0.3430242424835899 1.112992763304193 0.2145351617705402
P 7.135102750440718 5.032564280414152 8.031297752138052 0.4529484157102586 -0.2798838623796792 -0.18478055621592693
P 3.190877902214782 8.157833817787582 3.071154588575823 -0.19762013118275643 -0.30503105106926826 -0.15634955456874364
P 1.5014717015472672 2.090705795481887 8.217453212777807 0.07934758599139237 -0.8600957139260026 -1.0008839237213796
Ni 7.616399315894749 3.1448803336467765 3.5627419952247714 0.24124583829250706 0.839126310763187 -0.05671287931101201
