# total energy = -340897.38387963845 ev
CRYSTAL
PRIMVEC
9.01561275079925 0.00000000000000 0.00000000000000
0.00000000000000 9.01561275079925 0.00000000000000
0.00000000000000 0.00000000000000 13.19526057290395
PRIMCOORD
 96 1
Ni 6.146276780232205 2.168146675806774 11.47740873800452 1.2476877157176383 -0.6405006211340518 0.2866057544845451
Ni 4.547285736488909 0.2828630464892318 5.869252244551215 0.4034976172782986 -0.2596544227066819 0.1787988847111953
Ni 2.8085256484896317 1.6198892340668054 4.8470674818397015 -0.4208340516742172 -0.39026697752063755 0.25356476486917623
Ni 3.2714773625156033 4.266927227217913 4.98103948710603 0.4474382845253068 -0.11313265286163743 -0.30175315164894484
Ni 4.920883712682137 4.550098607662738 2.606459621784808 0.7490106876220133 -0.2056975088742522 -0.37815296786592295
Ni 7.361978064090396 6.2547796795175525 2.573313721558586 -0.07086500244167795 -1.3399584375286018 -0.19560027253925022
Ni 4.969640146361834 4.512431377649095 11.366714143262897 0.4193368983034003 0.5212574844993023 0.10232450650253991
Ni 5.6759052169239865 7.82190053223686 12.328596177062911 -0.9952069279412602 0.3090697399150161 0.48301181075454236
Ni 1.826779515147 6.4010579961693805 0.3638845550307819 0.2260753011996558 0.1961818560743331 0.6782446726520448
Ni 2.5674571795248715 1.4363133275235371 0.3922332477198426 0.8931066216343845 0.11420094622515171 -0.5803416922559683
Ni 0.4662315939395576 0.0359560667162294 4.635495393065375 0.9327391484243421 0.3311398323411781 0.18874956816600397
Ni 8.481771259656313 2.430591162570085 1.2950954743007794 0.6166446404520606 -0.523560421600866 -0.07156588516344449
Ni 6.829552038315951 0.6151082101820828 4.725552348691576 -0.033410714249961816 0.6413038337616375 -0.2570069577815058
Ni 0.7230007524851599 7.235579173522837 2.5532431644843 0.20182002819671693 0.2749702271281458 -0.051599212233530485
Ni 7.387284889042117 3.918915559971243 3.7270939740190525 1.5038204984243069 -0.25054988930225236 0.3576800447235517
Ni 7.556435815206777 3.929770357706146 12.57658773504813 0.7457297028778963 -0.5079733657958865 -0.21893380505886811
Ni 7.956512646007488 8.788031624319647 6.716414212522702 -0.7509027624384036 1.0642891274509025 0.8733037279758444
Ni 6.880246828734024 0.5541563571535457 0.4943864509547808 -0.5152493306320094 0.9114658408678624 -1.2502331078473112
Ni 1.8838663749953437 6.627331844633331 9.315814609534728 0.05737236727188184 0.026543554816483322 -1.0425049416962755
Ni 0.1388620736146762 4.87276738750674 1.3043554101425725 -0.4974763229193046 -0.38943779675112283 -0.12579919258571237
Ni 6.321991072469133 2.037149822743534 6.828573844334026 0.3095489935442798 -0.8864580059696152 0.7507713790668619
Ni 3.423724014799081 4.1802601419806855 0.3488104505351359 -0.5343063472634605 0.24504464321330702 0.30452402952586266
Ni 5.897842555661618 5.554113304464847 4.7247607778933 0.02534953450838215 0.5093784736735292 0.5945969166234018
Ni 5.234212317730989 2.9251786616888924 9.321475512772059 -0.1688353457405802 -0.4065065793079515 -0.6705048808056259
P 0.26862288617172403 5.601337083979317 12.235291797728976 -0.29808470165842216 -1.3544476322837125 1.055084063912867
P 4.063949722065416 6.105976991299467 12.756294140604838 -1.0005298828160705 0.007019625850942749 -1.7013048753601472
P 2.2497469866860156 8.399675090076556 1.4327674870342202 0.41895791769742685 -0.1369444105692545 -0.07665461254026154
P 6.377806730921611 7.623142333845106 5.6433092690747 -0.3090499424206742 0.20964209534429698 0.585118030598689
P 4.803734840782361 0.9904011215697969 12.719874671393946 -0.7602703196962325 -0.1297023842948605 -0.1991216554289474
P 4.133108487368108 6.303445957069883 8.24728869579566 -0.3518827213154843 0.5772489122632575 0.13749565508703418
P 4.789535250722168 1.1515732304625388 3.6613413072082595 -0.7958528447865325 -1.2959792037341744 1.5680872788231766
P 0.21193091016124468 5.3293721101661236 3.579570601248295 0.6454039719729402 0.6247297314530402 0.31661155681801606
Ni 1.4992693512634272 1.116854105813775 2.5393221568576685 -0.874386676627378 -0.28106348451007723 0.3088753645160229
Ni 1.91962229510882 6.348758426684188 4.936202140282945 -0.40370201997962085 0.5300591419513322 -1.2343102659694678
Ni 6.260152984708584 5.816620900517314 9.098594239380903 -1.170811474084874 -0.5417072677132219 0.8381343791635629
Ni 8.447944680668474 2.366021344150338 10.056358842844098 -0.0347973101848433 -0.2595109551502821 1.0790793983861997
Ni 2.4803032511998655 5.296951966765201 7.189912390327984 -1.1847645938308562 -0.5370823673467009 -0.5428717203349682
Ni 0.5716205005856725 0.17166267587308498 9.211360621929403 -0.32964962094889677 0.29611652218845774 -0.35278312164256664
Ni 1.4583384694391253 1.2490049573073037 11.352858949609244 -0.513572971370851 0.5899452767840033 -0.14236866690861932
Ni 4.091943199612654 6.890741001959461 1.573706757823416 0.08936460390776223 0.03700588780038788 0.6396107623299307
Ni 5.687391107550454 7.869340686457009 7.850058093935904 -0.23886396832389187 0.607268084333167 -0.3936760032021865
Ni 5.337359943050778 3.0212490310104263 4.773055612200881 -0.7133551432019327 -0.5860531408184487 -0.3410756033976513
Ni 0.6778523670226623 7.4033146484878465 6.961252109172647 1.218029012310941 0.18765684932245746 -0.17887653202666612
Ni 4.996804187537301 4.680374211707047 7.100369324627771 0.6256329599935999 -0.2945635758790411 -0.1564626831078402
Ni 8.314910299126756 7.255729067989206 9.238727514391444 -0.4574709861709605 -0.598162522487473 -0.4795953288738256
Ni 4.595420092889779 0.3589142477290776 10.55404410649921 -0.27510546715442946 -0.39328159597724527 -0.04448111313151049
Ni 8.36793111763088 7.080627837418371 4.700600738881678 -0.824048076273826 -0.8821182409436809 0.32358593125332014
Ni 7.288518851512331 6.094707475378679 6.937896262817133 0.612244454501836 -0.5530275778220475 -0.17126066735262122
Ni 2.326262491981798 5.129955772044595 2.5110446875092274 -0.21533914572907428 -0.22020135891738205 0.4422166311150514
Ni 2.435811202344594 5.186041898879173 11.48751704300483 -0.21250244761122755 0.060901463471062865 -0.669011584089551
Ni 1.1261672337707143 3.2436641972230986 3.8185240074650424 -0.32068007046043484 0.6313521218655643 -0.3360933196917115
Ni 3.4468670926940113 2.6249677731718366 2.7445616792457863 0.37862193708254144 0.6778494940961551 -0.5031502333756301
Ni 1.06421194304459 3.2241453956482937 8.30496517671698 -0.2795519329615573 0.3330933565231231 -1.3058075026785059
Ni 3.8458350031281165 2.6135089293835794 7.07837303267294 -0.9169037240539821 0.14128494692613733 -0.4334640817334019
Ni 4.0054834734683675 6.803803448340134 5.988853363115354 1.0377645987978128 0.6736565390607302 -0.06471158124577242
Ni 0.9671949343857102 7.355063089121401 11.353268258427487 -0.3836139909804942 1.2167925688006787 -0.06485504880217217
P 0.33568732463569667 5.629510873781287 7.997660804098743 -0.5155689187549573 -1.0370847991219687 0.8727571114437549
P 8.273943354851507 1.675560642715498 7.930127553772466 0.5290121887440566 -0.7851956221830027 -0.08617977842187738
P 1.9204337002551168 3.358063307238202 10.249630139324339 0.0320598566490222 -1.3803239858298422 1.4533682553110259
P 3.939696547329176 6.073277363903709 3.7843611461221283 -0.43506793588541204 0.514608868834533 0.035610807225074155
P 6.859790403434609 3.962379828974538 10.37982730753784 0.29117254791962105 1.275603725401616 -0.07630519962064279
P 6.200018847755259 7.72153873125269 10.223621899701708 0.17164067639985925 -0.4030461315631768 -0.9446832081600955
P 2.321745670000746 8.39184953822116 5.753476450471228 0.3421523814015978 0.6578486254941961 0.23826644394920904
P 6.906960089272659 4.034459652803898 1.595887869839348 -0.20071676783020917 0.23086655194071207 -0.49822091439481286
Ni 5.228911137441852 2.841180197821707 0.7197866865445512 0.24859996466473316 -0.47225200113487703 -0.9102813336414581
Ni 1.3620156629609659 0.9855597375302264 6.987668756052249 0.1285901250672882 0.3586472937328275 -0.13032459125989168
Ni 6.726647834540051 0.601513567736518 9.284580920769946 0.14343541761023684 0.7743856760516922 -0.7336941118696009
Ni 2.84794190737418 1.4674983319795416 9.131054051477866 -0.899783776544244 1.7516887271293382 0.7237061474189536
Ni 6.376787966682371 1.9698843361155345 2.5951774840061885 1.1913687294109352 0.09974569003177015 -0.018888866484702952
Ni 3.9868662331672264 6.810556142279871 10.48992867496139 0.8958685006502377 0.5457418427939117 -0.0932215157600072
Ni 8.101258308494089 7.177158002989473 0.11098579903301499 -0.0012153604643398424 -0.2033943146623723 1.5827536225861
Ni 7.480948089762971 3.8173456668803647 8.236706169565405 0.6549926441026398 0.20827118313869938 -0.5037184471742745
Ni 3.1128206095763815 8.177025517932732 12.526405932994772 0.5003510733639382 0.7556747299057501 -0.30712547170445176
Ni 0.22253327073952203 4.801868608945878 10.132904099661912 -0.6382748171273266 0.1483721927902219 0.04431913363234948
Ni 8.780783071679396 2.346096840002385 5.652203171039385 -0.9812432666723163 -0.08008112172330724 0.7171938002217325
Ni 3.6199307947863684 2.5815666134576976 11.551407985785508 -0.4433947105835525 -0.045226733048283396 -0.1699558324982686
Ni 1.0993728327174486 3.394008555219147 12.486199906434496 -0.6572259043085327 -0.026936162269211677 0.058233686830912616
Ni 3.1286971036055875 8.420392968145332 7.97266862403153 0.10616547751518489 -0.9864680054063656 -0.371394823206483
Ni 5.664130826689948 7.745294870813711 3.5883590205439626 -1.1029027260580424 0.4378958922525103 -0.5389279051958719
Ni 3.0989636128001803 8.25451470940407 3.6126777343397496 0.058750478566331074 0.24283349449460118 -0.022133341563929623
Ni 3.4300078968765124 4.463593803454769 9.214316841345743 0.516074397636466 -0.17614550624874825 0.39148285220560963
Ni 7.314700190899506 6.15675292223217 11.374156531576984 -0.23169033339358805 -1.2880684335275299 -1.065981941772293
Ni 0.5529753118850471 8.970615813461887 0.05801366483766936 0.19182357910563738 0.15736411187618704 0.8123228174170977
Ni 4.466316518501231 0.33434850614430706 1.6040686368365664 0.1685700078943355 -0.1981960582908845 0.2936001835245073
Ni 6.009600091144888 5.601724755326992 0.26112099481357387 0.1916705984675409 -0.06398267349954787 1.1368811398860161
Ni 7.8530855366928645 8.62896015319454 11.298204502077244 0.8307499137740336 1.144712977225609 0.2835893362557245
Ni 9.312677176302381 4.841366008345056 5.8450651587013835 -0.8354923135550256 -0.6066954996591487 0.2623090867207095
Ni 7.807583739211091 8.805972693665542 2.5151485944269414 0.9314643954769766 -0.2505822852020846 0.6041282531526047
P 8.527886118804178 1.6418692979187104 3.5160483970285448 -0.6631116736653483 0.38809156713587356 0.002400381911376511
P 1.7503271191403742 3.1267948093181586 1.4355650316663968 -0.5226011430113903 0.7244139721192557 0.4879460148313661
P 4.71865450338678 1.016546398506025 8.257950559418 1.3949371077573267 -0.524879911743238 -1.0076017020611872
P 8.379957945021546 1.5757127316573163 12.298286588603634 -0.03636748288544059 0.661903255179544 -0.01131028280649665
P 6.26433622901838 7.640596560103223 1.3366141740755098 -0.07326101347768028 0.09571779981929968 0.35236248916538027
P 1.8254992981383984 3.165381631830937 6.183510359273215 0.10758858311495663 -0.28186798268924357 -0.32758142556595843
P 6.8522803980249956 3.9844590645665456 6.03862585635047 0.8122929926204268 0.6918380950657633 -0.36456751587200437
P 2.406853054234537 8.700012197171926 10.266928395482111 0.8452655908917055 -1.6247261103631436 0.018724572992696784
