# total energy = -340865.7885959791 ev
CRYSTAL
PRIMVEC
9.35048340707568 0.00000000000000 0.00000000000000
0.00000000000000 9.35048340707568 0.00000000000000
0.00000000000000 0.00000000000000 13.68537762760356
PRIMCOORD
 96 1
Ni 1.7641557186541135 8.2579916934224 3.904246690676101 -0.4667804364973445 0.38094904255382134 1.0491646131046382
Ni 7.362841858186728 0.9988560475407168 8.497223813323632 0.23247503407841255 -1.3031304700669752 0.8124200051165944
Ni 5.914096648366242 5.224404986692805 11.250584945516113 -2.582968288154597 -1.4654676096777213 -2.17073997587152
Ni 0.8799169625942378 -0.05369328130188963 13.198438392571855 0.3644831836883142 0.4873099239092639 0.9554587015090449
Ni 2.8439963036372604 2.7084890970080377 2.417358053585219 0.1828522288449625 0.2996633589994517 -3.287218383731468
Ni 2.0746011207585036 7.638662419955207 11.570124627855641 1.3629839518894977 -1.2854165977269798 1.1040550944949308
Ni 0.7381243609680401 2.727349022192356 1.2388521019424739 -0.24973793492391827 -0.926594726089501 -0.4455222984495166
Ni 7.209475228105821 5.769594276626799 12.816766617587431 1.0283399630498031 1.5723100586552727 2.6326373732449504
Ni 7.43063286343527 0.31738626599349223 3.674907382299414 1.2817314355659088 0.538518328462279 0.6835311178619647
Ni 3.2101331853637625 4.324636012616749 5.63260034312385 -1.1689456245207286 -1.0195627310778053 -0.4336029213041113
Ni 1.9527082180798845 1.653240283584017 6.737037374907865 0.46350587951113076 -1.0437966639245055 -1.6440374090972458
Ni 4.048693894562997 2.8807343532402285 7.55122230871642 -0.7574053394436118 1.0141266476638986 -0.4646703321328772
Ni 8.979316040717329 3.3194403372748584 3.3793442097058635 -0.17455785004665422 -0.20790094428347422 -0.8108200076193263
Ni 2.9731264805313784 1.7899443520990068 13.46756120302178 -0.4333216426182666 1.871654343752409 0.5927745187026824
Ni 2.145711547643353 6.558831185455544 5.920554092259296 -0.6978501055877981 -1.6163394289613453 -0.7620346106855069
Ni 8.708713048732116 0.39138131703271056 1.637126595398526 1.4515024057468808 1.1942046561978337 0.7325000915614998
Ni 7.985686913443362 8.888017919993638 6.235372715488478 0.6051700641535577 0.23457305425802183 0.119208169631756
Ni 3.3697552888945004 1.3600091215710155 10.647223492692085 -0.063643030771942 1.2911532431004407 -0.5096026738691933
Ni 6.79387428875659 3.2025686442263734 8.40267172434801 -1.8313286475501684 1.3230344080797538 -0.2773101881152321
Ni 8.93189973897728 4.808813397827056 0.6077515048190898 0.11836947578054453 -1.096525361776789 -1.3533379441593014
Ni 4.845149376640276 5.564491421436902 3.979790181780031 -0.2944352778312929 0.8521803157336678 0.35126334256393055
Ni 6.429373741639536 1.085750090544123 1.0081925052980503 -0.04572784105441802 1.3609962320355076 0.41376428931162934
Ni 3.329623013787364 0.48097016937578996 8.348984053336212 0.14118750211632458 -0.2622772050415096 1.572892413521304
Ni 7.212626341039443 3.3904479088414 12.40474130312193 0.9795242270986807 -0.0299968034724064 -0.5922613265116897
P 2.9212125962362196 6.5529777827954625 3.845960451887579 0.5387641259244978 -1.3383299007862435 -0.46204780690836555
P 4.030469802255492 5.906728467381987 6.792326783740227 0.3964718207797688 -0.012944218865493835 0.4291245738177835
P 6.468355907278317 8.873347011409505 12.012887786673353 1.4283501360001336 -0.321610295584188 -0.5401113839810118
P 8.68477581101677 5.7615061084143875 2.385060548588117 0.46609163796043607 -0.04018042887362758 1.167326343749751
P 7.049394950884437 8.00396710865176 8.40143933062501 -0.09920498703695173 0.16730348247708607 -0.32832190327640876
P 1.4241721392283249 5.590270704398313 13.085246114773756 0.4605177434170843 0.8373399082867257 0.18246630626045351
P 6.970813487697025 2.6870110364486033 3.938117882043317 0.3732694145213765 0.12007154607331579 0.002049169219544858
P 3.88041324332741 0.7878343363063602 6.235892602370109 1.5821432426956108 -0.4636416337580467 -1.4543267625695535
Ni 7.264699183553804 2.0246788894451293 5.99727480923368 0.7840653652333013 0.17189161606840075 -0.039729971599770285
Ni 3.188907587858357 6.942696583864975 0.35372879014514824 -0.5541609200955424 0.6979046129748173 -0.6175308997117559
Ni 7.277855313813763 4.987127117839427 3.948614734800836 0.32630178752258643 -0.14385039366046837 1.7110845804547306
Ni 0.19762059830715512 5.105214373740646 6.914961179759012 -0.3764560397794742 0.6996827879211628 0.01974967182310147
Ni 1.415102170250244 2.6298421804362473 9.46769459815635 0.7873545775075343 0.4291227740455706 0.27730735990175465
Ni 4.95057607790611 0.9728710539426896 12.173088685131662 0.8419534957993371 0.0005599862685280679 1.1266800309832985
Ni 5.8792941488441635 2.8308495238607843 10.513394697847982 -1.300018921021187 -0.7903769092736259 -0.11200779522857483
Ni 5.550306737993862 3.6777041119090477 5.498675238299876 0.33605166782049867 0.014072933153298346 0.010596287458607558
Ni 6.585152796458943 8.144074753154403 2.0062902286283317 -0.3718676490778434 -0.949334847999494 1.211900787926016
Ni 6.476509528875107 5.466077582782985 1.8917430657736098 0.7824401709250525 0.4735038712641071 -1.0884968350453577
Ni 3.127708673465018 4.331190701538022 13.815525420099933 -1.459564356819409 -1.7231520531422257 -1.671039905828019
Ni 5.351113388364941 9.1082031050409 9.902205955300705 0.28904418872270865 0.11501984258202126 -0.3183820184548775
Ni 3.3925985200423883 5.630748947394303 11.79096528179503 -0.5008640084446148 -2.153035873723537 -0.08083831160430593
Ni 4.751373377793706 7.644749584702352 7.794575186688415 0.47644212795682467 0.572199522764808 0.8799137770931943
Ni 4.711839533629453 7.815106043271067 5.348601848501526 -0.8757974409319755 1.0343278052021219 -0.8483509146852486
Ni 1.373885239059131 0.14195342994209761 10.734181118983173 -0.6504109382692282 2.344997263958619 -0.5480959448483851
Ni 0.8463113249579263 1.0407836154765044 3.7253242541890157 -0.7444112411767889 0.6668354023738386 -0.18033563307069586
Ni 5.162570239422653 3.515884644759908 2.9019300291984895 0.6342896072273334 -1.7344811050018 0.348433072203987
Ni 0.6646258206017456 5.932339441640711 9.918189671765788 -0.20579778189754233 1.8845916206393674 -0.7221449735794209
Ni 6.129447633453023 6.078758662494079 5.987188442701046 -0.7423903540920181 -1.4952661810963928 1.349412126742334
Ni 4.163452378344424 5.255916116029023 1.7373039352372532 0.24654025392222698 1.5354332402335813 1.6315271924453774
Ni 8.89830345182445 2.6186964041250382 7.866930162924793 0.2521863964644109 0.6178412318633231 -1.0035388448457234
Ni 3.294287536706779 6.616635874344713 9.716467951403182 0.7733718900751971 2.1449646666796283 -0.11621643399328373
Ni 0.5976006199504256 0.5423495481003417 8.207476641456232 -0.6726664072333189 -0.16979256744752694 0.06147739057919089
P 0.568378488970737 0.1556219666969001 5.7920214112597135 1.1029968284337455 -0.16900375299764442 -0.9104566828770578
P 7.635043782847458 2.9271969056650566 0.788893746084934 0.9044935233150875 -0.585449702906495 -0.08452013133126733
P 5.443701875809225 6.630128622010044 0.3637693393087184 -0.2729688804274008 0.4055933234650627 0.1958193305285918
P 5.166721854088908 1.570544607664279 8.656507429352303 1.81365951240518 -0.1770569623194241 1.576928788374207
P 1.319961000815222 3.4464853563523667 7.189558698287974 1.9519761207316124 2.267317295477637 1.2533130323242156
P 4.426958353366376 3.178229335721276 12.176441768508505 0.03638856593136314 0.5619907005526064 0.6799845381612869
P 7.540575848223179 4.2306356021666 6.669637219868894 -0.47458167770931814 0.8631386145173846 -0.27488743760635237
P 1.5711430386071628 8.682887013353293 1.784573434386626 -1.0078806667541866 0.3241325477854095 -0.022112258518007077
Ni 4.138673597115647 8.169928839983674 2.7410989081534565 -0.6545360161811954 0.11174785669896883 0.4483587394570472
Ni 8.579695077639789 8.952012628948262 10.005749469193153 -0.7851521705395768 -0.22850267969422583 0.4648587939945994
Ni 0.7669584468832025 4.303223405441693 11.444834694527808 -0.3554359858843814 0.9841234164335889 0.5201318555352913
Ni 8.292738090043583 2.364307150498581 10.172026311818426 0.8674948346035511 0.2512931952261801 1.041276211495497
Ni 2.2573376194581236 5.171696311301629 8.493637902908072 -0.39098920039864277 -1.8113452624497064 -2.9440648147588653
Ni 0.4858324207867198 5.438764820530434 4.338387768674547 0.5551983602211212 0.23113883176549227 -0.17839213619107985
Ni 8.672470574753724 7.743247577707612 3.120225481533928 1.0819664901260078 -0.1430806053739794 0.1103437772625906
Ni 7.759115348177513 8.550147549834907 0.06201988684310704 -0.36122225354885534 -1.58195400950294 -1.926414470212424
Ni -0.008107804227725562 7.520453607768716 8.00459078590005 -0.7068893329719309 -0.7092480630120946 -1.1827012835439243
Ni 6.024385601043008 0.23445495788999365 6.868937165009516 -3.6775578663612536 -0.3130510931602673 -0.2693382256533491
Ni 0.44424801559474214 7.118055551096856 0.6963725821217246 -0.09233268539715066 -0.11055717882497734 0.38313885111628854
Ni 4.740077993746777 7.481555596481277 11.571917115539247 -0.062014494029583526 0.6870995519395134 1.0986840599910046
Ni 4.846580000613106 8.831989822966154 0.6182287215612955 -0.9320220677526594 -0.06326584993818136 -1.2417176141771324
Ni 8.172640480193616 1.1254054909936493 12.366052742664502 -0.06426215241317965 -0.17665561311594738 0.11534457291129169
Ni 1.895099889343848 4.7311295810539695 2.1978442332520034 -1.4962041195296296 2.0093952820810297 -0.08925636046467209
Ni 3.0344188997595425 1.8710971982441231 4.447309680666161 1.142029259745859 -0.761198745047773 1.9897587387970246
Ni 6.912391666898006 7.194028229392636 10.50282958656104 0.035706709372990114 1.0464600696892816 -0.03482713498151421
Ni 5.578610651495564 3.800747124056021 0.39431362865284053 -0.05153776286797576 -0.642466743721487 -0.17180265589902025
Ni 7.678345871855181 5.776644541172647 8.566840967996317 -0.3325315704823821 -0.25441759978777473 -0.27671857727782023
Ni 9.174441930031337 7.245540042898045 11.925205497912366 -0.9360653845840975 -0.23279102265693458 0.16788892266691086
Ni 2.4290311971648433 8.539964873322402 6.674318071900262 -0.8475875541566629 0.8024513239396568 -0.0020669098313577305
Ni 5.4901457272670875 1.1721205064725062 4.293212777825267 -2.363359311405575 0.18129619721175227 0.7365354379731379
Ni 8.238552038262162 6.6696531156908145 5.842999312158268 1.8316826884554778 -0.3262945884337348 -0.5354934255930262
Ni 5.154248309123177 5.3015090734899735 8.637758774921426 -0.5703706970861855 -0.7417267523660903 0.18374363031098034
P 3.544197908745092 4.03993249153984 9.78162399040634 0.33481213898644274 0.10894072626747689 0.602615158942188
P 0.6570921360598491 2.321949460322595 11.775856770583914 -0.1790480246075239 -3.1076090873038353 -0.12601028015525395
P 6.80681535789645 7.554582872480051 4.4326256814051535 -0.7025056020819386 1.0092726620057069 -0.44309851949937235
P 3.090259987117376 9.190412555819545 12.938251839186213 0.07969237092532082 -2.2542797455673886 -1.3147965935509938
P 8.12168969569716 5.40555190320039 10.832893238060185 0.17306069667583743 -0.5585158546301283 0.07591439194012733
P 1.701816045275903 3.52108351357621 4.022830457250243 -0.6330804174105807 0.10918960905348937 0.4468237908697595
P 4.279463826912514 1.2365266367003618 2.3874963495353234 1.5280490319543685 -1.636087301012234 -0.029519606725671742
P 1.6912593494240957 8.187124379108097 8.981412419114118 1.843466311353967 -0.7253560243175508 1.4206882485795018
