# total energy = -381164.2456706487 ev
CRYSTAL
PRIMVEC
9.33094246017593 0.00000000000000 0.00000000000000
0.00000000000000 9.33094246017593 0.00000000000000
0.00000000000000 0.00000000000000 13.65677747658516
PRIMCOORD
 96 1
Ni 1.2639694786065787 5.850407673051372 1.9264934598006953 1.9506962255779243 2.3564165615391546 -3.0966829273096343
Ni 2.651312679685741 3.3157970919108277 9.517217095119959 -0.7340075293449617 1.1188975588244021 0.6448622405368571
Ni 6.071215097691457 6.201596358023435 10.546719582279039 0.5317059335261359 1.050541953068139 -1.71116762708684
Ni 5.887955385895848 0.3488391536365175 11.010709098713727 -0.07772753388946613 0.6693337433156601 1.4757255399603035
Ni 3.064710758677221 1.3806995699794435 8.641107838823933 -1.8461618559082593 -1.8470170048197028 -1.1492445465473757
Ni 8.149719875762695 0.28147068147800847 9.58799975915963 0.8247502445471732 -0.81248736801942 -0.8552090752576627
Ni 3.6644664223928305 5.996464916877067 5.994628587382088 -1.5226610281695776 -0.8276643328701746 1.143669109342127
Ni 1.6515021848334237 1.3775177185679213 1.8398687214898137 1.0726824937209205 -1.478631143642873 -1.1511523050930497
Ni 1.446436060284946 9.080789316806548 9.412906488288844 0.23300185311616003 -1.4207772087488821 -0.035183489879668434
Ni 4.167142959758057 1.0381793306417035 2.4521968972050874 -2.3560195832110518 1.8874632857602074 -0.41720956754775246
Ni 5.772046417467893 5.415184519421911 6.41999639948413 1.3239175820156555 -0.7362950398275577 1.5125617349520466
Ni 8.442170277346095 5.4462005724773395 10.920300663196473 -2.0161773379998693 -0.3748416441045028 0.5374896300874485
Ni 4.92042062134399 7.482753432817769 0.5106759544183008 -1.024344468737165 0.46521720577528264 0.08712414461301769
Ni 7.313714077477176 3.2623401220087382 0.2305153372751245 -0.07376957768298262 -0.2457036169535446 0.1478775125419905
Ni 5.742551308049057 4.485020179805971 4.433016970754071 -0.9009950232435257 -0.8936995180233769 -1.0058222415632614
Ni 1.5878838184880844 6.100616897684734 4.776949914794758 -0.17841759011237657 0.3123468680043911 -1.160444271917937
Ni 8.885446034401197 1.4685130703719322 5.4163732815035175 0.9881618481690208 0.5303615036830994 -0.18383696135573502
Ni 8.355495151945412 3.7816630608934845 5.124391293236418 0.6578650805544283 1.4377287490015562 0.8076511229730413
Ni 7.021412970974668 2.422956522518025 3.958143842922316 -0.38732255018033296 -1.6662003183475302 -1.598457406474602
Ni 6.307586534514592 1.1372552786990242 1.6319025399949982 0.607106104834006 -0.020140479503616925 -0.5719310995947698
Ni 3.496938679746274 6.850162182248353 9.643009397903002 -3.1995522505720513 1.4977313548074336 3.4105932831464036
Ni 1.1758014023969703 4.587445936240818 6.505105792723951 0.24325078453767784 0.017147201203247888 0.27675842937682016
Ni 0.49404914787814824 1.5645191383284 10.654020756199282 0.304254835024876 -0.12854178832785604 1.570898780130043
Ni 2.142766979452926 1.4514281145522907 4.4287424659692665 -0.7464961487302757 0.708438936847238 0.10672109290833878
P 6.245143866931281 0.7089640822942566 5.5568748821315 0.7120207406612253 -0.455608479040925 1.146848278401057
Ni 6.736464647206119 7.866535100137189 1.7468793472616313 2.6090030216554614 -0.4580607972361595 -0.24372335329872216
P 5.580286217003964 0.3625444420624539 13.357189216044542 -1.3015615829179583 -0.3226413079518637 -0.08674850644115382
Ni 4.333625636838366 5.210566280116111 12.161114474756618 -0.43912616511518565 -0.10630843085095239 -0.14279289893023148
P 6.398292627099374 3.8124178475573505 7.935161383352218 -0.024460704145525612 -0.2652853957402141 0.8036404591517514
P 2.16458272314835 2.6106577629701877 6.768012563987226 0.05834810092158983 -0.12030088847530249 0.20433148176466098
P 8.008253455674446 7.6981769036031675 13.719462127678621 1.3690219305534617 0.5445079703868106 -0.6392448943500797
Ni 1.3789453527789561 1.866160518329248 13.094992529509762 -1.0412816108121357 -0.4119218367862519 0.6699698342377622
Ni 6.596584487352352 6.582233497701556 12.628504186658633 0.16429889132280737 -0.9388375480125961 1.8299078559432418
Ni 7.81391791506512 8.82292871927744 4.9194856608999 -0.2590658971930635 -0.20216995533696794 -0.7468553318419073
Ni 2.529861131379649 3.3054957313292417 11.86149884238463 0.8202955512099293 0.4563366154562012 -0.9357928476490013
Ni 0.7478433206414441 6.012383504877235 8.691241126987652 -0.11716439972884982 -0.3293662853805231 0.4969147939888797
Ni 5.339277301730604 8.672224666058964 3.092071881533548 -0.8124500870235813 -1.0583869030338546 2.7857054288489445
Ni 4.9644066845519585 8.905255625447127 9.153973765460076 -0.502881810205592 -0.9104595110905351 -0.9097632563544589
Ni 0.3132742660851446 8.252276265393323 1.5816190236561307 -0.18052049538799234 0.15951046879522848 -0.440402460724448
Ni 7.7931752297636105 1.0599110958541258 7.447683085221853 -1.2858901949292887 -0.5674977464137645 -1.7120150626888
Ni 7.488482631547021 1.107722845509966 12.66985705787736 -0.46333464404058916 0.0781201413421945 -1.8093377451013741
Ni 3.0567981193899154 8.647245732837128 4.211299779214796 1.1174384577803722 -0.3256903791908326 1.0728935812904619
Ni 7.612182937009057 5.393630042118049 8.678595833636054 -0.15992750172798906 0.08144020685436297 -0.04509149302199976
Ni 3.660743376313072 5.470675634801162 2.2177513669254663 -0.04735174981108619 0.9764129351632086 0.48978769602579514
Ni 0.34976851551507365 2.4957845291659235 3.203265924688066 -3.4832308041074724 -0.8595578391446616 1.1741140560955456
Ni 8.021195472999318 5.776898507596901 1.0561535252869114 0.4678464158680136 -0.3677693106387537 0.23880663272339517
Ni 1.7521643931252278 7.296535812231976 6.786776156372653 1.7898449264840852 -1.0108526048983173 0.2397836519246838
Ni 9.169797177846176 8.2717592734498 7.187330192936096 -0.8257059235922231 1.8744308780562813 1.8438229233624372
Ni 3.043604166616036 5.207822983004711 8.205415338783917 -1.090734980347257 -0.06567445937967399 -0.9299114491675597
Ni 7.062590420473346 7.346913571090658 7.287543582890967 0.008248870272353536 0.11950101828182647 -0.052028586461465236
Ni 4.648619595636541 7.628474762711457 11.795331262533052 -1.5810636364781867 1.278874425733088 -0.39970344034318905
Ni 8.902745601899621 6.99544495784192 3.369468673491701 -1.1747293210820413 -0.39906297854571277 0.4584246083334814
Ni 2.639490375467562 6.928868682706397 13.578210319269155 -0.2283774669702712 -0.16168382229746348 -0.3786124240008447
Ni 0.34596802261210263 8.70238227239926 12.839679279298384 0.9725274840658735 0.8249531045865985 -0.29038501902131925
Ni 3.9888099856319017 2.5960361759852733 13.865179725195286 -0.00536075009128109 -1.9354171879316666 -1.5306011089522609
Ni 0.18871924628499862 3.671324665171332 0.9850713379912 -0.030621838650915004 -0.22733282775584074 0.1022337465609465
P 3.221199996280284 8.525019716298907 7.7814546328192895 0.64300050473777 0.21840775735206902 0.39924886930427367
Ni 4.320021122592031 3.3574784123075174 7.528134471937828 -0.9052085471042409 0.8638731786905638 0.5405088765297467
P 8.309596245513507 7.367133723609042 9.2608111915353 0.13250797206445566 0.48055743567677883 -0.05346146225324987
Ni 5.328751998527679 4.624303159336166 0.5821388441702882 -0.027905982381648715 0.2236114130401955 -0.5678070501240673
P 1.7607581912191053 5.093201684649453 11.034485273440122 -0.9777671351982581 0.6038040370439666 -0.5170287911299354
P 2.3936200391226383 8.429424209814893 11.419961439927672 -0.24439184012065648 -1.5181322870612888 0.7671071401124079
P 7.801927653880936 4.035474029353381 2.700395303717679 -0.8609295226812077 -0.7020332904312103 -0.8406813139551328
Ni 8.692538128002907 3.5287571938614994 7.641622993866814 -0.566567007069379 0.30796236578345026 -1.887026712443421
Ni 0.6575561873774171 1.7099045542900793 8.260548145969025 -0.09954025888918341 0.5489423520090805 0.1273166576715033
Ni 4.9410420043922745 1.9707230606093697 9.655573512054366 0.7997403527663968 0.9214108678957165 -0.5501762244161815
Ni 5.012750297933478 6.542567660896916 8.31634904864113 2.5307293854545385 -0.5726242690070525 -1.7942512830818969
Ni 0.828754722825419 8.517657602622393 4.606512784259308 -0.04306443528964196 0.5114690376539708 -0.007230456310168193
Ni 6.6700563290366 6.7851628364047585 4.653560329719829 -0.4568449225511874 -0.27931179192629313 -0.3031590308575359
Ni 2.9197545660731072 0.18363948115762949 13.594612250093714 0.7654811744732107 -0.8922172770508956 0.23181811722070397
Ni 0.4486177216682888 7.147847242605549 11.012142331490296 2.8959792721055475 0.9610264254048094 -0.4189440337403559
Ni 5.026494776318149 7.970295181357513 6.238183916878922 -0.5397887105342704 1.3053022809073134 -0.04602608902112718
Ni 1.5734581812968416 0.4090004057649386 6.519526764443917 1.2677904000047844 0.24212541268398305 0.334702609991772
Ni 9.162892280354896 3.6003068613792557 12.079023641433592 0.05949249893867819 -1.277875037934296 1.6650780318176293
Ni 3.3252400057772817 3.685358402775232 5.235803680446741 -0.10129555101739329 -0.31600374803068804 -0.09264713131377593
Ni 6.083755884486432 2.83034547450358 6.034233773060116 0.5260960435385262 0.26927446229494917 0.4134642415727073
Ni 4.8825090017398365 1.1754281646947389 7.338906689283538 1.4843613612584308 -2.0434868244481 -1.1188865030808086
Ni 0.28778866268253017 4.789768763677895 3.309829021052148 -0.6566340363608045 -1.7352403517653279 2.633636761043742
Ni 6.206681721716338 5.485194581417963 2.509515011136761 -0.2379738524094547 1.4076211309828983 -0.17997876395190937
Ni 2.3120209464723023 3.396668371041813 2.9560099433736085 1.4493578486000522 1.4326449067207456 -0.21980849435433758
Ni 4.416773665952962 1.271060994948975 4.898494772526408 -0.6643236916955784 0.4968302046948734 -0.6480403811545227
Ni 8.708391399405185 1.1747283440030551 0.7725861810166181 1.3240577071379453 0.04121658344762579 2.333315199635001
Ni 7.748106777219171 8.333660746364878 11.267442518382094 -0.4667557539069961 -1.6468843916277378 1.837901929892312
Ni 5.478541619375688 2.7154535788142042 11.718771811957094 -0.6927706341823618 -0.3665125554135172 1.0853678024980726
Ni 0.02770730082514672 3.6087793572199076 9.833371823172074 1.785781297937673 1.3612613127714364 -0.6608696717087069
Ni 2.542551213255516 8.084412608814759 2.1243113081718397 0.9793295945893715 -0.2572879793570343 -0.8723390500697299
Ni 0.48965240774586255 5.722919004911686 13.10137022874664 0.3784257619113353 0.3968191768168585 -0.3322076114840601
Ni 2.3480943703929653 4.275344569634934 0.20032693882439465 0.24623557819761466 1.2005249419889066 1.3117416087747538
P 4.29514482973831 3.3114768655074998 2.1077600822663887 0.50480525248055 0.3461064809533394 0.9831739080361261
Ni 3.027144383947632 1.047211683035703 11.279883464091721 0.9190508523039721 0.941802544178191 -0.7913739830795725
P 8.762548189998958 6.87301366056747 5.709229579088095 0.18683229653863306 -1.2011867439426216 -1.3793261406929471
Ni 4.843272388292763 4.507171837433402 9.86937059955229 -0.42966244859912456 -1.441203337813718 -0.9565164533495978
P 4.269671356561018 6.8062787594084995 4.249716202811217 1.2564760034332296 0.3408632302765291 -2.1662662563708825
P 8.961586525656399 0.3834905419116791 3.0716548461272355 0.11791721873447433 0.25849665495315477 -0.044186978929859386
P 6.600503483225781 4.391972020639686 12.16362729758689 0.7999892355524094 1.2742932341203086 -0.38116630077095
Ni 7.534894739819494 2.3823949152280295 9.25981464687034 -1.789807131267614 0.7999262435249578 1.1152581622996018
