# total energy = -340886.3107988219 ev
CRYSTAL
PRIMVEC
9.12443766765979 0.00000000000000 0.00000000000000
0.00000000000000 9.12443766765979 0.00000000000000
0.00000000000000 0.00000000000000 13.35453683891841
PRIMCOORD
 96 1
Ni 6.649789681443383 2.42152534378068 11.471907084491436 1.6374916375589281 -0.7319269926668491 -0.6498458097943776
Ni 4.776615658121303 0.7753582010298357 6.125338912573202 -0.04153462890867685 -0.7618903717981589 -0.5622673512527607
Ni 2.9825140101772667 1.7921398938814612 4.614259067015056 0.8314831923956326 0.6510274888073047 0.48066362223733994
Ni 3.4849146633840986 4.543130426924819 4.261806682357744 -0.3269617897040885 -0.3852962637789235 1.32191957774902
Ni 4.244469338663326 2.85163307867223 2.6676488333589004 -0.6768861017416214 -0.19754299808791786 -0.8960993857141212
Ni 5.017281821630563 4.968146725691173 2.10136343099336 0.5528236893413576 0.6821728040618574 0.49968798585864266
Ni 5.7756685689097464 2.925148671612559 0.10383062409149538 -0.7543871214425782 2.2633027750016055 2.001524621083701
Ni 5.801499851473241 8.07797401231084 12.097727616659268 0.0698051937185959 1.0012672752027272 1.5452363423669324
Ni 2.032130849015696 6.748808077197193 0.31610701276216374 0.38161444405196215 0.09547765878403557 -1.0305773370207543
Ni 0.8434803389637069 9.1944219359788 13.322645940887652 -0.7035350717877173 -0.27276036396102055 -0.09906254792181649
Ni 8.141616963875789 0.14129100224918684 6.964737890643002 0.5476125774540633 0.05081631132091893 0.18084162617283694
Ni 0.09240135367855559 2.310845916901421 1.184618421120584 -0.38774806775352577 0.5617366755602713 -0.1376694616607371
Ni 7.276903146405013 1.2719648364239449 4.8708400744124285 -1.2793035428507065 -0.8479423663929204 -0.07536186187076699
Ni 0.6610627595691876 7.901352275616543 2.096528391561924 1.0326591592504473 -1.7246695182280167 0.25617906256357176
Ni 7.509749666976474 3.728236038205962 3.8263949119472387 0.8293319503805846 1.983598375622584 0.700309108651252
Ni 8.231729908629255 3.9754991700279763 12.792470499929752 -2.181789548817462 0.3119984835260369 -0.7164098708678565
Ni 8.302672410194486 7.273983326404902 9.012989795834319 -0.6867269990914431 0.39747532234361865 -1.6000358067053153
Ni 7.344287117345107 0.5461076212772641 0.3931537630151285 -0.3627008949769109 -0.10308452459701602 -0.5333141585535203
Ni 2.197283167772051 6.83085501920035 8.584189592836568 -0.18930235534568043 -0.13359889113578927 3.1006776502913245
Ni 0.4550502972425103 4.98938841619199 1.0577157443657008 -0.20684833464924374 0.5055902102756905 1.2566873481130874
Ni 6.595709140378801 2.26976769927484 7.0179689465763 1.126041626068351 0.42695636252187114 0.47749139515694544
Ni 3.7813037667080036 4.402422476231904 0.11433832631689972 -0.4653686437514824 0.08753989199419762 0.27645246810062707
Ni 5.78821467047273 5.6439481891546786 4.7138313161251375 0.9056692887907435 -0.4849290823819133 -0.7094136420556814
Ni 5.412059734520755 3.119398821557534 9.65729278860286 -1.8274658221606528 -0.16843631052994862 -1.9214635539650522
P 0.45371812936745903 5.865863633600717 12.232475484776954 0.35159012977572995 -0.8983724980190141 0.2701211265659606
P 4.376737184668416 6.412755044059261 12.480949429455265 -1.248221219623605 -0.26676480849921796 0.9788428847609401
P 2.5070943186589725 8.782115978650435 1.2169572525093284 0.4672527481480727 0.07852766119325831 -0.332471406668408
P 6.750112871759743 8.12424403487512 5.767330657921925 -0.39076602864424315 -0.3026697499259432 -0.8447775955116936
P 5.219534103263347 1.182545348920504 12.644689285286566 -1.3781809713449102 -2.6179468611123107 -0.6946809638311972
P 4.178946752973305 6.535141124251471 8.04628210354087 2.487589616842271 0.09019249912569627 -0.20576949976276823
P 5.1452794308854894 1.4117603433668242 3.9841792474220608 0.12682763385022675 -1.3783393512996456 -1.1540607369890965
P 0.39311179060262685 6.047549433107709 3.5782275483689396 0.2645680579582153 0.05288862046891536 -1.4161247975785354
Ni 1.022977185914364 0.5172105277136522 4.6767322656924595 -1.5113749137327972 -0.9497814486186094 0.3980527921136435
Ni 2.209026318835003 6.884515836139915 4.697872674937024 -0.011579220197167155 -0.15008968970196088 -0.1003414146342401
Ni 6.053033220045419 5.930975619603223 9.20588314192299 -0.15644494249602733 0.7680273379338322 0.15268676100517575
Ni 8.998839618158774 2.6266883209760747 10.26122562009485 -0.2737751783787801 0.5750668170102742 0.0009996449091079559
Ni 2.8056185403579597 5.353061121643485 6.882982018196106 -0.44360528393246185 -1.2257518348764953 -1.897460249071919
Ni 0.7157135779775405 0.14736970251192077 9.165471920677687 -0.6295428365709674 1.297286095471056 -0.14328346541340484
Ni 1.6868621340024101 1.2032030754212992 11.310211102660215 -0.37361419945530494 0.33284318818553 0.23113471800043417
Ni 4.318286038041167 7.660366756794769 0.9739716569874782 0.7548283227450548 -0.9167764544474987 1.0414718724460708
Ni 5.967537240667129 8.281175235443659 7.82256640757601 -0.39949749497997006 -0.20542368638757527 1.1148169609971252
Ni 5.444743469647012 3.2508363437500916 4.981362560966682 -0.6839211542115319 -0.07133808542335456 0.65665691917894
Ni 1.1302349487309913 8.128030676437765 7.226994298165593 -1.7043318351119294 -0.5062898074458765 -2.4280037868588376
Ni 5.361565097393813 4.765711955308384 7.196465755176919 -0.01999752616784943 0.29000526708439733 -0.10546202369025708
Ni 0.8368751586572027 7.246299783028836 10.530105456798946 0.21866332500630084 0.1307292828974781 2.19590567650387
Ni 4.984287855629295 0.4321917564166307 10.173872817685238 -1.077938085692905 -0.06797456826776035 0.7989312266015403
Ni 8.842054408590242 7.489694153350702 5.1710231188489795 -0.34280004228792577 0.19773634504564655 -0.2831262805763769
Ni 7.367727797283509 6.311656276555372 6.8817666431210585 0.07362302480278933 0.33119048307345544 -0.5591812561282693
Ni 2.3813778187791352 5.6287742495915944 2.466182165794898 -0.5038449454498097 0.030561931947257044 -0.48974501571331785
Ni 2.564295417348674 5.328863113392554 11.53671705161268 -1.1146372408861513 -0.17193583904277485 1.2328786757292636
Ni 0.9351088527859829 3.6125564195765105 3.3828240695239202 0.8596272589300163 0.4835658834857995 0.2849551062549996
Ni 1.6888877591274882 1.1642234784197991 2.5212298972345164 -0.44571333141440006 1.5157311338189636 -0.5214426039269149
Ni 1.379788314365594 3.5112112922601106 8.128091810169018 -0.13283835882068093 -0.5699433797407797 -0.572421408967627
Ni 3.875039113149111 2.9970401146778256 7.170597974863424 -0.5271856770582791 -0.7914922538249918 0.004690206386817729
Ni 4.5482492363625155 7.170548702900921 5.887721223632809 -0.42021518714329564 1.0571247484919792 0.35503489379122083
Ni 8.339088040258387 7.143850598774894 13.369226194326945 0.5366157121229274 1.3516862674884913 0.9752528534168367
P 0.7059659413959155 5.899158706039498 7.493136803619585 -2.1800527686320135 -0.6149870502439796 -0.4845038219190365
P 8.819818154401885 1.889068793447691 8.096828749961565 0.7362125074160805 0.6452849298965726 -0.7167510562573591
P 1.9098542620734908 3.503720129072322 10.555065355581156 0.9016082313474924 -1.8279270780677876 -0.5849686495050184
P 4.143635179846946 6.514656762063183 3.426239968038091 0.20918906696727843 0.7817081778550343 0.7871110940381605
P 7.141806724774815 4.213610491037139 10.051252239449271 1.2405544471069667 0.5383527494186922 0.9371676165093408
P 6.571109656877855 8.105958662124417 10.15752730034711 1.0350965650473463 0.341940779611424 -1.8687250859207558
P 2.736820281605312 8.686291136021747 5.813884450492467 0.29585169856284527 0.5043977326294862 -0.7070322863076984
P 7.006765049769619 4.197743094224029 1.4306178183487999 1.0444389254941946 1.4679330404990782 -0.12035642430358627
Ni 2.7500780892933228 1.7364443273793182 0.1872489690509553 0.6640269863907661 -0.38111719270056943 1.3067832363282141
Ni 1.8666044283218266 1.2279029277347495 6.919693280035019 -0.5917345074739422 1.7423101141279156 0.46292352464509956
Ni 7.158714307462966 1.2452849811729183 9.312292332052087 -0.24638110263654342 -1.078194167567769 -0.1704361145687968
Ni 2.978873359614626 1.9003648470731258 9.377876051473358 0.1987614438760512 -0.3750673869620637 -1.2949109103706604
Ni 6.861312391576521 2.2883906762130573 2.215730955510261 0.3696547005869246 -1.3827055986881411 0.4119868856962325
Ni 3.803394029896354 6.813582459012185 10.46886131985284 1.57185265940288 2.0376532484854586 -1.2149655428942687
Ni 7.548738388415474 6.587451524440984 11.217530541194149 0.418600277247692 -1.9303325743199076 0.31544684708595355
Ni 8.088284626686235 4.327237111229011 7.983635540550959 0.678339032138064 -0.5442431467611982 1.3101159002458727
Ni 3.3642987240669577 8.6721300090212 12.23888540212095 0.10828612340261351 0.2298036578938365 0.015939039827759644
Ni 0.6436770563560186 5.062685022632311 9.826948929709388 -1.2543304178451364 0.4128281506506052 -0.09075762760054691
Ni 8.989167714408401 2.8462770338595242 5.856792117837868 -0.07001216752307943 -2.8292673726002953 0.8188125389064994
Ni 3.7385466525813587 2.585600978911993 11.525151827080986 1.1427399126596383 0.6458199764644361 0.3861213307833802
Ni 1.344960336426754 3.520572965135471 12.69368751466345 0.8591647174713009 -0.3925344333985756 -0.4547980673244877
Ni 3.367766010317091 8.755198888024399 7.977599725144477 1.6264472068193085 0.5730963235474646 0.7998082298898548
Ni 5.971679735292289 7.987477841182357 3.6755962458226863 -1.0667283330200144 0.3807096728495056 0.5699603490216442
Ni 3.2849252422514033 8.824818346152078 3.286524756145215 1.443140921156063 -1.2251178008369223 0.7173154134012615
Ni 3.20219396743572 4.859483799499492 9.320585533296155 1.198824414358032 -2.0596356662938207 -0.5756818248864537
Ni 5.4559026567099425 4.781907831871507 11.506162047755254 -0.06572382456037068 -0.5715924853084284 -0.3380854104210758
Ni 8.076076129310765 9.0047431292215 2.886516715679823 -0.851464777723882 0.7319331633144363 0.35033723120523536
Ni 5.248613685576966 0.780175904030021 1.7446499340233839 -0.881900725616236 -1.5280518601678459 -0.37252867970061
Ni 6.2468271481153765 6.023214558294272 0.1513032475183221 -0.10649123628571981 -0.4802229351554955 0.7540274241103143
Ni 8.44520524838747 0.08736831395336192 11.287414608009339 -0.8308131629118014 -2.1555828085151068 -1.2043458583968936
Ni 0.1556428299934891 4.973375028378875 5.406143449245527 0.5035019602880942 2.2192870315422875 0.8635379068383322
Ni 7.629489660293581 6.2048091134262595 2.3411700724900877 0.4882316643925849 -0.8420488837266208 0.8568247564842147
P 8.739003011461275 1.9204294851363977 3.4757318294837454 0.6751827458972695 -0.5958181906250125 -0.6549507351211108
P 2.293573356713256 3.4882633319467278 1.612119304218284 -0.2697804553970902 -0.239160159408072 -0.5608900112892597
P 5.169258452636412 1.32718593217607 8.238948251135783 -1.8025099235462634 0.3065099496076399 0.30044188903668906
P 8.706866742585039 1.7417729988795232 12.389991561789264 0.5418890447067248 2.0581979054060295 1.2833118926791511
P 6.542030074564236 7.859826960552444 1.561051652416319 0.18037419961811518 1.1607132093086074 -1.327599915963249
P 2.0108435363273767 3.274815365501014 5.935771423953407 0.8577166721708647 0.8694396170347478 -0.5295505777460299
P 7.153996973275285 4.1601686605975825 6.087745317628006 -0.4524748185079498 1.1140834252652103 -2.1441272583799975
P 2.4389803927188516 8.560136663141892 10.182273687291811 1.5055788758763102 1.5924497668279414 0.05776343206271342
