# total energy = -340896.7780051152 ev
CRYSTAL
PRIMVEC
9.02085020765282 0.00000000000000 0.00000000000000

0.00000000000000 9.02085020765282 0.00000000000000

0.00000000000000 0.00000000000000 13.20292612042067

PRIMCOORD
 96 1
Ni 6.327603068128029 1.9669422181547556 11.24193482459376 1.0165694527774363 0.6697903712371045 0.7609339214221604
Ni 4.420333772746171 0.38830790090900164 5.990774451933781 0.5552006742139665 -0.56153021597642 0.4278529061942115
Ni 2.7081854629391855 1.5857481595584837 4.83936037417196 0.10428805798681393 -0.19855909805725802 -0.8529171938996923
Ni 3.33099396802817 4.359867015172969 4.716361986459764 0.01208469907867596 0.617169402607279 0.23013224487784883
Ni 4.990677014215024 4.647839609833471 2.6221012955261536 0.6644139374165396 -0.35100803202001485 -0.772205894791554
Ni 7.251707963332628 6.229329928190321 2.522735730653025 0.41402474206186757 -0.5098813814518767 -0.3781737938015294
Ni 5.258253467017698 4.371025806627252 11.568060202258899 -0.11841524141681543 0.48312776750711633 -0.6696047375888596
Ni 5.553072886830826 7.764877057479541 12.38180943103115 0.12108301805696566 0.4537837671273604 0.30221826421082143
Ni 1.76193438097609 6.564589818568966 0.3437331747868974 0.2527067877442551 -0.02224878409587136 -0.14213032564556813
Ni 2.816210141730637 1.7402662992677755 0.4546174630294459 0.7522865301598076 -1.3664742244309436 0.1159634374422132
Ni 0.49403316503457056 8.832566822189234 4.577283031531397 0.6727018884569447 1.1792017550310983 0.5625905389201344
Ni 8.64572697691754 2.3538645165032257 1.304189389250444 -0.036735150637504474 0.631187314152926 0.8678149369471312
Ni 6.763688998995365 0.7673694305644552 4.73962585653369 0.3629873158690781 -0.06815634526126327 0.3120691888629722
Ni 0.9107901205994886 7.507548290280798 2.529601499590659 0.004474233721269714 -1.0220276476785302 0.09484799561983664
Ni 7.647479715534493 3.8783430628381987 3.7116458735392337 0.2907398312575767 -0.12635686486139527 -0.2935449048065396
Ni 7.557108840199816 3.787476040753331 12.592198205236881 0.40626001051478416 -0.37748293838209185 0.0876098260001846
Ni 7.678953461196571 8.67858993348015 7.022293314384596 0.3600549727136315 0.4874328226403734 -0.5598656837898035
Ni 6.8258606972192215 0.973015943923366 0.47409889069692135 -0.3351332697712873 -0.9342877238583844 -0.5658298717930385
Ni 1.7402482575677685 6.344011994284326 9.115115179742654 1.1863216539053312 0.6714117088906114 -2.9053465722530607e-05
Ni 9.135775632505583 4.823268079850786 1.239032691760442 -0.3807253565787895 0.211539569477326 0.616497573351235
Ni 6.273144196657133 1.8649975922656374 6.951446264712411 0.42870059890648743 0.8121060734206014 -0.21860238986137834
Ni 3.2959209032147117 4.294763540697987 0.514505082032426 -0.6814564947211231 1.1531683070818142 -0.24910441510497747
Ni 6.013424904207473 5.5409308227261675 4.769306257215079 0.34799444200467167 0.7233125115249607 -0.037958481521644306
Ni 5.187078960490387 2.869045260200911 9.299625841543454 0.5379696550476606 -0.21047359010665687 -0.3002454567551668
P 0.17619794852261073 5.431850704484312 12.31055283476881 1.590309323446171 0.5476570575387535 0.9589841981638001
P 4.040610112700464 5.99207255224928 12.594165652622637 -0.7788200576739619 0.6185482852326767 -0.17051324766363538
P 2.5046570451610877 8.524423606920994 1.3948101421302168 -0.41215580717392886 -0.2486624424715524 -0.7379868257076838
P 6.124011504399907 7.839172778108049 5.598938496588426 0.8259347517735776 -0.853290260968395 1.5458004424005183
P 4.906593671332759 1.0628636099578423 12.663203119784129 -1.088339483531887 0.0521532849647876 0.024994722272124695
P 3.9399735100618476 6.094973388238764 8.218610477208648 0.07078889778810389 0.07825306737563298 -0.010415538906369159
P 4.7629636975776455 1.0814014567149557 3.833271287880904 -0.4860164019088211 -0.33111643530241036 -0.24895889066604862
P 0.24327338080834893 5.559685169883363 3.4664149682801337 -0.22564618408203718 0.37020517377375595 0.42003443859105727
Ni 1.4538903950578872 1.0955641912203902 2.4321113694332506 -0.1618946527566889 1.1131431728391281 1.8319665382444836
Ni 1.746887603170316 6.49004151414036 4.897387893904227 0.75969336414684 0.12137638092766838 -0.9229280758711912
Ni 5.964955877138874 5.355110333504864 8.939370979975218 -0.2073363300292558 0.7708468096604982 1.196576755974436
Ni 8.572143903439304 2.3656908508577636 10.098680105660067 0.5094190971034775 -0.32658100932590206 0.5130078428960003
Ni 2.379158979912931 5.091015928803526 6.940223425223104 -0.5240569016213104 0.6105200156115616 0.1593158362859192
Ni 0.6468535807732109 0.0630837061592065 9.153496190252383 -0.33951057290337655 -0.11186072812774928 -0.01231841235603685
Ni 1.6791590613443275 1.0539149267544086 11.535066443371237 -1.387727734493081 0.4541239240755985 -0.9246710267042269
Ni 4.079526059615397 6.870540967286366 1.646405257066759 -0.1758192332575811 -0.11377491443132665 -0.560478377673138
Ni 5.5928909187461056 7.696562160403326 7.969496998108058 -0.49494327208480565 0.261486076598782 0.2940179877882162
Ni 5.166926381582654 3.016518116057499 4.647060208393171 1.2998939654075485 -0.2912741064944919 0.8169454037907738
Ni 0.7350414104070503 7.436049033153362 6.873231886842398 -0.10487632639011615 0.20578826881584558 0.3938824627860378
Ni 5.060687831091888 4.567626211602691 6.811944231918881 -0.24473225417921077 -0.06743952169989675 0.3222528142641934
Ni 8.23728093046081 7.086157324069102 9.005108620205442 -0.9166291302363568 0.431013049089748 0.5091375613073166
Ni 4.848950439810641 0.20313510871794707 10.589314214413335 -1.599296871656762 0.15252658127822766 -0.6332010021488449
Ni 8.052209171789796 7.0346392496993335 4.709272500442043 -0.06017101306294154 0.15648299482281436 0.1439334402925779
Ni 7.244707783729941 6.165426226765798 6.945095586309974 0.07836491036314891 -0.7193409284717225 -0.47597058763704486
Ni 2.237378280408527 5.221195815203479 2.6255075684874605 0.6663705469222782 0.5579245009030327 -0.28342864230814413
Ni 2.246164588311899 5.25127132911502 11.367613306841983 -0.00032318766737363694 0.02419510918896478 0.650668305695673
Ni 1.2132502003655488 3.4021594537054773 3.8940176918042138 -1.098900803987501 -0.6369812951268836 -0.5724016114732852
Ni 3.7600436358928047 2.640186295613093 2.6141791850531138 -0.7508102027245972 -0.2185113728094688 0.24409899147058606
Ni 1.204066975062025 3.4551840100258238 8.427189668903683 -0.3248781677021824 -0.6621855623066532 -1.0269387118269022
Ni 3.596549750430069 2.7741910224145134 7.252525252342941 0.34348549839072456 -0.4934718297456018 -0.08333485277391454
Ni 4.066978057260582 6.7978960622084905 6.09608114861919 0.1879988060429085 0.44038754832611254 -0.7153428630559228
Ni 0.5290403776430035 7.3731917503292435 11.184356543191665 0.6380526738141915 -0.41924999501654897 0.40192358792295946
P 0.21733392662339543 5.499651413110327 7.7886307597086555 -0.20294051495440535 -0.28004841298200156 0.21908292904222265
P 8.538108236376246 1.5553118116468048 7.904235658758015 -0.35590881175574185 -0.2251011102118446 0.785014616520448
P 1.8487690831094101 3.2216342034362064 10.512948208709032 -0.3750702151755412 -0.7973762234095945 -0.3096325543970216
P 4.192539268458762 6.189394625224996 3.834314098141304 -2.0518359677437434 0.6337576459832633 -0.4259214934994536
P 7.048287795754572 4.033104765497584 10.33419375129544 -0.6533060004288361 -0.42284311168444594 -0.34690737958808
P 6.3418650319835015 7.605153887318252 10.205174848290932 0.18993998892967934 -0.14562008396638146 -0.761656915631114
P 2.4287375715319555 8.41451357047882 5.837871946460109 -0.5894917341863525 0.00825324114772772 -0.36614694454398233
P 6.936393172311634 4.18015364140401 1.539580351325768 -0.3649069014892941 -1.0195866423372053 0.348089058601007
Ni 5.110095026560847 3.0497599483202547 0.5497369138059452 2.088493728176094 -1.097727095394374 -0.1257678251271447
Ni 1.65868173183647 1.050054002952927 7.021593296424328 -0.37418781257058786 0.21591507283720238 0.4575925993504894
Ni 6.69320909791832 0.6124534713700108 9.101423333607402 0.9660634736080845 0.18827879917717252 0.23281390547507003
Ni 2.762635313560079 1.4847958271697461 9.238562805785023 0.12285605079698841 0.2016243672461431 0.8032779336060101
Ni 6.416088585811983 1.9866166920123052 2.5762609441485633 0.2831939005895187 0.7473518118623517 0.2438197696672704
Ni 4.177068510702826 6.692730992868136 10.475623539734709 -0.14152663062329818 0.3616277165173901 -0.6346608745238231
Ni 8.199429443846288 7.329377481862431 0.2714680474941678 -0.4415255185852977 -0.6830276958629851 0.5013576602515818
Ni 7.663257182190547 3.708471436423016 8.10342775393945 0.2455951164001383 -0.03442270045424394 -0.5649556967182012
Ni 3.0762812473304315 8.391591590620024 12.426131573353159 1.092602372573299 -0.48331083005219994 0.43600741698054585
Ni 0.09580413329176198 4.968783411256624 10.071416390694605 -0.8268140690547373 -0.9752783073381333 0.41023827843624194
Ni 8.921584570023393 2.2477432370625046 5.8551414617067365 -0.9628218267423353 0.3588509251032013 -0.2965055300967603
Ni 3.6977546666189034 2.6068271923002926 11.560931024501164 -0.1334345976437831 0.0387030729971527 -0.5400388788718634
Ni 1.209524589314119 3.2281743196887156 12.658819888767447 -1.013471787688719 0.6991240872042153 -0.4107838665270667
Ni 3.0492818432700712 8.248376575965068 8.188309442047021 0.6796680353621327 0.0005633287026377394 -0.20824855743088005
Ni 5.6154881480047765 7.897961657580608 3.4396528125748644 0.05757651286288794 0.022060322234149103 0.6199225398723841
Ni 3.0279745955618953 8.450624033042676 3.54646418704085 0.7412670391208525 -0.5997177827897349 0.90318303203378
Ni 3.336298227830205 4.318506417907098 9.314637438034215 0.635712455716789 0.11873997174608582 0.06627764018131166
Ni 7.377368403880846 6.094269761938494 11.542209152403979 -1.327840056998513 -0.14536631608436254 -1.5719107663343252
Ni 0.5084809584001144 0.16528723044342405 0.49512017745998765 0.57339482862449 0.035912911846525244 -1.1741191983018682
Ni 4.598928561114702 0.3304833503018132 1.729978921923828 -0.18113833147764935 0.4216897148062932 -1.0884166166267255
Ni 6.000173275552388 5.752803526757468 0.3223257956436829 0.1557782554463059 -0.367833845328102 1.0198992884816176
Ni 7.75054292682404 8.815806082882803 11.472378752527183 -0.1258822392178219 0.5037590706042228 -0.181077653443043
Ni 9.036005031467297 4.823854435101011 5.650166099588084 -0.349752819456675 -0.2717640614860223 0.5000751939947324
Ni 8.039570960934947 8.805720772578933 2.4673359845267666 -1.0022720623181576 0.748818111995233 0.286687515565074
P 8.537449714325993 1.7149177107580487 3.6978620147339445 -0.21825426249334023 -0.6236583527657323 -0.8389694734703488
P 1.7775584931820851 3.240776447143552 1.6995732449021606 -0.21925622139529338 -0.33306661705024576 -0.06490672797571403
P 4.657140106187039 0.9867276359286273 8.245412324653932 0.05812441494655796 -0.3372395174810127 -0.17148409621733693
P 8.499904936611586 1.6674139146398206 12.362691543618816 0.314648005333742 -0.07299644696238397 -0.40706965090027314
P 6.265368223954149 7.889283599877278 1.2920527376557869 0.9606839544637262 -0.478802143548569 0.2748642976779008
P 1.9124743258338552 3.216898257184389 5.993203766839714 -0.6011745698409195 -0.20938961301385875 0.4563687542457172
P 6.90534340659972 3.851000866477707 5.908534068707224 0.3030759842254264 -0.15864040748544936 0.12139463576011353
P 2.3199370996402067 8.228368330657391 10.365881291102598 0.5183156282621589 0.6401519795453813 -0.5837574028057366
