# total energy = -340865.65011030773 ev
CRYSTAL
PRIMVEC
9.34211465371775 0.00000000000000 0.00000000000000
0.00000000000000 9.34211465371775 0.00000000000000
0.00000000000000 0.00000000000000 13.67312911113773
PRIMCOORD
 96 1
Ni 3.2955897216986028 6.586601807270152 10.533723676297928 -1.516759317973162 0.13249125989390728 -2.448856204827815
Ni 1.893637276158442 0.5472395831830762 13.20873447878933 -0.013775713627853695 0.8988355536983618 0.9696655891370461
Ni 3.1513754994673246 0.7894824817580254 8.3925530620977 0.9944782773053518 -0.37358951686495656 1.484849870859075
Ni 6.082221042985206 7.382372466328421 6.387798807118032 -0.7042256700968388 -1.8227496476319058 -0.012073643335082433
Ni 2.7526353664573215 0.4152859520806656 4.6237740281570225 1.8239662936478267 -1.0100337085414475 1.6738406085016075
Ni 0.40566170567639903 5.000114573122461 8.16445786178971 0.5635688436730035 1.3472043204577377 0.2391897270944268
Ni 0.8865059465766537 0.8446635497410202 9.147883575713543 0.7998372833555774 -1.1068431987630292 0.2616310868170784
Ni 8.610598949789626 7.463620836526351 9.990695518351743 0.15491025101905578 -0.9823784087180243 0.44632525396678613
Ni 2.837555187671438 2.7423496983432685 1.4687812619378706 0.7997308396847002 1.0581462477779582 -0.631143605399184
Ni 5.785646274639403 6.067553923149544 9.94173162759845 1.103475310732061 -0.4928809902391382 0.570799557093488
Ni 2.3109682171130097 5.432290134089046 12.391464811528635 1.0184499576296009 2.3039154063166447 -1.1067012738685262
Ni 1.9400769275616734 7.537657094295533 0.9460619268010754 -0.7633985809125692 -0.17080326810022842 -0.23521274472454973
Ni 4.867615362530621 8.69226771514208 3.3044675331507234 0.660161847008405 0.21477247459232685 2.692879091644827
Ni 5.006485895242156 4.863205884465379 5.932059630634576 -0.35282914438915364 -0.10904357039392834 0.3616896801035771
Ni 4.757854858741331 6.7554698697857045 12.141191431290798 1.215549440422197 -0.8487142115619383 1.027649364740682
Ni 7.650229574562872 2.9572650434511623 12.082369741269614 -0.35315130361526276 0.06403898065878004 -0.9303266823281073
Ni 1.063170003680015 3.844429609103239 3.5004576226133413 0.7554299608847957 0.4983422704640256 0.04574352478370186
Ni 8.189998268744306 5.610705837669595 1.607713452605402 -1.069712612459319 -1.1242727070933864 -1.391494914844997
Ni 1.4878998993542283 1.2466865018021391 3.090346267779155 -0.5380753273875895 2.373449348651725 -1.9025281505131297
Ni 6.800470835549004 0.8872112762248017 4.005912730070963 2.214701469054134 -1.6361556923563243 -1.0725580523279141
Ni 8.515683066012352 4.864635227990765 10.21107880310283 -0.7056382341736492 0.6742648620686904 0.10348793068302176
Ni 5.811720116334518 2.7782421024251867 4.618728352091264 -0.12955994517972524 3.46942243746947 -0.4990279836771405
Ni 8.865554597837422 2.6808225319498504 9.307326378864637 -1.0151193505944711 0.5146677470969265 0.17139333627574355
Ni 1.3710020200525515 5.197420032313016 0.7918254840859134 -0.49455477839713535 -1.0657389725235515 1.7668875463569633
P 6.504867647115883 3.9540873496325353 10.25719895418862 -0.22477483722067737 1.2368790551379085 0.497691267143588
P 8.335557755470067 3.7820242839425897 0.33928411341121295 0.4298802210368855 0.8443610767995652 -1.8754096970297829
P 5.511034817588913 3.1709285452100247 7.237870506969157 -0.7272213596610636 0.26486064949796967 0.8119826604688597
P 2.962814259490896 5.04367685324583 2.646379089833862 -0.16189413853605666 -0.43080581817494834 -1.0468213096834424
P 7.9976628144916955 0.9416664619076495 10.998240703607875 -0.3284489157725763 -0.8474703118525082 0.035603608136222556
P 2.7855850044575625 7.959472250231705 12.671203221041425 0.5526416552375386 -0.37087880280201285 -0.9068923625645672
P 8.967131409285287 1.5468579842477697 7.3394762789721115 0.8029524319457914 -0.25595563369885593 -0.1495775259522327
P 2.0518740123217762 8.147986779635408 9.12669005465674 -0.3172337637830472 0.8017316721648128 -0.2097588234278194
Ni 7.116486544262968 2.1200807906148746 6.31794314560774 0.5450669282140742 0.33991063655527265 1.4838168016088704
Ni 4.362589992342071 4.254361595338161 11.245971160266562 0.14919597424309788 0.26908034400627207 0.1835744517229677
Ni 4.7359756264769235 9.06115045006624 12.074494338708172 -0.4982823637603677 -1.4255530328709707 -1.455504070707106
Ni 7.2919594817618405 5.185303309748142 7.9912606633940015 -0.4360285000264684 0.19587666612908847 -0.16689904794981578
Ni -0.0785793280724202 8.058984454365122 7.604283186807617 1.6412374777546057 -2.112108796491872 -1.3424884030393074
Ni 7.139963278114571 7.909865621997716 12.44335371834597 -0.4305448512040779 0.8292825851998878 0.7839864323662498
Ni 8.172463119743327 7.716184903250625 4.330129881143988 -1.251028092944781 -1.0213097956758992 0.6439392145019556
Ni 8.844254576674805 3.6194247802867374 6.326611693694053 2.582104654602721 0.562449899577212 1.7864718962467943
Ni 4.346857871448279 1.4561086835575685 2.838692123011566 -0.9513673050484907 0.7562218606584719 0.2477471297461346
Ni 4.417409520492174 4.968547568074881 8.326060561823612 -0.21596212402505388 -0.6680880438340171 0.2671563875106818
Ni 8.02763231795208 0.05702613560563378 8.753304420521886 -0.558013203962097 5.208632572515823 1.9302742102781465
Ni 2.0270800403193268 4.837085332197538 6.027155817222569 -0.22770872303802073 0.26703554566210136 -0.19994903642624917
Ni 3.7618453165253736 3.6954135399958266 4.142424378859882 -2.2831930861676293 -0.1221669951497638 0.44029627416388684
Ni 6.378085810625588 2.068157317973724 9.299874174092086 0.26303310937092766 -0.20755898756302318 -0.5536017051579628
Ni 8.038917592322447 2.5399341024965945 1.972499670301576 -0.9115100638422367 -0.5655174827589422 1.2932512632800501
Ni 0.849989489243129 8.23918450182377 3.3054652709841297 0.9163591644044218 -1.133433547657048 -1.688663532447053
Ni 2.9679057119179255 6.93363333627354 3.763433475998025 -0.4578875048830888 0.0026914307892340742 0.6330863309478516
Ni 5.678258667944545 0.43904108094571026 7.512605279931642 -0.19798599916260742 1.8812586996113922 1.7716047493269746
Ni 2.5925115231558955 0.12781040330169985 10.868510495767175 -0.007915141082018625 -0.3778747745038718 -0.3501827079052421
Ni 6.000683067236381 4.36784960283091 13.547048880710772 1.2271394592526415 -1.4221316658942473 -0.38800903472439624
Ni 1.5746134065609865 0.4544238067555193 6.779314682950381 0.15425950480893433 1.1185005804962993 0.9122993925127515
Ni 6.237748565930488 1.1222775624062762 12.922610733985028 1.5454083491684223 -0.33637151305376267 -0.5523776029428745
Ni 7.483276645529046 7.862323601078174 1.8512324840271992 -0.6615844383875445 0.31398131828402054 0.6389170786970158
Ni 3.9354218047716105 5.108922181228161 0.6742792620348129 -1.2140144918349094 -0.249951336486305 -0.30124741565711993
P 8.861733672988514 0.5499768227447633 2.8407978356300103 -2.588269902873168 0.2959206041275678 -0.6695887967492598
P 0.4411290435465194 6.291792698573355 11.523603857160907 0.24313225668194255 0.06252023002140845 -1.0756276923921733
P 5.742102678745124 6.409736894704074 0.3227354917061869 0.7386607118462569 1.038499162970992 0.6130826341324151
P 4.691619266617229 0.8303093907426164 9.974547673360696 -0.6620022426512534 -0.2595626343238239 0.8216422950458108
P 9.179496357122394 5.961576975750981 6.192423428792476 0.5513702447242828 0.31752712665375 0.6626761287898264
P 2.4295196506891528 3.3982969290064133 12.7942341985419 0.13939595743354058 -1.720979470970939 0.9475805843125488
P 6.959389546074125 7.829850410919728 8.315873920123735 -1.845135471526274 -3.560420206105281 -0.6831025149649784
P 2.354922866047269 4.723074166290269 9.37939705573355 0.8117931701658729 -0.33022606227765705 -0.32060679402033815
Ni 4.545910306058749 7.049606346235261 2.0362437204765245 0.22893179681184445 -2.1058795277527085 -1.870752657873746
Ni 0.42041944402314707 4.0314867686379205 12.112328034192542 0.2356292634366781 -0.21897828514355838 0.7973340573177494
Ni 2.8211317503013156 6.704910345868125 7.709114790962963 -1.477385958381862 -0.7505428079958236 0.4324464391021649
Ni 5.283498275730714 3.587941854270062 2.3581085271071167 -0.33523997055248067 0.6569762501915718 -1.2576535686810986
Ni 0.6856402075329964 2.409116472522857 0.6213599199831644 0.3447736210745288 0.4932070061199893 -0.5993976804461548
Ni 4.6764476725961375 7.747350197372768 8.776617667368951 0.07380763000976967 0.3545929211577958 0.5909850309024275
Ni 7.323881487162131 5.053719626381714 5.3335187596390465 0.6184351566935801 0.46700078003826667 0.5842819078506388
Ni 3.838235787159899 1.7511606872325352 12.374975045145243 0.06027565696160587 2.0009692628008637 0.29321503227094664
Ni 6.283506242971934 0.530416303310427 1.810390627659336 0.8899202534866028 -0.0576670156941652 -1.2837122134413634
Ni 9.535496316088986 0.214583700041546 5.074508633878718 -2.565757837813581 2.7999904780130485 -0.6341993615063723
Ni 4.004796347382835 8.643716745851677 6.80033070383083 -2.435280523025909 -0.630331908131166 -3.051480362631067
Ni 8.281681780889008 2.914085790024138 4.3401380884560545 -0.16060447319035565 -0.43419504636215545 -1.4712137681328792
Ni 5.789411146801041 6.367146194493384 4.1544710355656695 -0.7473279006029517 0.5099333177357347 -0.956578674046101
Ni 8.043448517876776 5.731508720851085 12.557347134235604 -0.7813034862174479 -0.6506256253831956 1.2419281875260417
Ni 7.27753525690435 9.258568014631335 6.116906445867909 2.691740092944377 -1.2353605616108532 -0.48867158014348094
Ni 3.9661106510519595 -0.24378434747487543 0.6612339332841648 0.7056480043656621 0.6535579685386421 0.2758698561242798
Ni 1.2551971681526406 7.757878760464992 5.579196753732195 1.4165577713508957 -3.0777752917718546 0.9481781086872315
Ni 0.614527097404946 1.7407442295148519 11.390659961916727 0.4058283222940043 0.1335767796486022 0.43592359901748795
Ni 0.4175495464349209 8.666604926486945 11.931021880371768 -1.2148231037791337 -1.172268775356691 -0.05008637513342987
Ni 8.462498407907624 0.6083276701928791 0.40900711689496616 0.062142792077331685 -1.0984544604787017 0.1392056957996054
Ni 2.8979426160903654 2.542643315714647 10.032986336685536 -0.15757957032110279 0.5053989202004908 0.565387127828665
Ni 6.30456336915638 8.515851224074162 10.352719272776957 0.291030365914802 1.0952020149796753 -0.1351137851184189
Ni 1.6178020021025552 3.0407368369108028 8.001392186618062 0.46087538386681914 -0.8447416000674354 -0.6810816278802077
Ni 3.5311324557218726 2.1303664587289277 6.488501196644484 1.0787376987760648 0.5352142037897105 -0.34886630308666366
P 8.788697021475645 7.6021176846560845 0.21260504018091345 1.3140535447373822 0.04672722885320985 -0.4857574918204795
P 5.0579329200415115 0.9808659745385002 5.177070104199626 -2.119117623709538 -2.4890410045768165 1.1685471035307293
P 5.327976083079494 2.0977811631959424 0.7877317694922911 -1.8117918630688215 1.19370946172897 0.05532165539044021
P 2.7879485594374493 8.859229986290451 2.44262290054998 0.6573760567331517 0.558915146951076 0.9765839135234342
P 6.916798845863436 4.523778836701627 3.266688021930714 0.8797808510597559 0.24379354441502532 0.3065667709875043
P 1.7628850409865193 2.6058800890698013 5.347956997668355 -0.7135837142729711 0.5215763012913017 -0.8121562099322465
P 3.8041744375288022 6.683059139947353 5.7807117697367305 0.3443005380928522 0.023761106975339723 -0.6042274977346305
P 0.01946990092324979 6.1940461540889435 3.177812749418241 1.1768666791400184 -0.0234443470658693 0.8626927852292174
