# total energy = -340868.5898888983 ev
CRYSTAL
PRIMVEC
9.29217041513803 0.00000000000000 0.00000000000000

0.00000000000000 9.29217041513803 0.00000000000000

0.00000000000000 0.00000000000000 13.60003066953503

PRIMCOORD
 96 1
Ni 8.558125988185253 8.484782888236994 1.9385622968612186 -0.11967533907616164 0.14243551559081274 0.13980399150523667
Ni 6.650331925525058 3.597491596891963 2.729281384497995 1.2740957733975218 -1.2328416518437413 -0.42579370967233765
Ni 4.352814949532805 5.100407216508254 6.061887587996439 0.224949929345961 0.0925579140340793 0.018284400131484642
Ni 8.610440906810451 8.24139307233116 6.822781596714688 0.5007323679627569 -0.665236433317835 0.3791333295013213
Ni 7.758200218244063 2.6305297741609714 7.329369347892845 -0.23868964752955665 -0.32618377388748343 -2.294311050457661
Ni 4.8596285004485456 2.025535152162842 6.988973920443891 -0.46193262148673997 -0.152293382221499 0.08070358579865457
Ni 2.6920625256949093 5.5001935502437025 1.935365790288027 1.5935196028533523 -0.41193443519174217 0.09857429543148831
Ni 0.9112961475061034 6.463977450742043 5.998089405350454 0.38227367490251585 0.0020589394115577446 -1.5651325670702272
Ni 8.211397946696676 8.418241656927039 13.20654067072503 0.07120515938991608 0.2738332853102252 -1.0464814098455202
Ni 3.977336933226047 5.073729395660484 11.538809827013685 1.9348402323822742 0.7339409377730843 -0.20259958667521885
Ni 4.680902897457944 1.559412014863398 2.4850515563996716 1.5089660471809883 -0.5816583541848628 1.2387467044742666
Ni 2.9677147567813273 0.09547519109950212 3.0572187992647453 -1.5422248092341182 -0.43195227307456574 0.5325194305663667
Ni 8.651066275234852 6.340549553033603 10.604772951203593 -1.2565575074034425 -0.6983848950453456 0.6365629766425424
Ni 8.394462993203792 1.9817690301868758 1.3325325270949098 -1.51749131104318 -0.5000199152767646 0.888388904443741
Ni 2.78307004132816 2.201454519731629 10.259074482181033 1.8355424285211999 -2.287928801080402 1.2652393514481566
Ni 2.927442490827222 1.7609591880393434 4.736373437107143 -0.4764110176085731 1.3171332121039705 0.5640959198210671
Ni 4.741525016305333 6.685214732722038 7.978335448829928 -0.78608239566333 0.04823363819540725 -0.4533255965440193
Ni 5.447451191786041 7.340452119374955 5.442596032819493 0.48137093271700965 -0.07098970094500032 0.46777056832475566
Ni 0.6433517716594015 2.2934748819244084 6.5498696266411605 -0.10316628567754492 -2.079449101475322 -0.4875683197769732
Ni 1.2380887668954783 3.85271963772293 2.9565241961240756 -1.900701381717036 0.8493991534441049 0.5362462445986507
Ni 2.0403654559152073 5.468079809787452 8.061363777851552 4.3793165629748385 -0.5943413489691699 1.1536694150879485
Ni 5.239018520439355 7.14825286949154 13.577835351975827 0.47965857801159323 -0.6640856075428433 0.498435087288148
Ni 6.909639229104952 3.9742612248663773 10.9733617524715 -0.5902792630846544 0.7828502618792775 0.7878112054289788
Ni 8.699404144984104 2.4469071974376035 4.601176076533574 -0.5541133546870586 2.350572958274184 -1.1624597596860688
P 3.0883550034084966 6.911962271672679 6.135136837024961 0.672270714456797 0.5844873389932257 -0.21172443179462247
P 6.980008834566522 8.897531799500355 11.350490058218371 1.1753767248580531 -1.8831222351826922 -0.02937022563200103
P 4.793644799354843 3.063953764277098 10.746050178785415 0.28320469922279606 -0.384571469797757 -0.8110848312449386
P 5.432834607949906 1.0125306257395128 4.752625442910957 -1.462825544069184 0.034327826747592494 0.08625485463418693
P 6.877200262689221 7.205762111298176 2.5942196896103806 0.14983695026120647 0.6051032154713644 -0.481959201120312
P 8.857752018570608 0.5272219444817301 5.339263382538912 0.024053955625410187 -0.7305573660128322 0.7958754704943519
P 0.5574084888237945 8.96641465771858 8.926542884303151 -0.4724034391110767 -0.018809933617651476 -0.8072232914070033
P 0.7986295121883985 7.024899309145267 12.613579409227723 -0.9392386401057566 1.52634079101401 0.0765643668193004
Ni 1.5910890233169157 3.1344813366332724 8.772944238942106 -2.203464205577418 0.4023316219946555 -0.8759666195199881
Ni 8.040895914395827 3.267368663677495 12.878779807193427 1.4039588516399626 1.2199889642507893 2.147269403553405
Ni 5.380110833832787 0.729638864795032 10.548931653960585 -0.6993639711291634 1.937885446966501 -1.4801491229492958
Ni 3.807922084846894 9.155575367923406 5.822172825432748 1.5704778905425405 -0.9825383313346562 -0.3854962956048716
Ni 0.13638582915121872 8.777876522921902 10.99248318045497 -1.080178030767017 0.13397555774891765 0.6708427237610188
Ni 8.620950351386846 1.8961416811404797 9.330899107377828 1.1084586228792652 -1.6270041077640434 0.1886230698904687
Ni 1.88342070003961 4.485488556660798 10.80912728901838 -1.0579349030981007 -1.456041431267815 -0.31926724927330824
Ni 6.174740066719561 5.849597736770299 9.664004827249258 -0.7754593687318452 -0.37346250436878903 1.8405419386183204
Ni 4.637350495398209 9.153912069444916 8.1221559434149 0.6214436045026007 -0.029896787559432387 0.4984901088957996
Ni 7.573462581088187 1.6138176717995512 11.588953165446572 0.10490666540741932 -1.0513986446414798 -0.6367383258781422
Ni 6.093108350889654 3.149822709750538 5.346444371724269 1.8508731453409994 -2.8294522349175915 0.5409811881804747
Ni 2.4368530692044836 1.0037774013443197 7.435544473059295 0.09987938739615702 -0.40782838344316863 1.1576379128173933
Ni 7.595708036716735 8.084494777306917 4.443551133794146 -0.10850749538480023 0.5922590125188445 0.22010597099009838
Ni 6.246540666402849 2.921764974791699 8.992870395696874 -1.8501738052811296 0.6312011981099969 1.353536947543985
Ni 3.9001747512964458 3.8117039981471526 8.55799589780146 0.637637954874276 0.4507051282020367 0.13470317994356157
Ni 7.137492536317832 1.0374986872574365 3.4279968358484796 0.34137487980562503 0.1224143352738795 0.6025166856911107
Ni 7.5342960833963195 8.20127877327166 9.151813897397744 0.17481701724531182 0.32549060447520073 0.20360488801128157
Ni 8.228235359227558 4.3943044897923995 8.878317449814176 0.0005435312082958381 0.636076009703795 0.49389554754658166
Ni 3.865171145885944 6.489038433962676 3.913925304863332 0.021516019694904884 -0.1209572911123788 0.22143805953796059
Ni 4.243250969868556 3.5952614760269457 1.4151241241138013 0.23173044260290412 -0.6368599390576709 0.46587257997109444
Ni 0.45204364090496735 4.426018666927001 7.135745608306902 -2.2479761719468643 -0.4316990194131791 -2.4004166212691884
Ni 1.6332475998360152 6.703455262963825 10.66070995780039 0.7481372838781244 1.8931006865516427 -1.0190911907580256
Ni 1.1469697452189769 2.8069787954352003 0.7383428406877894 0.09713499188180046 0.9748283642849082 -0.6324769794986269
Ni 0.4808456518766667 4.99141005923053 12.855510354401025 -0.36467601642541064 -1.488380766830469 -0.46747052058583366
P 8.753995645325675 4.609743457523349 1.3914867013786714 0.13992509046413323 -1.928855475553749 -0.14919134625740757
P 9.107116699960633 3.4779757028675733 10.65786748291452 -0.1390887106057669 1.4247853014670107 0.8738662853475337
P 2.5960186537748275 2.3444981888819516 2.523811986250701 0.15296623991880753 -0.2764640380648529 0.7520738999283693
P 7.275620647394845 6.254225291216889 8.011478761752194 0.6603904180794433 0.22268530168150033 -1.963001782418155
P 2.0110579508807707 7.276215346292183 3.1053225063231706 -0.5181811595668238 0.33621853241566607 0.05894382552405978
P 6.430748649853284 5.961967951856361 12.118578994377385 0.27037412311703113 -0.03689687302634936 -1.7403604466007125
P 3.4634241642233348 9.094070492900283 9.96955647461637 -1.1663938046331528 0.5253432245329017 -0.2936184383569524
P 2.5918929301745455 3.0524965183330717 6.818660519199542 1.843625719749967 1.0429803386707974 -0.5149222863098939
Ni 5.989825878328538 4.285994953114722 13.473672910890055 -0.5034662219541522 -0.4274093908988897 -0.4164973719720762
Ni 2.2038704840020644 7.830260998694937 8.05653556617879 1.5273661469547308 1.1350674837160453 -0.017040243311738396
Ni 2.660720035371144 4.723098642658127 4.773556056446172 -3.2269314139159517 -1.1320616070101857 -0.17484709915229887
Ni 7.576138726126207 6.0024074768753435 5.660441672650607 0.6728175880992026 -0.41008761179099057 0.6743440520460581
Ni 4.92553786418008 8.319902618950044 2.8423522292224845 -0.11090684885491221 -1.6480197907837617 0.8667340451781266
Ni 0.9878041606486326 2.236616092036736 11.873778627024429 -0.7258141949008918 0.5522274505182554 0.8803835176407613
Ni 4.488369129444778 3.4580997506581057 3.817528330472956 -1.2778740094930314 1.3946044070082564 -0.15937934253400296
Ni 2.9746188392926105 7.261942572756072 12.77474002275523 -0.1037776940092987 -0.5963771484522762 0.33030165271059886
Ni 0.74229015461887 6.358567071188889 1.2025666583838601 -1.366315844476208 0.3000665079751413 -0.5470150530793805
Ni 2.057174991935276 0.31898162105965155 12.34920880206721 1.397617482802967 -1.2456105214736355 -0.15568286751902222
Ni 0.22551260952163804 6.555338068845589 8.204190939434563 -3.064510456342148 1.3626237403366015 1.7813831688699775
Ni 5.720213557918208 5.5247992171210605 1.9915611192183564 -1.2029376651954573 1.0397438340113707 0.5857502648660492
Ni 3.1409951479931775 1.5943134064009201 0.5929250220332503 0.20496705846613086 -2.7188480049047627 0.3746256714389548
Ni 7.557061900560038 6.211676443546411 0.3428513480515542 0.6643370614320171 -0.26650512707992813 0.6615823815050155
Ni 4.907678312919399 7.684392509782259 10.876175872825126 0.00417778552677345 -1.0864864894835482 0.47719391852118465
Ni 9.195921971239681 6.565429365759792 3.436672935230425 0.42760376629788294 -0.7362793560982739 0.9376908360026625
Ni 1.6777385110931116 8.465194993305925 1.278095276779836 0.7507839774723521 1.1726143316215676 -1.3442575791245879
Ni 6.250053106765251 9.371618326721967 1.546432711428997 2.3732048367410874 -0.7761921331328115 -1.7791753625853812
Ni 6.8740037561160285 0.4243892129617249 6.334146318499922 -1.2344254513910933 0.6476621718794975 0.1961774851989589
Ni 6.036314606193878 4.387103057832448 7.206615132529045 1.9729061860160602 1.3159962702860497 1.706812435441938
Ni 0.5708040814863321 0.5537529490392201 3.4657769417359283 -0.0467331423904808 0.2966999054957535 -1.026236543553555
Ni 5.486106620113008 0.20936653445891226 12.875692948229432 0.1508715621733079 0.9269027442482229 -0.10952796622951459
Ni 1.528487672201824 8.868419430041609 5.567471650656141 -0.4408171796643634 -0.23627949542616725 -0.05258882984030942
Ni 3.5090673045940237 2.907222728317731 12.472070806606155 -0.23647052839105082 0.8262643671988545 -0.252588516998836
P 3.7213190579220523 4.972769965667093 0.008112993863527786 -0.45754580527295396 1.6079108385780179 0.49773214768385243
P 0.13407672483889865 4.58965378539765 4.829152969611056 0.44450054205322154 0.6728178452095187 0.43563974922848203
P 6.121347256342937 4.9471607444004775 4.445455099482654 -0.7465876800028175 2.1799059586415037 -1.2018158928861882
P 6.6648184189774 0.9609404963954443 8.663137733633786 -0.18486360284803646 -1.6800066281030035 -1.9330049789457482
P 3.4869333550087265 6.0123222225544 9.708680652694746 0.428977506716958 0.3241520881694353 -1.3908922482639918
P 3.8686278332267205 8.798486556582771 0.5277069957698713 -0.5345724564406535 -0.4718056576260778 0.8232266088137951
P 6.0367977990479655 1.97032107641312 0.6938370619582593 0.4465026600849149 2.0995906094202033 -0.6810178645218078
P 0.42097248195311276 0.6826465013010075 0.11627199738281621 -0.42028023605327625 0.7536697836605794 0.19956697049648212
