# total energy = -340894.4972354926 ev
CRYSTAL
PRIMVEC
9.02077992266623 0.00000000000000 0.00000000000000

0.00000000000000 9.02077992266623 0.00000000000000

0.00000000000000 0.00000000000000 13.20282325123522

PRIMCOORD
 96 1
Ni 6.055739568644147 1.96464461484944 11.393785008412983 0.38383459163173256 0.11028464188988102 0.6496992569141843
Ni 4.6714017069353995 0.4061786440799929 5.951938359601482 -0.9435076997947556 -0.594507442233389 0.4010681819011996
Ni 2.705864034903293 1.550969702902823 4.844234432042252 0.9491844384645589 -0.08595532111589713 -0.5934751443141328
Ni 3.4662255493169254 4.221553468700983 4.802988721372499 -0.02638646041332875 0.5458945663216921 0.1333978308685767
Ni 5.040811653272481 4.547537381933458 2.8267109091213762 0.45224984698133724 -0.8208403679698058 -1.1671113995254674
Ni 7.064686707125835 5.949790511973271 2.4967325946718835 1.0574309668784885 0.7611072137752312 0.7102057989396736
Ni 4.984034866325995 4.440433665470853 11.665406997404022 0.8597283032842548 -0.13944403706265662 -0.6465409137908606
Ni 5.88308184666198 7.9757042620214 12.35320806676499 -1.2870703312803187 -0.09374293548111597 -0.16704971459506715
Ni 1.6499547177048257 6.548229032155978 0.29208382340964506 0.9187454052484113 -0.14656342171625727 0.34625149117163595
Ni 2.7196928900651876 1.6645232767957974 0.5569546609309095 -0.3250614873575821 -1.2403287042494056 -0.3691481932641513
Ni 0.6425654678640111 9.016792438299454 4.725739275071857 -0.41517402517496244 0.14904813581132395 -0.5381213501341765
Ni 8.442141713982316 2.4657489229011333 1.2209995071549908 0.9473988073190457 0.08914631724936906 1.3559296161458776
Ni 6.677857635336948 0.6946117579762532 4.768093639557263 1.2382720788306933 0.6152649864957146 -0.7766595596875334
Ni 0.5837093912144473 7.387387056575579 2.3981607315766094 0.06637559921175665 -0.43004862829394974 0.4220496692488731
Ni 7.596560894471216 3.804008642296145 3.628531926681823 1.2684079789841252 -0.5387129609715883 0.5353108772685748
Ni 7.314769780611292 3.806976478792077 12.701960427765648 0.675501562689269 -0.32664374424303744 -0.3827267032795344
Ni 8.088536173544542 8.786979056626638 6.634933157579375 -0.8026223022998823 0.1320264044423468 0.5015450936720395
Ni 6.92509014246157 0.7340154254470111 0.505639956046084 -1.134695187978291 -0.02842431677896395 -0.9868845241184938
Ni 1.8814640059467458 6.4515082330393225 9.01067544763717 0.9498120447462286 0.09389231657478668 0.9562781120865466
Ni 0.023637148845865933 4.995337903193479 1.4014665180566965 -0.1548220621806237 -1.236056045015981 0.07899200242418654
Ni 6.338694363075425 1.960937074424431 6.925619662225434 0.8416634753627441 -0.23180783280805886 0.6004654595890369
Ni 3.4244773812221774 4.485916436329478 0.5197024494002116 0.32406672754448057 -0.3609366039876365 -0.22184120851365022
Ni 6.104947921487027 5.498724468489765 4.828180150547389 -0.04981743774275937 0.5472546798940123 0.029603424688729663
Ni 5.46927162302102 2.9041046878959853 9.000245622237182 -0.12086190318509506 0.8774612017876436 1.2397237236755554
P 9.12109069229934 5.4743232596098395 12.445350820223029 0.2554342139777472 -0.3859732352412901 -1.2122923669374799
P 3.8504746781336654 6.159929573288559 12.473326964067507 0.4076139534395173 1.129236993077197 1.0726148737077785
P 2.3069832015382206 8.574296135457695 1.657059483735816 -0.5521037804561976 0.028805611377782647 -1.1830501822429107
P 6.286879004921529 7.761938847297709 5.67988066695466 1.3546031840249702 -0.643814258888317 0.907649809555882
P 4.578857528784143 0.7740162685288046 12.601473453156434 0.6683184146772684 1.8803341309145938 0.1940090167927304
P 4.110877523507711 6.065797737923673 8.178990237057175 -0.7002839118402714 0.1974689503168728 -0.7147610224105239
P 4.710813493107818 1.2563059365210307 3.8119721865472345 -0.33168850575579645 -0.8389638170433938 -0.04322924300228039
P 0.31115014322059126 5.338181653541142 3.6515177752389167 -0.6233333653261458 1.32491079916686 -0.1608484708803617
Ni 1.474338180006349 1.3150853365438 2.7187384915810857 -0.3994609853150798 -0.20786340617731947 -0.8845775011174507
Ni 1.85727929577777 6.700238189581344 4.675528713612873 0.012204769596308014 -1.5429709433715233 -0.3019675816525961
Ni 5.9722522532342746 5.486438166643384 9.180305795977896 0.11437295302664173 0.47221266325650935 0.49182118151605625
Ni 8.565780519493684 2.296464972497928 10.192552735645638 0.04290219868016482 0.16987278586615906 -0.11021933586958438
Ni 2.5146054653387204 5.278788840504015 6.847459117182879 0.33369242355970274 0.08932346625718166 0.3455932887623468
Ni 0.7910456963009016 0.15877474214253567 9.322262196591511 -0.3081408003428435 0.5562666535846356 -1.3338068161049093
Ni 1.5270646369021572 1.0577946601396524 11.381401282146676 -0.023225289076527746 0.30989197870599533 0.5668652550360882
Ni 3.8846183290063148 6.920083609770864 1.661179273789591 0.5839903447521491 -0.26465650390696355 -0.7811078252668741
Ni 5.760345119112901 7.774613042667873 7.9130594579302205 -0.7195671855499156 0.512041365217673 0.36194936152286694
Ni 5.465762539747715 3.0489333047415283 4.8859816980590365 -0.2911105843334341 -0.6747454012495347 -0.4928915317620995
Ni 0.9950370963031874 7.46251210927503 6.84520121604327 -0.2812421761797866 -0.3068655331748457 0.5928364822888692
Ni 5.158117871488579 4.4307092650373745 7.049488497617185 0.6464442403119963 1.28949231045825 -0.30934973304928015
Ni 8.545240204292357 7.325901422665941 9.305666668319274 -2.0217422336821564 -0.7855679179207568 -0.7800544443016953
Ni 4.623257806088021 0.047916577200881834 10.37038207058561 -0.9195848704305711 0.5579777227384713 0.2042972860926159
Ni 8.378427947505823 6.970257186033393 4.854347628077477 -1.0140621129745504 -0.049244853068741 -0.5073172202691263
Ni 7.201622141801347 6.062911088444347 7.045343449380466 0.75182347448046 0.05713428311914676 -0.6491624105741078
Ni 2.2618251787460193 5.358117576507735 2.4452681448453175 -0.9187664882943338 -0.6832984330258682 1.0421293035244115
Ni 2.5956391286911664 4.9956446097006575 11.202555305343203 -1.8901793991397902 -0.3998494790027501 -0.16462696408618746
Ni 1.3045400451646383 3.403991190698588 4.049490216095964 -1.2724947474589892 0.09024880628492844 -1.1444862059267837
Ni 3.50331899512626 2.7943578830038716 2.7411830933608052 -0.17074516116878335 -0.249645375210112 0.17245314499882558
Ni 1.0555304444543063 3.469121219575874 8.07570501660894 -0.3892403360283361 -0.10235561685079148 0.45360661811954783
Ni 3.811026808842756 2.6506749051704355 6.997020937096554 -0.44241229206562516 -0.7227898062522713 -0.9512338647944197
Ni 4.265069709601818 6.886012125135198 5.846500781135225 -0.32496301410650485 -0.2546842231856001 0.08604299573369698
Ni 0.6428983346320959 7.377996424988147 11.398894377991391 1.1260652802174347 -0.6434607322036402 -0.02810395732506773
P 0.15120991635077782 5.699608209911964 8.001307038747093 0.14095764549370562 -0.8401514095935918 0.1525299237123373
P 8.366854287249653 1.4373078796543741 8.022299295007528 0.21410861575608287 0.5723879846265304 0.3478802850243105
P 1.8625564518571622 3.0208155346569714 10.273275182101093 -1.4554480206581901 0.7714286503058972 0.02914294011254336
P 3.9109860678440307 6.0405305341999505 3.7187334083650154 -0.0555805654787817 1.6753549882636052 0.9844918555166012
P 6.895565130755842 3.9656970962568754 10.5528444779399 -0.520386908968891 -0.555457784530095 -1.4784907614102667
P 6.414396745670741 7.559007388901113 10.095168909226699 -0.11896854281712416 0.7970370949026209 -0.040610574432510704
P 2.5577969581731312 8.474760853098696 5.66816989084822 -0.24031921271317966 1.1001979255323697 2.0604036548080966
P 6.755959545311953 4.025549969054769 1.5620652618389814 -0.1572278434086389 -0.5329472621324047 -0.23793040076602895
Ni 4.9791997284481235 2.6710257839996814 0.7735489921443388 0.19962147788350137 0.14595895536303896 -2.001693799671714
Ni 1.4286389104367743 1.2065924200192686 6.821832886430165 0.06660288473121433 -1.1906951003826782 1.5116492504401065
Ni 6.626836105789867 0.7479308800932856 9.363811907534554 1.0635195962747297 -0.4411786767688402 -1.361299107987907
Ni 2.787411882694244 1.570905625869416 8.966406873715787 -0.2199455341528341 -0.7134775277124099 0.8671261384102227
Ni 6.241251901588938 1.9760468802927764 2.5008523847256585 1.3188769342679545 0.1764244709417478 1.288668014784742
Ni 4.109244762395968 6.696151776412174 10.32937360641994 0.188689661462346 0.36342157519301926 -0.0069342652259880575
Ni 8.007791175140028 7.091189757657895 0.19653301941007797 0.22828310748425198 0.1279666325506764 0.6951720445350027
Ni 7.671613780933685 3.9542858100339155 8.276612212058158 -0.009955568550815112 -0.9738099503227229 -0.4513574170740549
Ni 2.9652385114003295 8.32408677105752 12.58454776435 0.48176996792764126 -0.12779616841108316 -0.06353632999074865
Ni -0.00027062338868678317 4.81643780171227 10.196962994803268 0.7703698700240798 -0.07590205064495316 0.43084438472236763
Ni 8.572843789938409 2.3257374023742146 5.910983118035587 0.0863705542764448 0.3486693565845092 -0.49505897172706353
Ni 3.4743352301979056 2.6577020924966686 11.619447929381307 0.7113836212978587 -0.7241172668144432 0.27055307189705663
Ni 0.9151851550813405 3.2931077675739897 12.45628220097005 0.6289473690788135 0.9606569578805325 -0.00435442031395379
Ni 3.2075005689527374 8.296546330868827 7.835347245634924 0.15842083527547554 0.09764895540374151 0.500300422631661
Ni 5.68637472620518 7.643811738135929 3.606219028284598 -0.5459855833736016 0.2615657807967818 -0.42166657487784154
Ni 3.23891092359965 8.364093928685048 3.672985426585477 0.7634731429042465 0.3642391859983082 -0.7538860134364436
Ni 3.268183353475937 4.025829613223078 8.92496270589433 0.6316341718823574 1.1501621732656384 0.49957742842270736
Ni 7.154145778646063 6.025664289381423 11.442582915783023 0.07088531415665211 -0.5328210209671855 -0.6061098023590078
Ni 0.287982976993078 -0.04601589893433832 0.2100172807903781 1.7814394760292094 0.36973337634366 0.9757300501635713
Ni 4.577161622215039 0.17252782275559803 1.7457562993779092 0.2993622828192651 1.1040520091711374 -0.7000800233595814
Ni 5.834044888631935 5.753516388938371 0.3594961095315228 -0.5122704505093436 0.1567223645271301 0.48247907817952385
Ni 7.934903275787056 8.892846926280907 11.239404288024758 -0.3616187176563256 0.4826742249094655 0.15523163891421654
Ni 0.2913269799992844 4.85354928908085 5.939223570723016 -0.6686462303303323 -0.3567655033290823 -0.22467816374181301
Ni 7.944654738559403 9.056952949180573 2.5916483357859987 0.036821796814039805 -0.5095263121053031 0.10837354091009722
P 8.58163905007073 1.7270823834805586 3.711379668816433 -0.5073858687235326 0.3508475951827506 0.15769372730146392
P 1.8105245949923168 3.3989936787875057 1.4991272824100583 -1.3544556027035126 -0.41123380958029176 -0.03943789428064821
P 4.691509024714828 1.0596529407419684 8.180350570624308 1.0482644698878723 -1.584487574558071 0.026528899528463986
P 8.52095626554753 1.6668145548200122 12.375586816853463 -0.9151232351147917 -0.38173631434180705 -0.1212128587666106
P 6.389030313371167 7.75925967574971 1.45868712736063 -0.8078398419450796 0.18434989643641153 0.12459977296097254
P 1.959601999040243 3.2103511353135716 6.076084132927658 -0.7829885872293547 0.42094512333078477 0.6115543704133468
P 7.094202698051941 3.9218019826118793 6.004485302982795 -0.1308802066530456 0.8470054564009477 0.3779714479827362
P 2.4620323616965014 8.315742549906343 10.332700469944863 0.09945207005075131 -0.4331843457094539 -0.49990910073051326
