# total energy = -340884.4859792018 ev
CRYSTAL
PRIMVEC
9.13766420216909 0.00000000000000 0.00000000000000
0.00000000000000 9.13766420216909 0.00000000000000
0.00000000000000 0.00000000000000 13.37389520912972
PRIMCOORD
 96 1
Ni 6.458318363121823 2.2703897564915017 11.850729101202862 1.895896247018909 -0.12183583706259016 -0.9860044355063857
Ni 4.551013696981839 0.435664643998254 6.4048255626329125 1.1147735093536995 1.6528398378802243 -1.02568632747704
Ni 2.776698596840998 2.105153373231744 4.757616286458315 0.7281567269911394 0.2110050371300947 1.3965183362015174
Ni 3.641478007078252 5.068086705858681 5.167900154139459 -0.43733487754271777 -0.059962239486245114 -0.6889543457600651
Ni 4.371805825030814 2.564357554193746 2.5509370666588453 -2.8813463526837215 0.522128574250346 -0.12266990292811132
Ni 5.2326743149542265 4.632284083129727 3.0045663586407687 0.2534812040164344 1.5566816080893966 -2.2001454256168307
Ni 5.912909457298206 2.936543758172799 0.5546598771454199 -1.5883411439762063 1.005585700072423 0.9676030501810625
Ni 5.526185229442238 8.343564707678604 12.576584032488077 0.8605412861038535 -0.46647910320684177 0.9129277701253697
Ni 2.4976800179084804 5.705265174093277 11.679863916743745 -0.7677339750631295 -1.1050750511190128 -1.8844797776518514
Ni 1.0638525643431593 7.883839679852375 11.610212984500247 -1.889158156964127 -1.171567121303976 0.5930539976163142
Ni 0.5888356553365287 9.726403994535444 5.323064090058221 -0.8761000597740589 -0.36460402553689464 0.22986536436970734
Ni -0.3252076443586873 2.7030124720493878 1.6967463817946717 0.31837996157234844 0.9613868940680218 0.14188478529366533
Ni 1.3852242172351408 1.4084247468539275 3.046560322393844 0.44626946102818627 -0.5809294464386382 -1.736996415224486
Ni 2.2469150969441745 6.65862510190616 0.46732847827750595 -0.44664278520720496 0.5556475319433979 0.7501340025931791
Ni 7.767243083579936 4.299097430317663 3.9060599902074133 -0.30750265253821235 -0.09751422959809011 -0.9484149072883858
Ni 7.870772819925291 4.310738814616338 12.631978380914626 0.27810594454365006 -0.24561928476985442 0.3189600024455345
Ni 7.873870488117795 0.07095396317049288 7.322849228890533 1.2006781797373194 -0.48779971906148883 0.26886719955420146
Ni 7.374789540217477 1.1827335766867668 0.6450322906872733 0.0792362572245087 -2.2373505739122175 -0.3987559888282552
Ni 1.9800770245031272 6.98015209509098 9.396351560573024 0.3296197961522259 -0.21144649554288747 -0.03699277517426532
Ni 0.18847163600282701 5.250620687609327 1.501808020777581 -0.07057652466698168 -1.0991741122535459 0.7215546482935896
Ni 6.4199675861190455 2.2249024636823953 7.2564083581102405 -0.07517545689157375 1.302686440551021 -0.03491815203342374
Ni 3.879568987679715 4.622534195337981 0.7772040357329391 -0.5147312533450102 -1.0946525702341083 0.08427433386904841
Ni 6.14343445187196 5.849146835919751 4.890820587568149 0.034739460363714364 1.937660989660521 1.0440036377289892
Ni 5.16788827517589 2.986819187067075 10.055390976842274 0.18028935321379275 1.0769962906049257 -1.206845742000612
P 0.5152993882391871 5.910350911298498 12.769703084546089 -0.4779035429936995 -0.07153528903582518 -0.5815210572760501
P 4.156038158276808 6.365708135596652 12.875490737736188 0.15776777507250891 1.0617059401047586 -0.5291230032903081
P 2.747421520472903 9.073015309859837 1.347566988951571 -0.43110586591387046 -0.6169698850019633 1.9481210086515806
P 6.479207063676586 8.037096585234925 6.251707549747489 -1.6068937101674132 0.3014965555534485 -0.840983418576584
P 4.691258568423014 1.3347294843980326 12.669772674162466 0.4366383656963254 0.2025653910031737 0.07719557264539607
P 4.066845417194107 6.634885450094576 8.315808138647478 0.23677648966724382 -1.1127536507101932 2.571008287579243
P 4.871124352202534 1.3707958453296407 4.317454084099145 -0.5382753592135374 -0.15170305693566777 0.12443110859359217
P 0.37409963088026355 6.04296583306197 3.649374776553067 -1.629612749031484 -0.6088228304147966 -1.0726210443553656
Ni 1.5266295720404692 7.655197044121265 2.6180340217347773 -0.5446545232670039 0.8449290334878932 -1.1055144526492766
Ni 1.7107626450409332 7.046025516919195 4.862427123336382 1.9211565642475947 0.7517661388799634 1.4644360830894134
Ni 5.989912554225153 5.972313412812872 9.373415109452063 0.18780211665107013 -0.4923760255782617 -0.16267266857329404
Ni 8.807730640347184 2.7088514395272947 10.55938616059489 -0.10759835330696953 1.6150183961570768 -0.25768830011924654
Ni 2.3984632591054913 5.470308412341457 7.103544372291931 -0.9729918252968017 0.8830322681175179 1.1062091647234562
Ni 0.14570919468341006 0.6505633188787864 9.680840859112775 1.3874593113230427 -1.7383076778367417 0.6781104610670257
Ni 1.723939156939433 1.80612330951579 11.524580277422853 -0.4990117857272245 0.18760465592828335 1.3994928454488091
Ni 4.256132132851127 7.280260403192525 1.7444504719592406 -0.0853570254102659 0.528664832706967 -0.4051284680135023
Ni 5.74775531301701 8.316233953803145 8.537547269011517 1.2654743502770978 -0.12970007030201536 0.055454324313562564
Ni 6.850662254512866 1.0853169377478584 5.296316319164124 0.4007498793298324 -0.6277479494540738 -0.9685312184222868
Ni 0.7089045640371439 7.555167033196939 7.166883006047576 1.39518393366081 1.3329843202036142 -2.066226689247777
Ni 5.134745966815377 4.943247936401465 7.22836303888772 -0.04271656503191998 0.21670645839024613 -0.33157537721669994
Ni 8.616543290518951 7.535338301699197 9.030361606745407 -2.0076384472909234 0.6782225611648578 2.5274676839841312
Ni 4.96022571664239 0.7003599341645453 10.696039929972187 -0.5547782419645672 -1.3427064325873843 -1.4048096296760322
Ni 8.09876668149219 7.512795683908906 4.894885934408401 0.6503793137003444 -0.06304190685283335 0.35547943752780714
Ni 7.521120096072244 6.302237919475307 7.06641895606973 -0.7307100895406126 -0.20712215713592072 0.7032599637494598
Ni 2.540206707489353 5.4388931225307475 2.808384361514533 1.052221397653091 0.7341538251148388 0.05131664799610518
Ni 3.623284917487466 4.591685440712921 9.085435223155566 0.04405276734484026 1.5487099027378295 1.791105538364064
Ni 1.0516263695302657 3.8852800278576365 3.733656936849185 -0.16026611601433044 -1.0749604911218196 0.7442598032005892
Ni 0.8283100783106917 0.46472424395637396 0.4032177118898054 -0.5465131737422976 0.41258183896775397 -0.09867276868256555
Ni 1.275654484797616 3.4433825830508065 8.298996663896535 -1.9470773978784146 0.8260843899775645 -0.5002549141057062
Ni 5.42089192388994 3.492515803909498 4.840935336938829 -0.10550470400273441 -2.35732210407256 1.5967270540470566
Ni 3.815404309072735 7.381003151931055 6.446418382923891 0.7318609153156042 -1.8674601031654032 -3.1447443015932355
Ni 8.862273358462403 7.4589474282793224 0.8802750613312037 -0.4443599027102992 1.190572201651569 0.43918375782599844
P 0.319388779742207 5.7720980506713815 8.239723376981141 0.6467715417444281 -0.9523335256165018 0.222480641869862
P 8.615108677226258 1.9265394494592227 8.079103341718001 0.2509782350889226 1.4077175473514467 -0.6602415512064048
P 2.0677529133145733 3.798782897738913 10.318414988210899 -0.6604778355869271 0.5054251454527361 2.502902335939941
P 4.4229858826892725 6.5311089968135345 3.7130743480479573 -0.6980473092002687 0.38295835967436626 0.8575693479597231
P 7.078975934329728 4.06311725016596 10.301643719182808 -0.9570741256252808 0.5063016345204183 2.2472873734099554
P 6.803968790018183 7.58470910182929 10.595789701338603 -0.9012619037516673 1.3600405529904578 -0.7475909244563512
P 2.4339904978443037 8.901711517515055 5.878442187616416 -0.30576870056624117 0.9652471483543764 0.9508885656398591
P 6.94695496074476 4.486191106546362 1.5419835893380067 2.8577485107591234 -1.888740352700418 2.3904181152955797
Ni 3.069323157893395 1.9236610852095506 0.4901817766534754 -1.1149869109160861 0.46913325300023717 0.8603571951175053
Ni 1.4343574380938322 0.9663079981042654 7.768093800124839 0.014266280111027043 -0.624217567703312 -2.112606047843265
Ni 7.085198683707591 1.2874055210677064 9.429598952072809 -1.8883590581015992 -0.05623285435079993 0.658294454782363
Ni 2.750811593922517 1.9858611659953256 9.403880995943595 1.4107766458927447 -1.6608740210386104 0.8681175557892147
Ni 6.422169763211652 1.7976435570596125 2.8691690181026126 3.023491590727625 -0.10685247627988048 0.4578682216093792
Ni 4.172412852674944 7.218873574528085 10.886725622031193 0.36839408870694623 0.5993130911521486 -1.5625807471826507
Ni 7.74067989350439 6.89581145374344 12.313559107353022 -0.20920269381403325 -0.6100983546931106 -0.30043828949226326
Ni 7.846749900520884 4.1795950568026985 8.384415549629667 0.8295016431892295 -0.35598054553394176 -1.310724223253833
Ni 2.8964294119630805 -0.2579818482163414 12.600295357540375 1.5975726898768035 0.094702728291224 -0.8003854425495636
Ni 0.02495678869430137 5.292169647111739 10.538509339003696 0.24888869954974552 -0.056377350348464195 -0.3102817579452463
Ni 8.605468441405927 2.8982203941628764 5.783460736209374 0.7091598741736627 -0.04879285313298694 1.045231082378187
Ni 3.754903833843909 3.323816245885848 11.936950273860187 -0.035140038236242704 -0.06567240249714495 -0.3670074927720647
Ni 1.6611816786322926 3.872779703116202 12.992377911732879 -1.7211036552536294 -0.2002737667555196 0.15391549120595427
Ni 3.466875517926703 8.724970814920892 8.26447913706118 -1.7723727378412508 1.4454492575742655 2.4352136743437156
Ni 5.769612605985951 8.492207092597395 3.7713315266948957 0.2802350750715109 -0.6121572941046683 0.03303301919556891
Ni 3.2853192662545174 8.81918013369588 3.7388864221193043 0.4171959407009976 0.20829483728778322 0.21266571266196924
Ni 3.5666131235939185 3.0532591440809385 7.485048252542066 0.17272953858866383 -0.42056254318038533 -2.9233502079193334
Ni 5.498982402866764 5.002862058194678 11.650615167134934 0.4466754382173533 -0.12763701712539952 -0.06480671206274001
Ni 8.495176833489912 8.786321092928194 2.995846285613904 -0.6927868321322779 0.9963055603220776 -0.7622976345389065
Ni 4.996712410131093 0.5163282892376413 1.4106780948665283 -0.6730890965930344 -0.046722343757203404 -0.4845729845940752
Ni 5.911401742691235 5.844495764798853 0.5786672625205437 0.4029918812864737 2.6223874133821674 -1.2367947229542184
Ni 8.039792196198905 0.1955414468598792 11.649050799009396 -0.4086025426050318 -0.1395139710686436 0.29183049321859417
Ni 0.2519043877006048 5.466753860934718 5.786015627143368 -0.3474866491303177 -1.6933809925273804 0.16386051823380812
Ni 7.025675938557225 6.549740694289985 2.6885676523481754 0.8267893864643892 -0.49644273944846756 -0.11571301199430395
P 8.567802989224502 1.7430094623015473 3.8555204828153107 -0.8792941412313245 0.8614589128221164 -0.6764644408231705
P 2.0872252759052135 3.605996456660863 1.7003036745006954 -0.29441393767505425 -0.7153868289199808 1.2336885732250689
P 4.737449461382041 1.5999227772678386 8.478086659978288 0.6085754902906809 -2.0927872133451246 0.18303889093447187
P 8.815113873089201 2.166732092846161 12.66336717149891 0.3581202175847639 -0.4546178329928816 0.7232297220031673
P 6.661649668784387 8.315429839346093 1.513644037325519 0.9077603669918173 -0.329995948544722 -0.4440665398395965
P 1.7897577527819393 3.6379234556715137 6.17502152977122 0.20508327232902096 -0.42626987797780774 -2.1342580788954018
P 6.901668696549916 4.298147113232058 6.2136857286589615 1.165954917323521 -0.3603686472993084 -0.13119619523156759
P 2.139072383056453 9.144152026316023 10.367644154544578 1.5097299219302063 -0.175323267457769 -1.6684878288301266
