# total energy = -340895.7027100022 ev
CRYSTAL
PRIMVEC
9.05848040983113 0.00000000000000 0.00000000000000
0.00000000000000 9.05848040983113 0.00000000000000
0.00000000000000 0.00000000000000 13.25800172502624
PRIMCOORD
 96 1
Ni 6.223012929890448 2.031708434892426 11.326218333833388 1.3269465986499662 0.14351075093286253 1.1392874353346636
Ni 4.743165233292163 0.35635880424713345 6.019954411557221 0.17148795287207885 -0.559594689516604 -0.27467403604396573
Ni 2.874799315600747 1.517983898762008 4.88384977365894 0.37127938067454125 -1.0318304927015647 -0.7131581966997782
Ni 3.574385751017453 4.230826644651305 5.01274470188413 -0.46701774931913115 0.5647322678534854 -0.18224107762352484
Ni 5.121039740004683 4.7584740650395965 2.5156260415169704 -0.40870795783464453 -0.13687499078389975 0.9852775846426902
Ni 7.2202157363497 6.223828193119601 2.6532306985736134 0.07896449162036077 0.02679757980881836 -0.5688997689676139
Ni 5.112570060901813 4.5490329414701325 11.649740146906295 0.774033692028912 -0.39779542468719875 -1.2592232271610637
Ni 5.596682424853322 7.878214688599267 12.564355882404291 -1.2077057760080618 0.0023384183251895212 -0.7136698462288741
Ni 1.9141474772485314 6.5311190211481 0.4365145790894461 0.36415639647651477 -0.7450956688383232 -0.7248528594288871
Ni 2.645420476838326 1.5762571026858154 0.18059348712989268 0.22351088290658927 0.6767668025549377 1.2097636869783552
Ni 0.6814522636562408 0.10798433224544174 4.586539579251343 0.13196521218710822 -0.6014039122429062 0.7212229759857838
Ni 8.657968674882706 2.2325621191148093 1.4396597486411928 -0.047470277666821464 0.962299378579962 -0.053332907095185574
Ni 7.025757339236008 0.7201292570953021 4.837115261971748 -0.7725815329634179 -0.2452477603630486 -0.9026029911605938
Ni 0.4654374009157053 7.2962707371493725 2.251818636587408 1.0019074798898875 -0.01888063895458684 1.1768767064423475
Ni 7.646127364219992 3.9632119604415976 3.539674560264206 0.8568201284985244 -0.33487333124168134 1.2359058925913617
Ni 7.639813603434217 3.906895388267757 12.71886456959341 -0.6338406926153729 -0.02306562357021189 -0.3608887814688365
Ni 7.8771457879210445 8.80292247702615 6.865801787828112 0.7085770050869991 0.19890336877055423 0.8352660564768324
Ni 6.821932473467378 0.785026927679996 0.26619250279885165 0.582654656659861 0.18796409615023113 -0.17892538298673055
Ni 2.047370547372492 6.380295323754753 9.23757916180116 -0.4217948729255897 0.6054531426116154 -0.5749248921157711
Ni 0.1882325035870584 4.876768759589728 1.5403275463290005 -0.5211896073758443 -0.3697871123997309 0.46987115960752623
Ni 6.532677079763814 2.0657502039497353 7.10326622612767 -0.2143659831825276 -0.5460112944052145 -0.6206303645726859
Ni 3.5606712118070307 4.307262101624582 0.5657111547094223 -1.187337496764355 0.5497455646366661 -0.166279669198262
Ni 5.949872572683146 5.702856872730043 4.8223988548375 0.011881067708302119 -0.050853078096125326 -0.6626553028542201
Ni 5.330227226125076 2.8461382838558493 9.341787013599555 -0.5045064902932085 0.23266169616792187 -1.039508835182429
P 0.13818439979737432 5.757751263493026 12.6882260715938 -0.5166392690010005 -0.4231902106112195 -0.9462742067962994
P 3.9256464425382815 6.132781407383834 12.552887846314203 -0.5013951983577366 0.563317646894146 0.6670850564907995
P 2.2434322955035184 8.45297526515229 1.406846309515808 0.29549174412026524 0.876557973247084 0.1734661596443722
P 6.394354085217484 7.696175468009676 5.7527129367368595 -0.37775187577276237 0.23662350902914733 -0.3785648585923609
P 4.714975242524109 0.9678352132490882 12.610228932612678 -0.32887340490450456 0.9412597843008434 0.045604942323308556
P 4.009455502495233 5.978325259380593 8.226921794516782 0.02257505708703854 -0.3384731327777978 0.8780245304902814
P 4.715718037910671 0.9941863325113852 3.650445281057287 -0.48960874724576975 0.9791840701504426 0.8184245594394616
P 0.32795050410327314 5.571001633134995 3.8411344445081936 -0.463594325459879 -0.32857207161400187 -1.562999322777308
Ni 1.5567451360680817 1.179975763955081 2.6526745078817244 0.4300586555962787 0.15018842006335423 -1.0291961404025114
Ni 2.004859099212313 6.372206100825488 4.962443866493408 0.07049270670392375 -0.16640282503968762 0.6537546579304806
Ni 6.116612020005627 5.640797224030834 9.180370329315414 -0.5925665164569343 -0.04890238212765772 0.3961889994320274
Ni 8.56662295929625 2.416612322336311 10.161847613932332 0.6427814467484285 0.13950985730358553 0.43470618167061903
Ni 2.275698602417338 5.0443415871020125 7.043339849544746 0.6119402929978557 0.2932733963127078 0.29552568268199425
Ni 0.5619491678308963 9.004129441981165 9.006240067896641 -0.12559376144312565 -0.23441158897949305 0.4423906947990704
Ni 1.371924962019046 0.9415927957506783 11.292410273568436 -0.7176825669326931 1.3177711027982855 0.5849406244805604
Ni 4.009020695439685 6.949838215641195 1.660511839874704 0.6309744268111714 0.44535003453771044 -0.27649849084721406
Ni 5.722459424151015 7.7139119724839205 7.879495557717071 0.05042061854439704 1.0457733280349022 1.2048631643529444
Ni 5.3353724429490645 2.8084368887476745 4.759370854591665 0.7381022682396257 -0.5471130121098255 0.2674204398053459
Ni 0.7070143892823239 7.293616602414462 6.886763111297675 0.450595856317682 0.8829574490155244 -0.24053852781283733
Ni 5.278530478916438 4.555446345539472 6.9817168195971515 -0.6706596612159353 0.004435152953218168 0.6232881139105072
Ni 7.9376926704061574 7.394319728175533 9.09964296436466 0.33735110335821256 -0.7224455355389752 0.08310345348939882
Ni 4.6300972818889345 0.21786098103055132 10.600276249914222 -0.7675827941972458 0.13206599943103062 -1.5082186274920026
Ni 8.301716760703396 7.291107403364735 4.625876030057986 -0.43715387188016325 -0.03035855768719933 0.42616369141724675
Ni 7.318853528596916 6.013762034407787 6.907391988539349 0.34301498651220924 1.2434826764973552 -0.17147329758405952
Ni 2.4096282340065653 5.408447203722166 2.746355499695689 -1.5490513452376482 -1.3286227008008085 -1.0336654890277746
Ni 2.2746840526210588 5.221715690324782 11.381994114731889 0.287089378989183 -0.41802794968398976 0.7458312614527672
Ni 1.2322431954241266 3.2588245304532117 3.9645272517846313 -0.3884180972373569 0.83405352422597 -0.4746860644976663
Ni 3.737764502139759 2.8693642274063924 2.7358413215837096 -0.6095049440834858 -0.7850670670249382 -0.17713692362774008
Ni 1.0589725837880948 3.3694013997673604 8.261060489313557 -1.1355503368897346 -0.49431772268566476 -0.21148403364904222
Ni 3.969489487306077 2.597202186074074 7.185333340318331 -1.1704484343185002 -0.05087364692141561 -0.46497295097496055
Ni 4.2518151435618385 6.855032160571 6.285154104912571 -0.8004168100081313 -0.40360251828727906 -1.7160216127450318
Ni 0.8714321480977842 7.3967383424220206 11.290912000922859 -0.7047985118811734 -0.05164240676664009 0.15085664977497243
P 0.21186879629627514 5.691470362962869 8.1369792375325 -0.17259789810680598 -1.1850453582960687 0.30192335867822195
P 8.551857636368252 1.5942110106878344 8.02123722273765 -0.25618446188021043 0.5912022891195561 -0.12206157992015108
P 1.6988998677914322 3.1663102709049684 10.704841911685415 0.02885626211005998 -0.003741469320303234 -1.0608117104252635
P 3.991601237776777 6.104464597891245 3.863898405562216 0.9297620680738891 0.9667026498539802 0.8337470487291447
P 6.976180276423168 3.955014035748446 10.291629367381233 -0.29113603825473083 0.8101908586757594 0.8775231653738307
P 6.29948462078502 7.843665644643818 10.43907243991769 0.22013733844866606 -0.6974940077999601 -0.7718798789107029
P 2.5665301716972655 8.364790959198883 5.841316650329264 -0.8638297270471382 0.7752539375892584 -0.04796032992936256
P 6.83139858540588 3.9398954320878152 1.5411237867494734 1.119641378968962 0.4475789238682292 -0.3709759905015095
Ni 5.3309609630313135 2.863385630392602 0.3974879283098812 -0.045799317722301766 -0.40490555336941875 -0.3359557656725827
Ni 1.3977325724619072 0.9809337757974833 6.9875767505186985 0.891588128107329 0.09453149282068235 -0.273005132981975
Ni 6.892262514702329 0.7447828171448956 9.29324895847987 -0.7231317629727224 -0.6065214359751296 -0.47120813325139493
Ni 2.607248040753307 1.5562831535715618 9.260568679015249 0.7521332924113949 -0.2528260869309388 -0.32259065721958635
Ni 6.38991542985876 1.9800841555263793 2.537197000712332 0.3132650089432863 0.014854548514329255 0.4440140893351063
Ni 4.167770563116465 6.7177055988603 10.392973833549238 0.5109483892638104 0.8684343156986851 0.22307739491359646
Ni 7.9877498326761645 7.365993860202621 0.4499039188562392 0.23786509474573228 -0.39554416675917686 -1.213444221153736
Ni 7.625320034915937 4.006185391098296 8.044425120670832 1.0268867755430446 -0.783716723644631 0.9590027101065614
Ni 2.9134156172216383 8.502217164193144 12.447460723064205 0.9817271482872706 -1.0347787766966114 -0.319976616635507
Ni 0.037464968771720224 5.081571941233342 10.352099252783592 -0.3953227947769901 -0.7447177166736142 -0.33311623934125856
Ni 8.75999433877107 2.1112509506168093 5.733290649074332 -0.1120029101325684 1.3992138807558094 0.5795621337774663
Ni 3.7314779167949554 2.709255587681023 11.487859668429566 -0.6852231608524071 -0.6238262458021643 -0.3368733923908456
Ni 0.9283583559974243 3.5239934249754596 12.849601992716487 1.180303215625393 0.09008682678576743 -0.7414274759581165
Ni 3.232618346876097 8.494662391602992 7.974237297576966 -0.183495004635284 -0.5176168024229214 0.5841024448499812
Ni 5.618794175324022 8.135303418672574 3.6163056804124794 -0.4345346890897613 -1.1786528245061638 0.03658962619857569
Ni 2.7897401853590944 8.12548402600144 3.561629599025302 0.833017626762288 0.6994457322096922 -0.2338670293299327
Ni 3.1526138486551942 3.945049707392128 9.203943212662361 0.9283240500757819 1.1925745767935783 0.29047655029386105
Ni 7.164931830932788 6.130444319460262 11.578464400325526 0.4572668405799545 -0.05723301348054015 -0.42762922021917965
Ni 0.5308251352859235 9.261390283180628 0.2489333802376779 -0.12531273986759708 -1.0511258505960672 0.29643559609077336
Ni 4.72070020208883 0.4494836053692091 1.4733618246863547 -1.1487866330743508 -0.5274258180935433 0.4995715148854364
Ni 5.806703291163516 5.631593808021727 0.40513781494343565 0.6869709967814491 0.5559848606781586 0.2636149500163266
Ni 7.949504928748555 8.944923214583994 11.430332883284448 0.40394730322120753 0.03736070003664533 0.017113519751835043
Ni 0.08522671212764567 4.74929782447146 5.871743179889295 -0.06699034997762011 -0.5903309422581963 -0.08818395333609974
Ni 7.781207422810358 8.843350474711826 2.376748667974816 0.344486171741097 1.0043369152669863 0.949616640905971
P 8.548669051294231 1.7129586292541634 3.575099559266978 -0.23209322525896156 -0.4270062419232 -0.2479656735148439
P 1.8504573020910164 3.226413287854209 1.6036744050822385 0.251071051913045 0.05348460218170143 0.4058213803154688
P 4.832626784971243 0.9133303371400332 8.228286907501598 0.6867054018248884 0.28893928771372823 0.40786360755647827
P 8.593680640023813 1.8253200191921255 12.446969753430649 -1.200703633658616 -0.6394657521116341 -0.36867356762057796
P 6.123043541035615 7.8058011968898136 1.3763926045148054 0.29278925758743773 -0.8114787242492476 1.3309495491617722
P 1.9893328639371064 3.0388846281883195 6.063905252240872 -0.8902953774378345 0.7127406495463854 1.0051794657729398
P 6.944158548478095 3.886676860184757 5.810583944134286 1.1198753493566391 0.17891149902965964 -0.06416496471368305
P 2.391121758704787 8.525280055097857 10.096644672560721 0.8486067394497967 -1.0520149380692398 0.3686745960618425
