# total energy = -381167.4611087212 ev
CRYSTAL
PRIMVEC
9.27270157065205 0.00000000000000 0.00000000000000

0.00000000000000 9.27270157065205 0.00000000000000

0.00000000000000 0.00000000000000 13.57153604768752

PRIMCOORD
 96 1
Ni 5.528569976379669 3.2408740175346837 8.531895004427433 -1.0885937656345381 0.05928089714850436 0.022119200496542552
Ni 2.0285425025706925 0.4057483731297811 7.431256885849814 0.1958571257450627 0.4261459508054338 -0.6846755158790531
Ni 8.095967697606858 3.3469166297413824 9.497862900037093 -0.06705051379159421 -0.981403960619897 0.12921284625295165
Ni 7.594268193108481 8.194582876062457 8.773251365073156 0.7813312541315899 -0.7078663521732196 0.9060999485702588
Ni 5.68722589583198 6.623768728367531 11.117082403122138 -0.23986541300521275 0.15403016240694764 -0.8200988618180908
Ni 8.536550827756304 4.895031204623961 6.903364781954773 -1.8331299624249657 0.615629826034301 0.34957052824253987
Ni 1.4795058578733657 3.7332080937077046 9.613329358587414 -0.15516556156297148 -0.16501108689848357 1.1154599938977627
Ni 6.988714433913092 4.294725794371297 3.3377023464474167 -0.8967221068997847 -0.2876645347663626 -0.41707175641830757
Ni 0.30673261397749274 0.8887160937073154 9.207527203790022 -0.5802046524574717 0.16216101904419813 0.5168539561149679
Ni 0.9893045030021584 2.300260469123062 3.8559035502010426 -1.3222764468678068 -1.791656011550895 1.7700304628613195
Ni 3.4600621311532516 3.6297711105697434 12.611607255310929 -0.243037125864975 -0.8071001355655777 -0.7839242116697467
Ni 4.432777771507825 2.560053741787899 10.466340915891976 -0.7806090312535846 -0.6380462460562882 0.9503997989288987
Ni 6.19998773299585 4.762756120404955 12.477561085141287 0.3166969174429707 -1.1732565931912569 -0.3065639427740269
Ni 5.501178416703333 2.000436944893314 2.7407174905346627 -0.9334161198867086 0.49447893085387745 -0.6350560530797127
Ni 6.395178095618358 9.110809220022906 2.8314295456618463 0.02585424205894257 -0.6378343871557982 -0.14711646600624986
Ni 3.8897498372608257 8.604538273777598 3.6996279331755835 0.912716425445512 -0.675013824419573 0.07297099304108723
Ni 0.8786144128977685 1.9937884180524428 1.205762733354405 -0.2696470151430195 1.0358339574340032 0.08548866589212373
Ni 7.8933035377266885 2.2121419885529097 3.2123688064307476 -0.5378994639313575 0.14901548280117563 -0.6645910864243522
Ni 3.3666025746272537 1.7039608658372822 5.183974141133936 -0.5013196079247946 -0.7221773694792529 -0.05590812402152952
Ni 4.068388428040998 0.3348511534367086 1.4840884268618715 0.24087174278254003 -0.48163884166641563 -0.08444479800864167
Ni 6.3144685033966805 0.9644722088879979 9.284246752637046 0.4953837020563339 0.48874408525262925 -0.7190182550249811
Ni 5.417751922997171 5.323884367613434 5.8048037484710955 -0.8935678775415192 -0.816468464154355 0.7078874352191421
Ni 1.8042173124251475 3.919728480603275 2.6946284559323392 1.1688767189560063 1.4649158509393092 -0.7127427064289145
Ni 7.239439004694566 0.5330699803077925 5.044336532073015 0.35089310370870536 0.2726348941267498 -0.6592059108530389
P 6.878897832272314 6.420678024227 6.831218529394943 0.5474688527873475 1.41052390645199 0.8893438121578424
Ni 8.844914509894618 4.381425551640677 1.896296163725754 0.14516371315525323 -0.5463884752389752 0.19244989983572663
P 5.320156741685917 7.362200297367221 1.9460358608347044 -0.31687818021584135 0.8476099227541661 0.882466625422035
Ni 7.074996919623422 5.462418525218198 9.498310771510475 0.9917361957838404 0.24357268665347082 -0.007113471116329685
P 1.462054634003743 4.238820678159843 11.918115833220977 -0.6011205766745326 0.396772125629007 -1.6133849743187119
P 2.5808431381299255 1.804402766451392 9.41348873625682 0.08969190534019393 1.6414197689687409 -1.614353251769252
P 5.144031052961359 4.582160989647901 10.156449092577404 0.7375235129180201 0.8383696351028207 0.5132305004297677
Ni 7.7635784463685455 1.0514594198980574 0.5222283379335295 1.5682065780098604 3.4789085225830347 2.023749751030489
Ni 5.726032150823675 7.889789183929352 4.969108960867129 0.8090230636199034 -0.4029371167891383 -0.14344364514035296
Ni 3.545704800473038 4.704662646683814 8.418925684340495 1.0826848563492708 0.7167513133676753 1.2478928897499089
Ni 6.781228469350563 0.3280384997826109 12.410599199885125 -0.7952236958429659 -0.1201517644919479 -1.8760979813460592
Ni 3.0483820109940347 0.8934340441349796 12.870742166182596 -1.0108088961445754 0.3612901306723133 -0.17250585261363194
Ni 5.345471216268313 6.493060730670292 8.522599121361917 -0.4669131054204668 0.18530069038545505 -0.6019207039783246
Ni 7.386355684285588 5.966158024005265 4.695275891145441 0.763996105287252 1.0063626874477636 2.159365158375674
Ni 2.7192660233189425 7.335402190574866 0.26195659388098114 0.28096783947247744 0.2826138597163326 0.08525212440128543
Ni 4.411561830905436 1.1366199087496072 7.353410703793355 1.2618575794601172 1.419931315808819 0.6788977328550114
Ni 8.002860503730725 0.9657147508638373 7.285159913054794 -0.6470155394344341 1.2888621330734191 0.7386972215111471
Ni 9.245680660609338 7.759730275323969 10.502156724710476 -0.2370837364950175 -1.164769124545536 -0.9308270190032937
Ni 0.10299096620484276 2.8539705552817543 7.5701211516212945 1.1071198494631835 -0.32828642205278297 -0.7700713649470544
Ni 6.842678660946731 3.1583469758558085 1.1079431526713948 1.0232962299783086 -0.2949811230324339 -0.7161483896763537
Ni 8.669864454522282 2.9081138582438837 12.832837217758449 1.6020852330351762 0.8203780836214065 0.511661613280751
Ni 1.4175734858089604 4.6888248728425195 0.3368225297356894 0.32241093710861246 0.27983321164740194 0.928914375361613
Ni 9.069564244586092 7.785016931802429 4.290030098426782 -0.3075111371786446 1.5050176040562016 -0.7470160257894878
Ni 3.9661754414762513 3.998138442899519 4.343013386454752 0.27722482749027744 -0.3664004553156851 -0.07564031234313424
Ni 8.430832760095534 3.6364567282158635 4.938750136770878 0.7267436486936967 -0.3081721678014112 1.0626037693286796
Ni 0.9016274030144689 6.368908532800802 6.045915309802177 0.08309496884896657 0.8753840075436408 -0.05987816441287108
Ni 4.917508232604815 0.2262131121327159 10.935631402033966 1.1093718787221538 2.401714514145006 0.06858854770267542
Ni 3.4502794312688456 5.600377775341602 10.936011582787767 -1.6211489345348467 -1.0396772424394933 -0.4356209801754046
Ni 5.945340809559302 5.106458067244191 1.5492319353907031 -0.9083779459711582 1.6341947119752114 -1.059375492199369
Ni 7.938461593117264 5.682756453799482 0.13042147122669098 1.9161745376519708 -0.5328135647680178 0.31489843078165125
Ni 0.6004973551698274 9.19333626170178 12.047791779262164 -0.7237082043014826 1.342777909255268 0.9012652461857767
Ni 4.295736518814331 5.807149741903091 13.10193379164985 -2.1804415194299995 -0.7554690416528473 0.7569916489449608
P 7.032472311405521 2.9202889150668456 7.280084036356477 2.3967263169017947 -0.4328971534863384 -2.1523409045390416
Ni 3.2312953170791467 5.693308787892804 1.9276601486442517 0.5313878880650849 0.9120168282753262 -1.1647056182974522
P 4.705107736346801 8.889710929934017 13.047783070526672 2.137654249061144 0.826849550278363 1.8815520624820952
Ni 2.6868579322326878 2.8274228114248303 7.352881232548426 -0.4007362524830776 -0.14061568877325462 0.19956259962110792
P 8.43451402251649 1.6758274900559669 10.897943434820524 0.09535861670766803 -0.38723898932759115 0.8552800377049141
P 1.7285613424186368 7.493195748805139 2.7798306719397936 1.9855169328015352 1.575989564389389 2.51255811386215
P 3.321259065210433 2.3393727232580614 3.0918533620159154 -0.06743309394199355 -0.3506655610789316 -1.0557304392476141
Ni 2.0081054688785307 8.169045856648568 5.135808021437671 0.3962471063634724 1.2681601246393772 0.6477069090745039
Ni 0.7256222594069708 6.802843136109378 12.54735948972886 0.05607036063100666 -0.4376243837586785 0.6246235448924791
Ni 3.1851358099468503 7.166843026121091 7.555721573753527 -0.8883824766858377 -0.7448871523719429 -1.5158470905715378
Ni 4.138184050818177 8.700056369994911 8.960945675954855 1.7152109439182783 0.48975118636090487 -0.486854067318768
Ni 1.3215732091234103 9.051065205468188 0.7046001182620069 -0.9613604117054604 -0.27729219039310304 0.6442204931878002
Ni 5.990165047702638 8.465865025653152 7.206471769719182 -0.352495929419451 0.8164990602819745 -0.06559269829914509
Ni 0.3064303239147139 5.640732571452442 3.979147023341934 0.5867316549427122 -1.5264732028268162 -1.554526766529923
Ni 6.698617973359877 2.7057927883122677 11.74231005269169 -0.9553774546491481 -0.8895752114423583 -1.4170313685532048
Ni 4.16248780095754 3.686028589431062 1.1977678102829976 -0.36813646417018536 -0.9440864551163612 1.2553051230535799
Ni 8.497355119309494 8.303351662454952 6.483203849175388 0.3497476772503525 -2.268731145106028 -0.22944884565757903
Ni 2.3091344442788686 9.268241142902001 10.286640600811552 -1.368542934034514 0.4329488326598802 1.4849043782460942
Ni 1.3491131320207428 5.105400979294595 7.833246105867616 0.9806423998635241 -0.28464271722090334 -0.5578149719083619
Ni 2.080534538828384 0.4878637068703933 2.9434892137500532 -0.8752436253110346 -0.3779755617477942 -0.5091779276269489
Ni 3.7263277493340277 7.865262888958495 11.620274812531784 -2.2432764524783493 -2.519626847783474 1.3707592249595424
Ni 5.237778063228037 1.9633183215404444 13.566026001436205 -0.2894229122183661 -0.8579673547290901 -0.7453653775599421
Ni 5.186240389334644 5.986437421775119 3.59926670506289 -0.16063661197987172 0.41756000890863576 -0.4458994792832772
Ni 7.536452900426706 7.527245108023659 12.135354825023715 2.676162293110778 -0.14167369772412375 -1.452680228105066
Ni 2.807171231758913 6.0533306890415695 4.110926945310868 -0.6606894373771008 0.3745994461867097 1.3665531572979948
Ni 0.5549034828175768 6.699035244918927 1.4490468886029422 -1.2642772446452033 -1.0671325104369687 -1.6642527077028564
Ni 6.172642536826074 2.7537697449017626 4.858039617279069 -0.4286790016399327 -0.017977153303710972 1.9007018959376685
Ni 7.7327096237001225 8.300171125904855 0.9333316960711253 0.9740284940914323 -2.4380061494871885 -0.2612351369302404
Ni 1.5099574089827397 2.1145468072416556 11.50780714558584 -0.25516090571170247 -0.07989831628853983 -0.45750029674699916
Ni 8.82370784199354 0.37468204192340626 2.6734839151300536 1.1410548116477315 -1.544697696254643 -0.44804532198168645
Ni 0.901528185110428 7.858076545441515 8.336275315734168 -0.040807520934665206 -0.9757989557282936 -0.15948218666045438
Ni 1.5928739041167286 4.053802468876855 5.375807785881415 0.3003390449102376 0.14134742473295658 0.3196763117862688
P 2.773956415658494 7.3249240380920435 9.81899231007196 -0.9747404325567922 -2.3794569882983856 -2.2098096881794715
Ni 8.6653301035806 5.155139749133415 11.313273290216237 0.6105940633826065 -0.033788152194038586 -0.33924497794681574
P 4.012817129076784 8.890721654377051 6.0131808196297305 -0.3020046055381186 -0.896730848650533 -0.7675575973862652
Ni 6.086462050830179 6.892204158655369 -0.013414816988407748 -1.4990171634983924 2.124554478454393 1.2070689137550115
P 3.330031040651806 5.141073061242757 6.326032489203167 -1.0442399221095113 -0.0073932071402775905 -0.4673671622387499
P 0.6414381860035993 0.6944863829407542 5.631033325879846 -0.5027604541363793 -0.028108071090125784 -0.06550168124723559
P 9.142076768847756 5.970488375518078 8.976091706278257 -0.8129054293934451 0.222624623646894 1.3612703116325007
Ni 7.729056179383102 6.637900325167374 2.5714536007811586 -0.9927335267001032 -0.1072150018256218 -0.507278653721707
