# total energy = -340868.56382474635 ev
CRYSTAL
PRIMVEC
9.22068493604234 0.00000000000000 0.00000000000000

0.00000000000000 9.22068493604234 0.00000000000000

0.00000000000000 0.00000000000000 13.49540444501160

PRIMCOORD
 96 1
Ni 9.135043059945312 5.447451478545583 0.20618649857512084 -0.17219577757238086 0.3547106776825827 0.38561816589471654
Ni 1.3663302914123947 3.177567844153431 9.321370047640874 0.010384685668433728 -0.20688612986571464 0.8031555490955329
Ni 7.309006308132082 7.742350830746372 7.607265032511248 -1.851950180455262 -2.458572146563998 -1.708553843613077
Ni 8.658315215440258 7.87676075278711 12.987666457540769 -0.5920163003804192 -0.28456198458163895 -0.5150094467070614
Ni 5.305102546909107 5.306651621952178 10.18697842861322 -1.9278226634138604 0.02308747794708282 -0.7159126195164638
Ni 3.5649288117689464 8.455174309048031 11.965645756505213 0.9009533713723128 2.1391483171081673 2.56635561929858
Ni 7.319056854542482 4.026036816256371 0.2378484859733155 0.22015430772953054 2.075762139542038 -0.22954166248170146
Ni 2.3507029364904617 0.4620761763893437 4.713539372083167 -1.2514631235996707 -0.6220825236381802 -1.0815584560543117
Ni 8.620962221395732 4.608618122037935 3.7255411537495315 -0.6088500841083062 -0.5950440314631493 0.3431934210716025
Ni 6.453584939704884 3.7500801621550344 8.059104404657631 1.3551348881587242 0.19483974022414188 2.4073352027658927
Ni 4.272072348246011 1.544280286985159 5.5586898197337185 0.5373214799407005 1.1145670497698483 -0.3422338853718106
Ni 0.16561732967926876 0.4894090522832421 11.560446452113954 -1.5453168178958805 0.0874658442231526 -0.03590108477198333
Ni 1.7517641359088518 8.00826615912209 10.553851034647167 -1.3509385906891895 0.5867563375330604 -0.3702139155245044
Ni 2.8269420847021673 6.990892683215746 8.248161637116606 -0.01148743181430925 -1.389793101662542 0.44096013300013087
Ni 5.642976099309377 3.557377070933976 11.902919282082578 -2.5117063073848165 1.7949940747851925 1.6536481927141327
Ni 2.234955680444816 1.5145159165147264 11.327030349314473 0.8101093547055467 -0.2921603657541872 -1.4381192995717555
Ni 1.8636018216076995 4.6389449542799595 7.629734919252078 1.2546561766156714 0.3854561863955555 -0.6304769183494625
Ni 1.5551514743409958 5.971038843103532 1.9729877272234961 -1.0769392121147454 -0.18969830523251846 0.17175946136591064
Ni 2.2613360596009215 4.358543930114574 0.4603657393626196 -0.363378894880542 -0.3828591150923406 0.5894549674111461
Ni 3.9923167720152395 4.107188063006768 3.8304541051784615 -1.852791702519951 -0.7839270398832241 1.808350955708073
Ni 5.620828014467377 1.812021310947352 2.8597299177120226 -0.4644463890475292 -0.9699234707841231 0.46677735117355096
Ni 5.124561538913112 8.432574410651801 2.437580228489352 1.1142137801954877 -0.3442491160296265 1.6350007528162747
Ni 8.265504823119652 2.2388468094220535 9.418078433752395 -1.6344006573384304 0.8239508885743294 0.4350815627321668
Ni 6.3574500801866884 7.516250419251489 4.994109134780029 -0.517915821720579 -0.3639504511132958 -0.728579416350855
P 7.951153237593632 6.014403723624735 5.962337282876472 0.03752293664612247 1.2767807764288528 -1.6167081251546735
P 4.606220743995087 9.051282359402125 4.417288912849124 0.5658967204752318 -0.44617407310090257 0.013165333737364423
P 1.9837012408695915 4.011375927455879 2.9214310519870996 -0.4440220597549063 0.0012374719515269013 0.2548215200944127
P 4.799652269313779 6.295136692442207 3.725756917773388 0.13904654451392184 0.5009359993331308 0.6527987217751144
P 3.13633294181645 0.8488082933028507 2.0063887357712336 1.316624905008984 -0.33550916505346734 0.3475306149943757
P 2.9834078847371037 5.122247147033286 9.634665864759564 -0.12369885841325795 -0.5731354043155161 0.012956817270984137
P 5.571211509665208 7.430267533676277 12.937666372251746 -0.45505492053030017 0.8475032219729727 -1.193635671068241
P 7.1260863634627984 0.25499711552750104 1.2700783291974918 -1.1592798192961904 1.2398337668908583 -0.7668945098809695
Ni 6.001218144389072 7.995172786734228 10.731896003273167 -0.4781385418226411 -1.6530720084956887 -0.5841230136752714
Ni 5.828136670380245 1.975043017860999 10.329922094418016 0.6770519378955243 -2.0091553981560817 -1.2888163674371482
Ni 4.502727778022306 6.739693567749202 6.351450180600223 -1.563936746989913 1.4383226738318133 0.01153833965690271
Ni 0.637862077244199 6.8335878008658115 3.980456205182489 -0.2285684999351547 1.3506884223515963 -0.6534042165695972
Ni 8.150965476780211 0.5052547990779876 7.343334917568706 0.662619050299646 1.3888762462752275 0.28820549487149716
Ni 4.769436085289118 0.36941198262241 0.5966806548789427 -0.5904852084478733 0.5483132030655138 -1.2633894427236114
Ni 5.934884538080432 5.096143388420585 5.607313256785061 0.4409102535988019 -1.0744215878992143 -0.37155680270564395
Ni 0.7639715388458148 8.181310750391797 1.3972463254118725 0.5223975116410164 -0.4054079469271341 1.205082222342286
Ni 7.8057614799796955 8.257150882708807 2.8944264324713758 -1.1903099491291176 -0.8668425457315329 -0.05645036967824472
Ni 9.152184312951674 4.09428832499929 11.202804673613448 0.48318638865919367 0.5752395951427125 -0.17580483507987787
Ni 5.006057298118191 9.07862168977537 8.583144504838288 -0.24082803402879818 0.10406899999747239 2.3114723927282963
Ni 8.025315205280648 1.481515085686449 3.0776939969568717 1.4019485060781531 0.11597372185485832 -2.113852518655856
Ni 4.404241643885165 2.2063992196805873 8.078403297902556 0.8196232077332529 -0.36696789778338096 -0.3283216461660926
Ni 5.676318095474522 0.025381778994411554 6.491896884966546 -1.6066057466133492 -2.326401246123987 0.9538880145878154
Ni 0.24495210152796898 2.6217726276583004 7.245560620296594 -0.32524634967487853 0.6276296787086546 0.8846752030375795
Ni 2.408083257877544 4.157957153406459 11.695211370518727 -0.8618918865944768 -0.16283181985897763 -1.01797250377255
Ni 8.702131909515689 5.067660693134598 7.591124223803536 0.0829324751291733 -0.7884904908841904 0.9584085281659881
Ni 4.573662506036259 4.769482188713019 7.775633814528923 -2.3043900319602186 0.8295448377223391 0.25907052517875384
Ni 3.782915020657269 5.515730649342843 1.733754294396197 0.1915070763064831 -2.797200059752105 2.319430471233109
Ni 0.7129092306701138 7.323086293791421 6.9228587826336385 0.42841263535242347 -0.18634173005545973 -0.14477393391600227
Ni 0.8982892540387502 5.147687016341812 5.511968609952527 0.25886252293300577 -0.8301986692562541 0.6326060488773235
Ni 3.0343245060932778 7.5519344693508 3.251218063835148 -0.3517415677519297 0.33794759929163093 0.7927292115558864
Ni 4.000099029969714 5.765952372222687 12.528835962194051 0.9598257202284889 -0.08835338903442848 -0.05746878364043005
Ni 2.766260758163779 8.951127281319769 7.191687847399892 -0.2537555407237436 1.3179649639766464 -0.6355229654138023
P 3.136932286327162 0.6411935106552794 9.261153443615406 -1.4079340342376268 0.621835954845013 0.36686222544345204
P 6.956296673920495 4.0535236775860986 10.376427540175351 2.234293275143133 -1.8943296738627375 -1.7370336962203246
P 5.3898314193542145 7.027425036314832 8.35694819822169 -0.010726899499200882 -1.8338928087329192 0.9088772542050798
P 1.6859284465783406 8.88495964733717 13.021392034192768 -0.6313629204988416 -0.11555540337051712 -0.5700685924647343
P 9.124697451621946 6.27720246054475 11.516586420820053 1.0876152037713527 0.8983732693499624 -0.7443719032984212
P 5.264614520039322 4.4821564302777155 0.4331361351382592 -0.34502713184623157 0.41190589594665195 -0.16877441059565773
P 7.458916201288307 0.18320486382899107 10.253592343739177 1.6457119685861916 1.4150310502937242 -0.09046735005363775
P 3.828077934710608 3.539599590677782 6.104862329592249 0.754684340968023 2.800460475670932 -0.6610635328870679
Ni 7.025101423750227 0.7850970497456937 5.0683208941648585 0.18962554301305407 2.2417301910371523 -1.7107421095136475
Ni 0.8827809843069593 2.5882277764279924 4.752245040584944 -0.29556424922941354 0.16685636763733847 0.025877896208026403
Ni 3.8298022027645025 7.068189683728025 10.402743374537994 0.44713489435227516 -1.6423996163835068 -1.9562096991969857
Ni 8.89645784125806 7.827273337571865 9.023162037027998 1.2067866066279023 1.0206233111318357 2.319231724958741
Ni 5.961117386280054 4.6429467314745585 3.136602185812031 2.86870680954284 -0.7242687047906431 -2.068690063186605
Ni 3.713003788653916 3.0716682794530215 10.12353735112012 0.35018450767745496 0.40708019242323445 0.070895084348665
Ni 3.5998291036619414 7.411614088365965 0.8589445920817066 -1.2313403847078666 2.8066118399843085 -1.6846150734092924
Ni 8.874088459981335 3.3515437245859365 1.6138881584592435 0.9973121472097212 0.0851770481889759 0.4520127912698667
Ni 2.4126474968437353 2.2981450332434146 6.8766235029403635 -0.6818251909144515 -0.8778494383649978 0.5616163479323231
Ni 7.362292645476763 5.995934692010028 9.395338380947507 0.5491308138708028 0.36440579348315955 -0.49312781614262174
Ni 7.71909626373075 2.5024200838636035 11.995336361497404 0.79379621936782 -1.7398058596488228 0.1629531759281903
Ni 4.121775186329018 3.0262840689649577 1.5292450383825917 -1.9698154629058786 0.4405027337477382 1.6219246363586068
Ni 5.7729508719708456 6.447121239673974 1.3250409870352102 2.864061854571661 -0.10912096059908304 0.25524318101286364
Ni 1.7334610766201872 6.576238488650886 12.706111925709383 0.37012135581069805 0.8783914269113969 0.13547065423720542
Ni 9.113586526461825 1.0366354864121479 0.4367607863253494 -0.254434054848007 0.6770617080875372 -0.30514777915279057
Ni 7.620268964256741 3.2834674088538405 6.18812880143122 0.2533259093854927 0.3131536801764026 -2.810482121572992
Ni 6.5885942062563325 0.24783448759025437 12.437810284112556 0.6760152691008938 0.36400444427968276 0.7471342965349068
Ni 0.7056599282959334 0.8013872335468442 9.313947396392827 2.096348191223506 -0.9690037871833312 -1.2472179751700714
Ni 1.3154597734801217 1.9170080278545232 2.4159604888852555 0.5799182315653044 -0.3805317525107446 0.23384903160780374
Ni 8.557182744771204 8.395664009476725 5.2639497086666704 1.2029718608675024 -0.0837624272296364 0.5141152170275662
Ni 5.956175099237876 2.373809972549602 0.4054501070172798 0.5086192269100014 -2.6255683822133107 0.09135078109985557
Ni 0.7857498742281306 5.745510114065019 9.511358569262645 0.41641381111933445 0.6367663509026001 0.6379783689328303
Ni 2.6763406401874277 1.9214339565490115 0.06798964129516223 -0.4231249045909229 -0.6287241973244139 -0.25094918162320007
Ni 7.133555118134747 5.697682422110208 11.843566656221014 -0.6177484150392006 0.7397017515162616 1.306947272709904
P 4.590610124662237 1.6180181031722878 12.214123847893125 -0.4926395636522935 -0.30324310593091003 -0.39924758375269304
P 0.3795740993186504 9.28753474483999 3.34439031733347 1.9738286978303294 -0.3767771705643188 1.062066665878287
P 6.98011370270771 2.9523249563431047 4.085666062661341 -0.02602496330885195 1.4041848516078397 1.037676924180013
P 8.34917331681504 6.243334885347135 2.3538278265624655 0.34499525016703164 -0.8212021221845986 -1.5315565308869947
P 0.9084965520904135 0.7411153054126955 6.413110743862267 -0.29991841243305123 -0.8169574879756316 -0.43125781811070246
P 0.7172660042287506 3.1654057609283686 13.122742113022637 -1.1509283620077015 -0.8392918898067739 -0.3759083948061203
P 6.4205933295613855 1.8313017628227162 7.2115934617033535 0.11493036819200853 -0.09436617088741167 0.41263300392066354
P 2.3779592807006846 6.9181691423544365 5.431873131609462 0.03215935834136397 -0.1045953048145876 0.7719420996072061
