# total energy = -340864.425751642 ev
CRYSTAL
PRIMVEC
9.29896306236785 0.00000000000000 0.00000000000000
0.00000000000000 9.29896306236785 0.00000000000000
0.00000000000000 0.00000000000000 13.60997239536945
PRIMCOORD
 96 1
Ni 6.645922210878972 2.2314349047576707 3.3840785383738177 -0.15657272632314326 1.6254825289131942 3.4107084685680293
Ni 8.03421086054516 2.8956970126665387 6.094967034664518 -1.8183222079881718 -1.0019771567855582 2.534217858223771
Ni 3.1755306998925317 1.5814746016191337 1.6085764286692836 0.7707380519967758 0.3327665693113237 -0.8451192951218285
Ni 4.5635496796378225 2.480024077010768 10.314085922266166 2.2307096715569323 -0.4201092576930507 0.46559824326378524
Ni 6.527676600047027 2.9927130914499362 7.9794176522040035 -0.9820264246952443 1.1997361275390241 0.6907248073969265
Ni 5.9078728332350074 0.743248427739603 9.452085090222587 1.6973662024273735 1.151736459731294 -0.7244376262683395
Ni 1.737027651162762 7.123070589536472 8.149841603040683 -0.3016441368749063 -0.832035979575309 -1.3520580490056133
Ni 0.7254027882501735 7.7701389152474585 5.769199260946975 -0.013349938944344749 -0.43951157347906245 0.22468382016876787
Ni 7.4275837240059355 7.210889994121002 11.489388338511615 -0.3826961071519151 -1.3675934256370512 0.16161054585736684
Ni 8.614094180101633 3.310412155154985 2.2169285228059694 0.1169222018110567 -0.12927146740502898 -0.4169655698577464
Ni 1.3882979486289775 4.543807981635603 13.73518363150519 -1.4425511100908641 -1.055920186660917 -0.9460191533626998
Ni 8.197426255427379 5.91634418833629 8.17304716468201 -1.8623343519030637 2.0568357349511803 3.003564512786395
Ni 2.5710423247949046 6.863248270233595 10.705509022759342 0.6414352171331792 -1.1226192306503633 0.43479488472968353
Ni 6.746676472703769 -0.03231296579741476 11.492300773657302 -0.3106319421958134 2.628957610400517 1.006775092394834
Ni 4.934782872122323 4.527395312312044 11.592660759459822 0.7988589786027082 0.8056232939097352 -0.09162023271115835
Ni 5.357671802902786 6.886802542979531 9.911993191868257 0.09250777752243423 1.063146272095711 -0.01788716469306597
Ni 1.9932419729032924 3.5035423133311943 2.445997312371239 0.5134860680839994 1.8492885744626988 -0.36148090652688064
Ni 4.294595778875606 8.8379667092601 0.7547038200000523 -1.0928486842561502 -1.0274570462242176 -1.4740149850271
Ni 4.51439536233225 1.2806624543399114 7.74282228215687 0.7908047408396638 -0.6441819266403809 0.14172871933177525
Ni 4.0699328378800255 9.052410090149962 10.407177838752373 -0.051551646825046704 -0.5866231543893059 0.4518137878851831
Ni 0.7572554553895054 5.289733580762318 9.423885055666991 0.778632110032872 -1.139173792574935 0.858113393388651
Ni 5.436536306320979 6.013239380603424 4.548575559857807 -1.0668700008042011 1.3264866282944123 -0.4811986688052035
Ni 9.007970346978691 0.4636453547907911 10.231963062286516 -1.2741957893104958 0.16412097098404638 0.8037792987224608
Ni 8.133198319439943 0.49210390051193653 2.5300934122548324 0.4659450850802427 -1.2158703140967253 0.9890193110733095
P 5.178397099283011 3.020544887079066 1.9073827896747995 -1.0694277342290484 -0.45395680237011493 -0.05403816069232629
P 5.96346203279095 0.40203228713977646 13.367932254887176 -1.6230937169660433 3.4368499028500876 0.43792057484285873
P 3.4289088379822483 2.6599125121746545 12.07212643964448 -0.5321715603086448 -0.2103002977535862 1.4542905100149792
P 0.74065215732876 2.3263959127645775 0.6761694297608897 0.044818441866271194 -0.45633095902924636 0.4087123287100187
P 3.3922802235542027 0.06083846405064492 3.161296777550564 -1.2121270450042092 -1.2932407217570887 0.08281060483932835
P 8.954315331682977 7.794660280123507 1.1069503902608455 2.80390678234832 0.7235400541547345 1.643731447821053
P 7.379154725797949 2.1001893439459316 10.634518881031344 -0.6056102370147699 -0.30331509681942603 -0.4070948477112537
P 7.219789101510604 4.851148000793091 3.3545859479904743 0.12109921600688177 0.4253198553597127 0.14449008412699632
Ni 0.08195640854571785 6.338805366828434 12.361815167634838 -1.262425021927813 -4.078945636385401 -0.37080886879602587
Ni 1.7860982778032286 8.756489197298045 9.80352172082441 1.1132755846519344 1.4205653498483923 -0.1337590708627374
Ni 1.2418764805446894 1.8483734316048595 11.511068870255455 0.12153090422766165 1.8192655457380473 -0.10847021438896158
Ni 6.084162569799338 4.108848997154301 5.5352438664357955 0.5403026740562115 -1.5726417309630787 -0.8567478804996923
Ni 7.29545476172919 0.4993226853254658 5.904183004800113 -0.5791165615996156 -0.6130294122969765 -0.17595935837987114
Ni 1.61041297382022 -0.10863606268522191 1.2107677304285216 -0.4279074135812308 0.7398992122390483 0.03713984227509087
Ni 2.581252585937833 0.2339479553409477 12.341903298613571 0.4838847002777989 -1.1717391281054659 0.8682833919431175
Ni 8.859512406043493 8.442918873071557 7.958118377934534 0.4204848958649145 1.2400337987168062 -0.22567420910649522
Ni 1.19473073920166 5.491623361886284 3.6858252314133897 0.73686736739126 1.2581603331141882 0.38217674431333537
Ni 3.476612517092651 3.709756112152302 0.4789374990982096 2.1893208241975004 -0.544754796290294 -0.06502859826555897
Ni 7.42562164285734 5.020677391409417 10.473635666016744 1.6376757285452763 -0.524406057430613 1.3151076970335094
Ni 9.078735453807184 5.655666364456774 1.4240115451185316 -0.5362891820214442 0.6867892197879462 1.0219528285765367
Ni 2.777051546434643 7.454513520244479 4.45134560493025 -0.011348335133283682 0.06499800213793967 0.060062769619851394
Ni 0.7232417092978816 1.4012142079436656 6.663877578129319 0.32142491904625936 0.026265104344116056 -0.16484087986920642
Ni 1.6161504338613737 1.5408381342287907 9.130018303695286 0.03471452066304989 0.9491762109344427 -1.6116615638697018
Ni 4.1234762656222665 7.142384535250372 2.4569672987740736 -2.4962040979841587 0.11184735839131062 0.19443581991750386
Ni 0.5967367597162563 8.032611438945358 3.1758050192948235 0.8076830046522413 0.34779106774461394 -0.7021289354688102
Ni 1.1054327995335906 1.5145406674599373 2.8586927201417947 -2.544346462017341 0.5527573548797965 -1.4326065972836426
Ni 2.5337069891948527 3.8052006662242657 10.35286073730604 -0.8781960230711392 0.9525371569868757 1.0326051660840603
Ni 9.173315204339719 3.077993879192919 9.635315572613038 -0.6937759355184244 -0.21218054549543458 1.0382428239858121
Ni 2.5931645572712494 9.141959101813349 6.689192144531316 0.04121195546193548 -0.18809393685987605 0.6548980275063044
Ni 4.796553790255631 8.898977204122351 5.237280921355291 0.11948173500811682 0.7849709077667062 -0.5672416645389005
Ni 4.016965945830736 2.1917004367579143 3.8211353688604426 0.39139466336717754 0.464262298061181 -0.028970419090421074
Ni 8.233171468390418 1.4415624074875322 8.177360953520083 -0.45375445655132174 -0.3459869246563396 0.10486861308063229
P 3.522056548245192 5.035899793495913 3.6722561849108755 -0.09987398807951832 0.23372716131795873 0.6396264460592145
P 1.917836683642814 5.5972502802128075 6.022086413801403 -0.34723956611651813 1.0655543673165715 -0.5172815305706897
P 7.032526588854602 5.425293860308409 12.759634094734668 -0.42900887417552563 0.7692920635788687 -1.7943471852298132
P 4.104431989829264 7.603250430063365 12.413982348884227 -0.9518784403569542 0.2410254947515849 -0.541213615906255
P 3.352090106377758 2.7184773798232538 8.730143375922685 -1.3921454039448025 0.9561264170000308 -2.9359226452677047
P 7.802824769452735 7.451389068747189 6.471432753510699 -1.0159750137265469 -0.5917165097518132 -0.9860489155910761
P 7.219091679301388 8.405369661327345 9.595234253301232 0.48057414784732716 -1.6930770881337165 -1.671244051419025
P 2.5409787780962825 5.69708394472144 1.5120950402462852 0.4083148361612839 0.4906454160404002 0.026345065652432043
Ni 5.672553280882601 8.458727109813795 7.5537790181266695 0.9958885273893171 -0.8778787489410365 0.47745719948490034
Ni 8.967482662992982 3.8790623276616785 4.450106983086681 0.13253908241270723 0.40908770977156644 -2.7497837752516707
Ni 3.5954160656919694 5.512592522976725 8.559964917703649 0.5546337459669028 -0.20874992254733082 1.6593205605085617
Ni 8.683529535251218 5.409467025640592 6.145651031348972 0.9306056470211069 0.4003310466248589 -2.7821809606354537
Ni 1.8817381100937727 3.416773691541883 4.994777920247955 -0.13861897005819998 0.8903092613949054 -0.6834354728243649
Ni 6.0461298119900695 5.893059585511251 6.923937020983329 0.2655453342698201 0.6992289882131958 1.033026055671563
Ni 8.450637012186885 3.8167220811205205 13.447795466908964 -0.29950677881692933 -0.7459266493800508 -1.1331532974124676
Ni 1.5706227120437264 7.240349108238303 0.09599598256538369 1.5355787646725103 -0.04102760736527128 0.598190290401615
Ni 6.22903111109777 6.722145808864931 2.4085568984916654 3.489378054655791 0.18179524833535787 0.9894157751807798
Ni 6.889378355672236 1.954400205331333 1.218629073570809 -0.0598496251677808 -0.132530597772275 -3.176406922803839
Ni 7.121508363787828 8.271790060855427 0.4814128829927884 -0.9257177228011864 -1.6119207310683592 0.17559708994444595
Ni 6.01723793460293 2.4255414540267823 12.396915032580283 0.40503590829969593 -0.31574226683918527 -0.17479027777243447
Ni 3.2884852008972216 2.09835744827639 6.105460914172528 0.1961854556187589 0.05321463634976642 0.1685008452192969
Ni 3.871037322774295 4.651155208078193 6.465961243805327 0.12565598213962875 -1.3703635321830205 -1.3105375611643235
Ni 9.141196586864606 0.5902702609924018 12.942756709156761 -0.029652532759110218 -0.4938852631339365 0.5819051800883462
Ni 3.1723783515068735 5.6369382533986165 12.767187642208624 0.4027406845076161 0.7161162508868376 -0.46735096428883377
Ni 1.853283283957743 0.679091163869367 4.602252892664217 0.9821315828145408 -1.4074354973346537 2.1767563572689284
Ni 5.398020002446653 0.40097499507060447 2.568351204963608 1.098941170307133 -0.38653322150981817 0.07292445607386795
Ni 5.226007788765518 6.287019443053418 0.4847949157593485 -2.305082430041553 2.198938806903239 -2.980668839135144
Ni 1.7542679281745917 3.9186294143312224 7.52568871133199 0.25427618911390404 -0.4623900207391327 0.43327613409231186
Ni 9.341366059872504 7.3543915878893715 9.89035264566441 -1.7757218568191417 -1.4137257012187394 -0.008006415244244275
Ni 3.888640259334917 6.985092579665097 6.573140159021427 -0.26786421221098383 -0.013485693191260644 -0.3647328378052751
Ni 6.534539234585717 4.735766470500328 1.0058111513765606 1.0517652839522789 -3.457260091075323 3.0197357232296183
Ni 8.267056888795546 6.908087868804816 4.222425598769613 -1.766546360967461 -0.6459549593804037 0.07339599639364779
P 3.6007722682587513 8.177303299950788 8.352943039016129 0.9172456807744332 0.17538908769869793 1.5140277779746119
P 0.33831858379460206 4.098238880611422 11.556512901407997 1.1561435876600539 0.3911074711440619 -0.5839432935642976
P 6.548571369435151 8.393457689993928 3.922815807379079 0.4618899411742626 -0.18327208999120048 0.17408245307213244
P 8.856750614094995 4.022619715206784 7.692464679066329 0.25097052177943874 -1.8543793587220452 1.2772613156096972
P 0.662582715229075 8.132101041830776 11.69197275215596 1.4677486924024141 3.11542549802446 0.8864158398777702
P 8.917965686138617 1.6178149482007034 4.743945838170019 1.3925323549705761 -1.1447165767700351 -2.1993136737441543
P 5.693429452345145 4.85303569023937 9.42674262693222 -1.8866132790550862 -1.0458910845596892 -1.7988255327161409
P 5.557692492506053 1.9935488386753475 5.605348746906229 -0.410120521911455 -0.14739517358893325 0.43889836537509574
