# total energy = -381166.17914369196 ev
CRYSTAL
PRIMVEC
9.27783951075924 0.00000000000000 0.00000000000000

0.00000000000000 9.27783951075924 0.00000000000000

0.00000000000000 0.00000000000000 13.57905594239112

PRIMCOORD
 96 1
Ni 8.431079034060684 7.890802599298817 5.528766687537632 -1.8853724646694499 1.2414414776976104 2.5052284129699567
Ni 6.944360901524481 2.3515333973080303 12.304716244226757 0.18317618784328454 0.31618141125913285 -2.5508518672360263
Ni 5.097040976364004 4.202249011770499 2.149360921868806 0.7495009969948704 0.3498690333195652 -0.5316830507080005
Ni 5.856896041481667 9.112647688440095 11.27439174285362 0.4708921446728729 0.20466186852088622 -0.6328441330300585
Ni 3.081597319396478 4.974174546237591 10.52587326997121 -0.234729377330228 1.2545258216853943 0.8747340326644677
Ni 9.302425897927053 2.829620473077423 9.342091445666949 -0.04321458771426106 0.76817491925529 -2.8674356561399006
Ni 9.065349262042416 5.756648984355949 5.177544790772134 0.8900688632493251 -0.8927111859681787 -0.5195165905487955
Ni 5.6603913982680885 4.914545870981042 7.336587138287465 -0.2931389276173726 0.35559770827322634 -1.433099220649345
Ni 5.922805814162936 8.953495627548417 6.2565640334062 -0.41702830477488173 0.009847839328357233 0.16456242939683918
Ni 5.197714814112376 8.257370042800634 3.890833685907167 -0.147510616120875 -2.5857155118824307 -0.45887146606291296
Ni -0.003014370093488754 2.544800074493208 1.9424029367520759 -0.20670332443094724 0.17040808954433878 0.9408167832261538
Ni 5.844268901754864 0.8923342648773906 -0.0644383073170723 1.3875693545383458 0.8620613222928056 0.8723120534865364
Ni 2.1870465786331703 7.079687470264484 9.454023941797743 0.24804512060252765 0.05388723693675881 0.5775289053975216
Ni 3.056083260433431 8.173618984524477 7.668391444506139 0.8051689799811359 0.12270152749699514 -0.04803103526629793
Ni 4.157028821448357 3.07865624423601 13.636359926385555 1.741437224604659 0.22154681720168298 0.267622528513823
Ni 1.710750125911003 7.189592758437669 5.899054544728244 -0.6941639149854626 -0.09172384816855816 1.1906634758137946
Ni 0.5123093150025181 0.7747951702624619 5.404993812480059 1.7941687506704198 -1.3170936171152865 -1.1060834377788693
Ni 5.243955566793041 3.7020528441796743 4.433141039762492 -0.15300557779717522 -0.8344718427103113 0.6990749791338347
Ni 0.8340694320454135 6.305266196938827 11.45758639734415 0.6216873450822906 -0.6276276218261255 -1.179791051875665
Ni 0.4444057345862828 3.5369629659293236 3.959665978069657 -0.11878753715456962 0.22150105156541205 0.29976671734653537
Ni 7.880485641638122 0.48518276751300615 9.955267577481997 -0.7342569263516064 0.21699879281968437 0.2211873769797352
Ni 7.011820073422778 3.1741159361162987 1.0675091547978621 -0.08989425115898712 0.07705313353026084 -0.4525964316874786
Ni 5.216752941018622 4.535072952563735 9.523032512913069 -0.40755893183186587 -0.8816109622899592 1.1609317530773167
Ni 2.7013914516489583 2.9100964539666854 9.642338108192204 0.20468063757396365 -1.0409597086963427 -1.2546163245166715
P 7.8821185414117565 0.7239006532269375 1.4668635557431393 -1.3254553588164204 -0.25981897330900416 1.4638629841947628
Ni 4.1407091015516295 6.678550796327643 2.316098544436188 0.036055608071976615 -1.094021878628645 0.9435467805628074
P 3.781146426965121 0.6979180633629324 1.1643716560291373 -0.35174568151698776 -0.35894374192732376 -0.3521971672321096
Ni 0.7920881355356343 9.118121613817621 9.393460988091167 1.128578790667908 0.584781987415509 0.07267968705291354
P 0.48476619251393677 5.560329897934828 7.365755738277983 1.396961337276207 0.6665271271048004 -2.672093008137411
P 2.0484449325062744 6.261892296701646 3.991372994981008 0.4431759097045271 0.45616512287534344 -0.9466267050397115
P 7.1051829735482865 2.02985214190193 4.767253672479352 0.02739227597002379 0.5120081979868925 -0.23134837667313707
Ni 1.634829564276597 1.4309768720816605 3.2779841340468456 -1.516509406745885 -0.6562031194709731 -0.5034412822534878
Ni 6.072475922959983 5.817131220857805 3.6215750077224866 0.48934212384794445 0.5438297133728635 -0.5761078566802789
Ni 0.3671027748480608 1.9071805464075984 11.172086860899537 -0.06836563305859193 -0.6760407230221905 1.6929909561778134
Ni 4.991041658672071 1.0994982180337496 4.478630287433701 -0.3173348081372857 1.5528496359378159 1.1054571170487801
Ni 7.912679745129676 4.780230586759939 7.805947478107533 0.22431280998259434 -1.0509062783860934 0.6633266178896318
Ni 0.7986447847971563 5.209850228339164 9.334542067565774 -0.005189000400107192 -0.8842309164113095 0.6432586434951632
Ni 2.466504385915333 5.413044193920873 13.064084222764215 1.4037331087824017 0.25288985028933864 -0.5826574848733386
Ni 3.37322765226392 5.294501237058744 7.919834815046877 -0.8236428704156072 0.766553324491467 0.37937835563259176
Ni 2.53367594478532 2.6813977072615525 12.032034971005178 -1.109026065346961 0.3965029311280203 0.04247950932044942
Ni 6.316158380656142 7.756208979889024 13.228688870002287 -1.0318880854123778 0.7527128190639487 -0.6492626835973979
Ni 3.516904276664557 8.579877025933175 5.315860679438645 -0.5436973015600571 -0.6412619247801086 -0.02697344326505032
Ni 1.2561545400668603 8.983490883049337 1.49050534667028 -1.5272108523237893 0.9303066277234495 -1.133803786512273
Ni 7.2128986915704605 9.256240812284124 3.6621627727209027 1.3981856966016113 0.790850763586251 -0.30318705588199396
Ni 7.902984402723718 4.362672136690518 10.78703888865281 0.8253827359248493 -0.8772087194572055 -0.172825954957212
Ni 2.7333721648291855 7.798720041041272 11.715968664138872 -0.06719835222336815 0.21833448091197238 -1.2332990510961341
Ni 8.811999295459168 5.052145510428663 1.8857236867116567 -0.6018523126342344 -1.0989460554031396 1.4526653157067304
Ni 3.659671672782147 1.092298614486359 6.667886847465052 0.816040375478001 0.466107578800036 0.14106280361300222
Ni 3.9906586013300425 0.27011038386206476 12.55694730335148 -2.162129608494689 0.7072886252928786 -0.4929964327710799
Ni 2.6481459300529844 8.529127243195768 3.048376159058666 2.306198803034183 -1.0075415382472133 1.1403282178943523
Ni 2.042924617930633 2.4786026887836288 0.7273445872949678 -1.1326308492500945 -1.2075772208499977 0.40387582655332377
Ni 5.488074082951478 8.63226898628384 1.5629624907734476 -0.24255787223571132 -0.6805864334113441 1.6870784473481202
Ni 3.2931135071199513 7.752664845153066 0.46021331773582463 -0.488857728012358 0.2656918871500134 -0.17475685343133773
Ni 7.709504335227213 0.4618295173981384 7.59306837574345 -0.04282763668848753 0.011162187264406582 0.3703080179002074
Ni 4.7029461827009635 7.279077521600794 10.16479274082239 -2.4630913745905905 0.2483387405835465 -1.8432865912429932
Ni 8.197509421553512 7.895933244610294 1.3340169535343447 0.6439147890219233 0.09947675264109965 0.4387374143171992
P 4.702658569672653 2.647821205666182 8.313668901416513 -0.48408936008943726 1.8363986058739081 -0.15170228560471938
Ni 8.499558768317502 7.356927873876768 8.200378129564921 0.4341791055225555 -0.45952298360398275 -0.1859025856355121
P 5.0941926795997645 7.19238538816417 7.518031064441147 -1.8735135084483348 -1.6690491006502353 -1.9426301607403382
Ni 7.672235253461918 6.42211130914996 12.06997484057521 0.4747295161410921 0.5992691252880905 -0.6056099799044538
P 1.0983013767223921 4.16575926853353 11.355282443174028 -0.25848019989292254 -0.9778751215310318 -0.22039213477194947
P 0.3962639525668805 8.880080082612201 7.24825561058947 1.3629430713492334 0.7169719140189137 -0.8928394840159269
P 2.851339895634693 2.1309713159522037 4.745608472639065 0.8797762230740656 -0.11514711218850492 1.4524287742158921
Ni 8.1537180185333 9.276884005445137 12.229895106587666 0.1530256324018332 -1.113998578860888 0.24009321274530265
Ni 1.3515492870697883 0.6706894596375683 12.884338141261528 0.7835691423231731 -0.7662897864174351 -0.49253517686394527
Ni 7.373479539764069 3.782315434757609 3.2734212925202906 -0.005455109577300282 -1.0532878912443924 -0.025198096532182412
Ni 5.816797218631379 1.724963776213326 2.422462481225302 1.6525019949248314 -0.48455807219573976 -0.493086421381725
Ni 4.183795388760499 0.8310569175198493 9.206437369188256 0.2748691827739073 -1.335959600781854 0.3173317228134922
Ni 1.7255575579491933 1.6697420747776686 7.704783770427069 -1.0637563948758841 -0.3304458915979471 0.16882043334224475
Ni 3.6696917395749074 2.336354851684923 2.5400034314081554 -0.3774651977702789 -0.07162964852184438 0.7973206875813107
Ni 1.2547443084441754 3.862578025335545 6.1002825360938555 0.4711317714875048 0.5266789126251897 0.9387429314162608
Ni 4.644096845972741 2.439663595886208 11.356056214998581 0.902925407497019 -1.1222500202364027 -1.3371880738723163
Ni 8.852469231894373 2.223554877549385 6.534065144311888 -2.3403769915777883 2.681930820163439 1.175702226518272
Ni 8.643866285812498 1.8591862820382008 13.555170479629291 2.3440158738819563 0.26612691780490294 -1.6773969583942983
Ni 0.24279827958009434 4.993453896974032 13.367684824313157 0.23269769161217987 -0.8408808315604486 -1.1531153423566916
Ni 4.136153682296772 5.928307573059331 5.4278609037986865 -0.9334516011103344 0.1447075994544411 -0.11594492549945194
Ni 2.914521983466821 4.228440353026021 4.038479370098491 -0.2374891994635523 0.35415969027511907 -0.09163463088886155
Ni 6.310322619533322 6.759342223764085 5.632809308853091 0.7140560259236992 -0.27885542111516487 1.0870300206918442
Ni 3.6780603509147864 3.460179565209985 6.280109334801262 0.4642116473289037 0.2826897072595906 0.9855064128240447
Ni 6.182910047991674 8.089830814889831 8.920747637031374 2.1402307515390686 4.48641072295188 -0.8914534023016776
Ni 7.293421061657837 4.344255625039009 5.452194821561697 -0.1393558482242245 -0.5491428980556607 1.4278937651890053
Ni 5.786189625715346 4.27989525157477 11.98700683196323 -0.5880164351924067 0.916409558026383 -0.05107702118147332
Ni 6.780857533849652 6.023108538326392 1.1543599392920374 -1.4690028765244894 -0.5472433670401027 0.5396172179534126
Ni 2.8771972346637886 4.380197975738226 1.6687985184880172 -1.43997589316452 1.7853113002797898 -0.17507155645827913
Ni 1.2713516413692134 6.3670102196294005 1.4878843569768034 1.601894200070293 1.3025655987024405 1.1235491986638007
Ni 0.8374168765813653 7.683331549650938 13.106315093159852 -0.8764530722381033 0.2989051406771885 1.3935253150114646
Ni 6.955067528449338 6.176545450010346 9.476307457004088 0.31771893094958187 -1.4493305949065427 1.6286089903573178
Ni 6.993663341280712 2.697485481167706 8.92459051820319 -0.6570595539339974 -0.13615353923684292 0.4062859786567131
P 7.4666197717386265 4.622952649472093 13.218152027542532 0.1839467474607219 -0.6452175669937469 -0.5945215833007761
Ni 0.4664433870426196 8.252508454838221 3.905893475183101 1.051117365955635 -0.7624765833189321 -3.117721750257805
P 8.170687187203633 6.6138749763162235 3.267093805897455 -0.5330331369779917 0.5499396829253431 0.2600747980735521
Ni 6.107898714640315 2.1231593749896995 6.782547956228949 0.2842724783656782 0.2510702805820966 -1.0930661995835949
P 4.5544079703379134 5.577846459142913 0.4000121997745427 -0.3505568034152092 -0.318756885295793 0.7000201166559235
P 8.800003048826724 7.59475601477086 10.445634801776293 -1.153176277501614 0.8186865548515966 -0.32968895882726446
P 2.6220473671936926 0.7696840084141919 10.706080460103156 -0.954726965549343 -0.22045846923351065 0.886271343880106
Ni 4.69031904297416 6.263896310060198 11.935962941709777 0.022526206126974112 -0.4733364924483074 2.623771695324204
