# total energy = -381178.1546745438 ev
CRYSTAL
PRIMVEC
9.10857650347478 0.00000000000000 0.00000000000000

0.00000000000000 9.10857650347478 0.00000000000000

0.00000000000000 0.00000000000000 13.33132242186597

PRIMCOORD
 96 1
Ni 3.1414113965061015 4.812616573261697 3.447053323450796 0.554695966663406 1.5011252109803308 -0.8506242841004577
Ni 1.1926678946521665 0.7666288039020946 0.6472026143486201 -2.051966065563705 1.2485140682736755 1.9588808182712458
Ni 5.51392231013802 1.1196990885358946 12.6210958670123 0.7670654882411951 -0.37276727807397736 -1.1158708561829362
Ni 7.700417875061102 9.072961937880056 0.6181744919903694 -1.3257898593377038 -0.3524846165655413 -1.7670536396211824
Ni 7.203126034002061 4.508490313441925 4.532089724222931 0.6639213140508372 -0.9016660811686213 -0.8409193981078679
Ni 1.0615772620687958 5.55600393343813 12.257630874908786 1.1900065589560862 -0.39122034257284233 0.9300055515432629
Ni 3.2362863290372568 4.7479821146172 10.880864986895114 -1.5748791049340298 -1.294786468977654 0.3575977694223906
Ni 6.206757070895491 7.1776948884925575 1.6649220807052891 -0.058080191972183844 1.116458096144974 -0.8147512243529323
Ni 6.447760895765099 2.758495950204523 8.90444325371606 0.8504504775267546 0.48423874118310795 -0.3749036076906898
Ni 1.3785921575962858 5.257698053983892 4.805435371571262 -0.999251530324279 1.1492175499641821 0.14141273075325322
Ni 4.69024284836192 3.3718948155506827 4.596319762072077 1.8695984896646447 0.23128769863853074 -0.12387446475917374
Ni 7.466710019945472 -0.12476836965423527 11.102978535019679 0.4985435878415543 0.5473333556507477 1.0028557027357696
Ni 0.4195738231703277 8.237004115019854 12.306716993515776 0.7453648633393098 0.9596945939672632 -0.06622930344187948
Ni 3.250641445556948 9.045463145511434 1.9012732447130585 -0.1180527158710741 -0.43414028186482007 -0.02454940720458998
Ni 3.7235860617066394 6.471743777615573 7.145802118833899 -0.15503854906680398 0.8204757855415352 0.20689281473393398
Ni 5.447939782175684 5.622350804459341 3.4093920923124927 0.18423599656636658 0.7274370752162956 0.8068610229715781
Ni 2.6778121798165646 8.959068297675604 4.749950477992774 0.9533719941833451 -0.6476827407047878 0.16150358796585734
Ni 7.783460766755277 1.878725874514554 4.435783834328043 -0.6701346419504008 0.9667155053697868 -5.9906703657961345e-05
Ni 3.548209530316963 2.1933361058534664 10.978277568831336 0.5610861864604659 -0.8761838777371168 0.7631162737854599
Ni 4.2142650762470915 6.37383568911928 9.577342073149516 -0.17726419323422374 -0.12428275594118594 -1.2693978537012203
Ni 8.46596640179363 6.5259306990468176 11.30648143969689 -1.1311025855310262 -0.7354465757843334 -1.38126320981466
Ni 3.7080195045161877 1.879928206608843 0.4802159927471973 -0.6803393503975445 0.8835814557527687 1.0639913937048255
Ni 8.462259211169572 6.0389497665539515 6.011093007129984 -0.6293003815428582 0.32821468827458317 -0.7848418383880096
Ni 8.491880301856144 1.6148230883946264 12.420526834816686 0.28449050791375524 0.7033664074203371 -0.43112154964315424
P 0.8596592496976935 3.472244002541441 5.889377832309125 -1.2982733990849897 0.08765327764361033 0.595519171327355
Ni 7.34286070565725 9.186545886484462 8.439607092341642 0.8607572587694016 -0.14746227938144282 0.287617226468195
P 1.4931780496126006 1.037275580041806 11.636497917280348 -0.6631561537500386 1.1029968284337455 -1.1918793504987668
Ni 3.176215267205175 4.26354247495999 6.318126724559583 1.2034133192802952 -1.118407763672177 -0.20944334906992962
P 2.922532303886702 4.716329811377399 8.72147108040648 0.8668170918102361 -0.4970119816883763 -0.12326717019247804
P 6.236378161582062 2.724220376940819 11.070889930966876 0.3878231439658353 0.8528346614882152 1.8180656118926752
P 0.8639794475183087 8.949212817933024 7.764588707163179 0.17796481884567414 0.98227376481936 0.3288003855747241
Ni 5.079087977946696 0.802636828410751 4.633474556358543 0.4480388942237833 1.1487830335299247 0.10424306368149143
Ni 9.222980192372003 3.44585645650239 3.5246019218171316 0.41438135407033794 1.4020852887663338 -0.35229204093876104
Ni 5.683952107138699 0.986313094681609 10.129458435992833 -1.4767763498223212 -1.7020489526150235 -0.8921206035720314
Ni 1.6014425895574271 1.1667357774367098 3.138392814263319 -1.719716802208432 -2.0111657437178914 0.05761533652062336
Ni 8.459626832569198 1.8871148734451604 1.941480322975254 0.23590874235030984 -0.5525095005350485 0.6151068636512955
Ni 8.682522807412699 3.8450580375356997 11.232078943643943 -0.8888673867420563 0.18577840135282198 0.20401343630360994
Ni 4.513691310607371 8.04830173625181 11.012992175480985 1.8457602495944663 3.004182863096684 1.2072782015523402
Ni 4.74871080073495 4.044572296575871 1.7933958192682873 -0.7079918220074903 -0.4638095267944787 -0.6485582013312057
Ni 1.534831569818531 7.408442456254823 6.326485665187831 -0.8559606087117065 0.5117600865318283 -1.0232324666199086
Ni 2.843151059934223 -0.021735796034859475 12.930636264686962 2.1332653759648292 1.0126819447975721 -3.702164352056024
Ni 3.905866894062005 6.327363731959722 1.7416709460573931 -0.38746473218515204 0.3507851173759314 -0.5195968089674278
Ni 1.6602566678363893 3.1195872472794646 9.913011333291427 0.08853208070413784 -0.49437171585205175 0.3366779885505879
Ni 1.8076516523044346 3.3791816767281913 12.39309089162572 0.07044436996449158 -2.09749953121913 0.3229773511350437
Ni 6.725800192569393 7.256848418033239 9.808347413625937 -0.3661757408993887 -0.20154492015845935 -0.09324234169561361
Ni 1.9877008834241878 2.923097035627959 1.9100584667201919 -0.13057347404590416 2.1186512255960803 -1.653968809278345
Ni 1.2007836362886162 5.502399960901085 1.7935424673494844 0.7922278464394357 -0.9223215526354438 0.14253810260694807
Ni 5.4843558709102815 0.9818316750574415 7.39315188893147 -0.8242347383633353 0.16507279337435443 0.41544321967594905
Ni 3.80756713677742 2.5944778136752875 8.4810410958546 -0.033509958831987444 -0.17401843260341643 0.036459014157982375
Ni 1.3893676035625258 5.18545793398537 7.311336833345703 -1.5313721827903304 -0.6257226914939289 0.1953151371986636
Ni 8.843653525200347 1.754648845814535 9.667808454668279 -0.3315044147694485 -0.8731795436931543 0.10319405359168679
Ni 6.7069636564255335 2.8230393230843007 0.7653235448936736 -0.5416820709022413 -0.006831421099536622 -1.4333535027519961
Ni 2.3969401157295147 0.2991793919378916 9.664369056192495 -0.15362135700430318 0.8591742305529977 0.2762331530009694
Ni 8.748605529716226 6.464338504943931 3.537439549496606 -0.6408577473631544 0.13367062491398915 -0.4295320936688474
Ni 4.648470916661855 7.883700650828374 3.45813208501355 -0.4975200316730464 -0.047916621175620705 -0.5787185548302484
Ni 5.553262251920093 4.892444137461298 10.837431650846575 2.3811091791898287 -0.35738282519810705 -0.3121941444766107
P 6.319967567864551 2.9989532604858185 2.812695623642828 0.8427199416517164 -0.20954439342416814 1.8985899918009883
Ni 3.30950106671827 9.136357630124376 7.382233438314621 -0.5327973668181017 -1.1623265765423145 0.4708476645881826
P 5.005381377136202 8.27096088810704 8.898137386224574 -0.3111417919526964 1.000322651901271 -1.7383282466620322
Ni 5.180548411267025 4.700663059845757 8.04767962047878 -2.830057472601758 -0.2816196141238634 2.2368286399704767
P 2.8564222558537598 4.768002765702404 0.3136784239658384 0.2411018565154751 0.269740089077458 0.917023537461298
P -0.2058893517128442 8.68218579008324 2.1596872026510283 1.7308231965342387 -0.6378971220729337 1.6839712691777062
P 3.2331529787309288 6.573960222783067 5.03951941089518 0.24463506647971417 0.31650074227176456 -1.1484441621332673
Ni 2.0470341505620473 7.440477319706443 3.083228542576641 -1.012547733212553 -0.9071106492229603 0.3114454392360443
Ni 5.195568453869163 7.915489582715253 5.668091342928206 -1.2617699048423172 -0.0875864289614169 1.8043467196446863
Ni 4.645856755214424 3.6433577201422755 12.673394580540926 0.558714858014812 0.31220828554399777 -0.2590784955985538
Ni 5.421852819160205 5.339820979454408 5.828574440928703 -1.1985117682136197 0.058870291973647 -2.3790589815290186
Ni 4.165761906534303 6.177782689138424 12.366468344313693 1.1293259532465776 -0.4969479612196603 0.832687754226695
Ni 7.087893433056242 9.412074239928339 5.994549099684099 0.8111678778770481 -1.5724059608031888 -0.9932834856663023
Ni 6.510364141856366 7.1486020952413565 12.38069229733219 -0.9944487096189971 0.9256958684243155 0.591424175322375
Ni 3.3271717050737273 1.7840148963598927 5.846918203085433 1.3643340381594888 0.12107479052684954 1.9102496875271038
Ni 1.522790031722699 2.4131898161553575 7.722488866710126 -0.3256955213971552 -0.718736205008188 -0.357404679574978
Ni 1.0906882724729408 5.378769252448189 9.861205393749934 -0.31302743901118346 0.22146197079736052 0.9057307381562981
Ni 1.9069715701538699 7.093622727657057 8.632977616551527 1.5989487442887238 1.526882265339777 0.17662578831927644
Ni 8.705886306063086 6.636235560121347 0.523686673959269 -1.046888929696584 0.40421238395713616 0.6670912271383865
Ni 3.933493206501232 1.9651025051974407 2.9534213084181586 0.2992290996755105 -0.36326370945891634 -0.7540099406088175
Ni 7.049992646356728 4.1605426922159126 7.019514438624153 1.6962092060047949 0.6016558803527121 -1.5609722650449505
Ni 7.22269125626367 5.169381296512493 1.944626425288643 0.7774249770986482 -1.9024088513264463 -0.3302725992448764
Ni 8.962238082287818 3.7825003343267927 0.5017723498255606 -0.14998093203823848 0.5772748804051865 -0.3037362435172446
Ni 8.139633432535401 2.187980262887998 6.90455873840308 0.9949685866782091 -0.5882774021632772 0.5726777479528072
Ni 2.4583410297264923 7.282252237813327 10.986076332006563 -2.4194399564492266 -0.5270887464690986 0.19362643664233106
Ni 2.289449804784798 2.9806632389302727 4.349997439400535 -0.6176447995818007 0.2651704674289046 -0.6405582138448644
Ni -0.19966910484019385 8.758178643588177 4.393377034847887 1.4043234340682331 -0.7575704042665662 0.30781838400641826
Ni 8.810261483854417 6.499643347348957 8.28160425971444 -2.2257528417722896 0.22549217500267618 0.14434764501186106
Ni 0.9775142098097679 1.3405183079438059 5.599461862643141 -0.7725105705161663 -1.1209901796873727 0.1867057982630978
Ni 6.314511530557891 6.616752315047984 7.3657560234769806 1.5454397166269902 2.320480766874494 1.56473456030086
Ni 5.531301474046377 0.5245346824288016 1.6299670076367827 -0.5700313114688956 0.5692489247769164 -0.6808916233565887
Ni 2.360633329912581 7.1085152501885895 0.1543903711984529 -2.067227362598149 -1.4156756258562588 1.5068546572649404
P 4.617492648080974 8.091995577587442 0.10969458645091257 1.810860609503804 -0.38405673494486764 1.0025967926474282
Ni 6.922080906962045 9.133898314476967 3.3281645399091624 0.06692401551605892 -1.3938040225941477 -0.23318594410250806
P 6.981359522641074 5.285834446705545 9.108159299082713 1.2038180109178818 -0.7652397478863658 -0.2253008849274765
Ni 0.18237647240831992 8.260695522423227 9.77779178299335 -0.014341099213020462 0.721665462839841 0.30718614973905806
P 6.880755295509102 7.183824960458136 4.719621650914339 1.4377873701536334 -0.6636701172719797 -0.4631497817232927
P 5.26754442515 2.9882324659784096 6.6965898986817045 -0.8260522511880484 -0.30793074121456643 -0.4934849423717243
P 7.0386160343433435 5.20294640081139 12.995959331712733 1.0989193159302624 -1.2683264750139123 0.5433278340357804
Ni 8.682905367624517 3.957712911339975 8.680810395035985 0.223374357328725 -0.0676565228067093 0.3932304310243357
