# total energy = -340890.66517548874 ev
CRYSTAL
PRIMVEC
9.09978735756629 0.00000000000000 0.00000000000000

0.00000000000000 9.09978735756629 0.00000000000000

0.00000000000000 0.00000000000000 13.31845861840193

PRIMCOORD
 96 1
Ni 6.601477144997803 1.9202098309555138 11.3801704225129 0.4885291410283457 -0.24553263859331906 1.4798243926200256
Ni 4.655715111113979 0.37535075927627787 6.076227408372003 -0.07390430348863401 -0.7057251374605008 -0.37073379258371636
Ni 2.7625498482150666 1.4373842130163494 4.86791032280357 0.8720803970917046 0.2955567930302458 -0.9335349048527599
Ni 3.271937745480347 4.487878632905382 4.695262787013705 1.020187509145998 -0.9546200076578332 0.2994147333237553
Ni 5.322119839407743 4.515505587353512 2.915037715070679 0.32348334423718483 0.5281115313066582 0.38282414808934717
Ni 7.246324477017646 5.94551897260208 2.5628177053041843 0.2230128602242482 0.06429763363680539 -1.2172080590715424
Ni 4.876257557755898 4.562032800164212 11.233347173293641 1.532981179148663 -0.3694502978856024 0.007542845344264428
Ni 5.688695673725413 7.799436852584398 12.735949562373806 -0.6690344669076865 0.4388037487787603 -0.30366168152556733
Ni 1.9994234799907467 6.533465334212123 0.39944972616197655 -0.26925440769029113 -0.4690779742822696 -0.7929945494021311
Ni 2.6987785383427045 1.6777186971828675 0.20089873565141275 0.2000688498335651 -1.670918549758806 0.5785655741921519
Ni 0.46275785685732623 9.45404208985348 4.682837027363205 -0.3317522691141964 -1.1543965230619604 -0.13024025907620151
Ni 8.664116847831487 2.3548611745704364 1.3583097907278414 0.9910057453757191 0.28027107051576894 0.7872748733095345
Ni 6.84488735729458 0.6503654430795763 4.9315587855464695 -0.07553592555478604 0.8848536375969729 0.019794666128423975
Ni 0.6572139430524557 7.306474071517692 2.5940490855286327 0.34844747038169027 0.8043783657590405 -0.7366735062128991
Ni 7.678873769750647 4.07432059640863 3.9895706367389296 -0.28968465052018494 -1.0643752594068057 -0.06964938486702199
Ni 7.902592042183869 4.202236307435427 12.918691492290582 -0.2867469080480997 -0.404100283859304 -1.8903488348381186
Ni 7.727484833868535 8.62322240340135 7.193432872922026 1.3947422181377012 1.3698840214434407 0.48345301205701896
Ni 7.086022622749449 0.6510570269195163 0.47256378772468605 -0.4419484650553292 -0.3263946043467088 -1.494977189101064
Ni 1.9299375036515118 6.455798649029388 9.432331817151786 -0.4381920833366905 0.9226694228931659 -0.7822635361378721
Ni 0.31723678721037224 5.124809149915387 1.2008561699057123 -0.589500733047417 -1.2343040953218807 0.744119420967983
Ni 6.42682492605085 2.0068671060574697 7.125056160662904 -0.05136807005933088 0.2303281629387388 -0.5951052237183879
Ni 3.488630982065758 3.8757632360469088 0.32430550203754843 0.3266352596026052 1.2664734809655738 -0.27943443354708647
Ni 6.020128129229292 5.891384337552039 5.005382630523854 0.6533656500221781 -2.378239056730885 -1.234798775570112
Ni 5.426230506680816 2.776690917784366 9.442214186233032 -0.3186895223929673 1.0317381900980747 -0.9584450378308784
P 0.395936298259334 5.633132372058656 12.28815630584255 -0.11120509682162137 -0.22200884443976604 1.0069357863424142
P 4.043454117657624 5.8352477492811206 12.718715475078248 -1.4040346991832207 1.5369206234123853 -0.06783187204230898
P 2.40663896469226 8.54872244422255 1.3435126264893358 -1.0295054441128142 0.8314739364242518 0.4065533733854869
P 6.481896839199756 7.812859038951654 5.773592139971732 -0.8493940112377822 -0.2520874089927013 0.9997783493620265
P 4.904157505825057 1.0425444391348153 12.569828394084007 -0.43500571518890896 -0.9420894792909904 0.8168785551085802
P 3.8909598809508537 6.328683719290943 8.277834513990472 0.24867144133261687 0.08236091889641944 0.3950178619420616
P 4.727876424939297 1.1149787465811627 3.7158099036348906 -0.5447833355353844 -1.0425329667207335 0.8118263373966536
P 0.1900344995131974 5.4631756433934 3.701132856589638 0.720827797429894 0.8695326909691863 -0.35273632756503126
Ni 1.5774299406041996 1.156391878891254 2.6488953239508217 -0.13429180343775585 0.018906607096515825 -1.0357964193278484
Ni 1.926970972969664 6.424613677720515 4.84436280303235 -0.4429969609245016 0.6607010073413266 -0.02344486128650156
Ni 6.122255042856221 5.726023001507438 9.288172985673764 -0.3395892486601119 -0.29341609253815915 0.36144542530325496
Ni 8.763541124610228 2.445995545057267 10.162170253206572 0.3958650404337053 -0.6434656172996466 0.2789425815123325
Ni 2.461628979754858 5.060919542807246 6.960839577869152 -0.3656473791997445 0.4155437498095553 0.31285928886443537
Ni 0.7090108427277516 9.020655616682658 9.210046761228964 0.25497501495314157 0.6956831798434664 -0.23413236717617741
Ni 1.3330187516969831 0.9926958039349294 11.318505713416146 1.1182627534538805 0.14203776593176182 0.44421489249200274
Ni 4.065166210316793 7.08766968426299 1.3689647317566012 1.426558848427666 -0.07966897388655311 1.0356910040982357
Ni 5.612812546866734 7.979294149905636 8.160565554183803 -1.3257368946125812 -0.6974281875590311 -0.26574845141956166
Ni 5.186624005503709 2.8506357899337402 5.02449491393209 -0.3611602899626683 0.19779702308025288 0.02057936681324843
Ni 0.8714693466020782 7.657935159017727 7.2265824883235705 -0.08919953908480767 -1.3555241531773428 -0.8511639586540115
Ni 5.238665689459193 4.825808336589749 7.248677682030916 -0.6367462962979421 -1.0862846578853873 -0.010064069104221376
Ni 8.233860701515129 7.330251815909312 9.28931864890335 -0.49480520384504456 -0.4908246219307418 0.06574207939281582
Ni 4.749870611006863 0.4031742691315482 10.462808118279646 -1.2939130652337651 -1.5534430465474407 -0.10569110898192764
Ni 8.039389145681474 7.310841969454155 4.249107492208624 0.5557732588879848 0.33993146249087913 1.607856588301315
Ni 7.226350443745696 6.1792743105018 7.130556072147901 0.3292176756178008 -0.09820585634847603 0.1033074392410995
Ni 2.258758320180879 5.29650393796786 2.6232703227235707 0.3784262761319676 -0.19101008206540654 -0.44461701302642775
Ni 2.3850451692688703 4.9801953290689855 11.416902624201084 0.14813976506444165 1.5472649427611869 0.514408837008585
Ni 1.123068457550987 3.284204258851915 3.7902598139831687 -0.6543138728680602 0.3078757196069149 0.6564327189832759
Ni 3.975314909848798 2.796182662325833 2.5051751022239217 -1.4491963833215236 -0.9287783640043811 0.12543538148839042
Ni 0.9044142167878516 3.385557690552595 8.174843120563619 1.1682205734292461 -0.11382607938423621 -0.3982862482806883
Ni 3.7500041746262402 2.9064993845836304 7.309316845091339 0.16912459484622488 -0.759855343646001 -0.35179941757305866
Ni 4.226687436092253 6.731585904780198 6.14321913299377 -1.2033564979004308 1.5481375751741273 -0.078327115146678
Ni 0.916603381966794 7.585564550082952 11.666236798074188 -0.09977680038002172 0.1259542301063379 -0.6439240449933039
P 0.07456456766910995 5.703764921606211 8.027354676887782 0.9532583514236164 -0.08443322804441587 1.0839578095244236
P 8.388866479535366 1.5641078518979872 8.009041354810423 1.2487416109034493 0.21093921688916575 0.020409416894287432
P 2.057434624459398 3.072898096388142 10.31936817000367 -2.748456571799815 0.4767056660308564 1.2654789782627882
P 4.117462688318572 6.226565905451381 3.54161813392874 -0.3897725543827223 -0.07934295800570207 0.4673566207157887
P 7.07088057656971 3.9038269802886845 10.747783429335556 -0.6637493072493472 1.4493172251701039 -1.200879497114848
P 6.3220681738746745 7.958892426627405 10.369245924523133 0.13650372348741008 -0.78349895120687 -0.10183933933600525
P 2.485361225209641 8.345078302722323 5.6555369585365005 -0.5164132690331236 0.8901459963441638 1.3873814068972559
P 7.10838080031172 3.8819601912442656 1.5514937266489761 -0.21803494739368257 1.3889402667439434 1.0931039948000658
Ni 5.670932888783797 2.5845125083673546 0.5131106202773789 -0.8040999152866732 1.3931615039141427 -0.7694882387500748
Ni 1.394151123232732 0.9169855730362346 6.7666956143807315 -0.5424603438291625 0.8856658490856231 1.5860078678573395
Ni 6.7190463977876025 0.7089880932593324 9.213390023107833 1.4766729914752375 0.341838706815921 0.014780757853600352
Ni 2.5895264912069194 1.5510132578759652 9.100529000302046 1.0693739981729777 -1.6240020877129258 -0.7089374737502113
Ni 6.333024317865304 2.1676148499066814 2.7265410796226113 1.384612585902867 -0.39239996470324034 0.47491823511313047
Ni 4.189232711287081 6.807068640994703 10.582034442349093 0.21039234324676023 1.1212452331209721 0.12208137741449297
Ni 8.159852130854182 7.207404686446287 0.23749444052907992 -0.18900847825434544 -0.9754752538402878 -0.21857873571229453
Ni 7.691049285248537 3.822056291003147 8.399032761982484 -1.0450055966309422 0.5896465145966618 -0.6648636233594485
Ni 3.0845094250692395 8.408376423651568 12.60610742636128 1.3554971565941496 0.46608803841601015 -0.7282168908051135
Ni -0.042642513583458365 4.995719566318165 10.19432071195515 -0.15985165418473116 -0.24921677231312564 0.3863175059545863
Ni 8.761903162884055 2.617062447781373 5.869631295849716 -0.15456546608512736 -0.5180474622024369 0.3770386517558217
Ni 3.8918425603255136 2.432555159115275 11.24369545148811 -0.8863304792528155 0.36078028091543024 0.9628578221865933
Ni 1.283616006078111 3.239933793308387 12.427241095884376 -1.425989349077441 0.0492250555743991 0.44487000957749834
Ni 3.0417859233782094 8.505680449973653 7.8842741702128265 0.8093475368388577 -0.5490487956799577 0.44983223867878014
Ni 5.570343839221997 7.884974853840134 3.828683666142993 -1.0979474389352961 1.1735131892867532 -1.8493862763828277
Ni 2.9243349678241883 8.40706605427063 3.522372993624936 1.2029842021626764 -0.622292068545825 -0.4154321639323555
Ni 3.2538564679808633 4.413378673726583 9.295471925121342 1.7148509894756983 0.07532895175030252 -1.2773747012591097
Ni 7.055611133366825 6.281273827105583 11.428116292174217 1.0203569448443268 -1.1752777373863437 0.7933455049836465
Ni 0.3010846646328262 -0.05187697780413089 0.7261211729151092 1.3942907324225795 0.6879984096046989 -0.39965253250059557
Ni 4.687882859458557 0.4934641793506623 1.4314284021842347 -0.19130730159085116 -0.8755033067303244 0.4625311743026873
Ni 5.694219244657566 5.248666355776221 0.5157768579760948 0.9349880923595189 0.4580132318276758 0.024861282018053956
Ni 8.12397166926361 9.008179808201636 11.24658554395607 -0.09637265979447919 -0.08516933487949202 0.300781788874611
Ni 0.05995940894406126 5.129704835519173 5.953537705230437 -0.055741516536678186 -0.7028128489097121 -0.5089876659930137
Ni 7.629780416902275 -0.029142069044840145 2.669764776299748 1.3718457731555018 -0.17379551795933296 0.3246490824105119
P 8.292809124082646 1.7862427613292415 3.737905097342237 1.1190456543664922 1.0452423952320966 -0.2471066679486583
P 1.9696398759364886 3.1914592260010135 1.750698081892536 -0.8914539165223099 0.1824169410797568 -0.9575652063290864
P 4.686099301134501 1.0334628513419188 8.171033949571527 -0.1254343530471259 0.3005280209925921 0.2524957001747135
P 8.813171364913291 1.68758286668938 12.566418703757355 -1.3222404514235488 -0.8580617142151094 -0.0023168210586347196
P 6.438090462811977 7.756704251105999 1.4930521622378359 -0.8285485352473408 -0.529176739346379 -0.24595352818082158
P 1.9855918031919468 3.077857480503501 6.039748180772642 -0.8734376824505473 0.45074652296293344 0.11706104138176614
P 6.818252279669522 3.955113381892656 6.028507213437406 0.7196664301319412 0.3664449354003753 0.4397149477391201
P 2.6366269906217807 8.473831194186943 10.390622235028436 -1.0845399072801385 0.20371904499164273 -0.6483422286656576
