# total energy = -340865.8115806187 ev
CRYSTAL
PRIMVEC
9.27512409270929 0.00000000000000 0.00000000000000
0.00000000000000 9.27512409270929 0.00000000000000
0.00000000000000 0.00000000000000 13.57508165359569
PRIMCOORD
 96 1
Ni 4.784146000632846 7.756851031305017 5.639998782042829 0.6630358261220904 0.24948673814506064 1.3636948619135933
Ni 0.51112054190831 0.43499125256857185 3.5811197671145263 0.42386821051485063 -0.22165120399003116 -0.07472757072087777
Ni 7.012865519077965 1.1862790698306729 8.101255858933532 2.7860450715765506 1.9836330855152613 -0.3836461297700102
Ni 1.5906466458665123 1.7930391241718555 1.7754581268469034 0.7631838937986016 0.5650251165035559 0.23756504700681022
Ni 6.801541096470892 2.968382822941532 10.8191092381164 -0.5947866640367047 -1.709074234892921 0.5968049800183141
Ni 0.04027351542319927 2.010744832012148 10.189102940781007 -0.9950002112470928 -0.6623601402113045 -0.05083970835968664
Ni 0.11831811784529181 6.519837033820697 6.695977201480542 -1.120630739465425 -0.40265198144855174 -0.11769970340702955
Ni 5.359055279551245 0.5689333165989766 3.577862343605941 -2.0106384104595114 -0.6271080018772296 0.8912590269026844
Ni 3.9941465988098623 0.09801765419711321 1.565301442337014 1.1231627618586593 0.42731297453034145 3.3448008101316264
Ni 5.223332391734825 5.117178598865358 2.7495242172022727 -0.6045874521772104 -1.36057302845516 0.42874225077770034
Ni 3.4323430699416644 2.5074740916997267 7.913851980827146 -0.6323890477705109 -0.31717308574844083 0.2754476809851966
Ni 8.744920703702704 3.1538110996603086 4.450835148683768 -0.2850468946378575 0.5629461224873401 3.781971137072022
Ni 9.027264749900997 6.811456203904484 9.961693598331712 -0.8020129508506574 -0.6082803276477653 -1.3384774821077012
Ni 0.2894061255247076 0.27626884005329533 5.904223873730811 -0.6106298017165483 -0.15063656334436637 -0.3117377736654825
Ni 6.777620551970205 6.195346824686724 6.841080949594748 -0.7728142177995142 -0.4523228663111178 -4.098325069353277
Ni 3.9841387401374155 6.943469042166707 0.9323382355069249 0.15598034415478298 -1.1748200810236347 -0.039810447128718535
Ni 1.7068824983995108 5.545383243286914 0.3779325454497959 3.054638191533759 -0.028797383847666537 1.4779505726360804
Ni 5.546542633772601 7.350980885199728 3.365602060998822 3.1135812457268703 1.5564581792246808 -1.147889575181378
Ni 7.157854255655992 8.337501611908538 0.35552848370438744 -0.3905228022851855 -1.5771185357875097 -2.3812145944194407
Ni 5.387149629800404 2.420473429653802 13.046725944331534 0.42839000964460416 -0.615973839637281 -1.5746585042827914
Ni 8.708961048398647 8.592511868016283 7.94068955178982 -0.664040613237521 -0.44121364377183364 -0.1602208645986918
Ni 4.484689350865818 7.051830314520921 8.1946925294436 -3.2148392586381083 -1.1477692475534296 -1.203890773137346
Ni 0.9906667070856248 1.3818728823279498 7.8187448605053005 -1.1918325564212313 0.4745726788482536 -0.38272798883111503
Ni 4.365680236291056 2.700322467526898 1.9736814369657179 -1.0403277315392987 0.24129237525972635 0.2506527334287038
P 7.713220848547658 7.726206021987348 2.370236576152806 -0.1800463839650512 -0.4987009393550251 0.4880835688504949
P 3.4614855091898833 1.46653621315473 3.6053788536370335 -1.157817118707735 0.3448705516637093 0.15507583006264258
P 1.1033872876660216 7.689560007515765 5.027042944946137 -1.5077434876277969 -0.12903723990703583 -0.39918639149745444
P 1.9295040218991144 5.713884418914667 7.602493492090254 1.413124834409947 0.4795806735858063 0.1744938295779382
P 0.5179210627411536 9.312966390945839 9.573025096984459 -3.3768856064813138 -2.6651638851177455 -0.039489059233557805
P 2.369015042337087 4.083707195048183 4.64589471404524 0.03869561679798497 0.4753486377823297 0.36328864915958076
P 8.881255749695566 2.2508406889120205 2.744352408123722 -0.45261905739529795 -3.592005951331362 -2.4412835346868795
P 2.5038475182604993 3.5355751987872015 0.575100346470441 -0.8458721141274529 -0.3565464453397408 0.709098681918424
Ni 3.9877745887005287 1.4286287818347199 11.109086711272454 0.5408492905883008 -0.42785984817274697 0.01829134211002011
Ni 5.32208463574367 3.3852996415944436 9.132038404336303 1.0991337459339134 -0.6299727250195344 -1.165287201832535
Ni 0.6211995672061184 5.188559952288112 4.773568649353829 -0.2563109601557456 0.12666796834391086 -0.20704708092361115
Ni 6.521497280996201 5.575796374507447 9.919352657794438 -0.22338155641757657 -0.1673261081849054 0.7529796995720903
Ni 2.845951187653024 6.340585989609659 5.150006044833283 0.018690120210335552 -0.7368048895844408 0.08983228757280014
Ni 4.3444587528410485 3.259528961707158 4.682520323244276 -0.07446943196348466 0.1137520316131912 -0.3994411878207379
Ni 7.646903712766383 5.226467383608123 3.4806506976744775 -0.8316138044362258 0.7369301023083953 0.7490947626953873
Ni 6.7995562199593955 5.787204273229489 1.134304985625924 -1.4151428932812402 0.37881862647437986 0.09437928351353424
Ni 0.964427381613565 6.12295448276045 11.932781710659045 -0.28801317635503304 -0.5989173983756266 -1.0110084137498911
Ni 6.5551288802049985 3.8931868753162706 5.512975960431002 1.4365280438252357 0.7565956990581229 -0.04573941101864381
Ni 8.924310874772024 6.193334122803572 0.7643907847751369 -0.8818989258440232 0.7581900401284362 0.3566096944775084
Ni 1.2893813469418132 3.5424944412057795 6.918526379013838 -0.02291418559401215 2.115920714038795 -0.43379781092373676
Ni 0.401687065232932 8.325471776229053 11.482685918842948 0.3475203305817305 1.2991187778044206 0.7963657798672091
Ni 7.564049031097274 8.544225573068406 10.404132775380335 -0.253442380358699 -2.4294639163441323 -3.5174956388276133
Ni 0.3099523799558518 6.7494520007299625 3.0699908775947193 0.3363404027055111 0.7369221318885953 -0.16080167680282628
Ni 9.22023370233868 0.022699010684967085 1.2619464580009132 -2.104244563252447 1.2605830836230676 0.30621581540598874
Ni 7.836997376799562 2.232902599317477 0.7482594893134874 0.13270234746344886 0.035603865246538684 -0.6132939788122728
Ni 5.16518664009667 0.20367337291392992 8.211906231862688 -3.9790346244203603 -0.4935641323490919 0.013908896771608304
Ni 6.718992493890004 4.367275557599362 12.736562091551095 0.54545439346048 1.134583087880459 -1.0358568402521386
Ni 3.3381170863889404 6.180710679195417 11.816931703279684 -0.13656594418391318 0.43134523561818616 -0.3592787566692393
Ni 3.310774021174507 1.5604561176192324 0.03720066687993544 -0.7936486380463622 2.366934944571975 -0.6895572694513867
Ni 3.3604144842096657 4.418066135996321 9.554630671294749 -1.438886002534451 0.8864063267960735 -0.5004852849489573
Ni 6.481920327376802 7.621397122081277 8.353670935378117 3.874593842905766 1.4822669406232472 0.6783156350992963
Ni 7.9707910388478 7.870128119318544 4.772889710285411 0.09112709512482371 -0.8524831916860673 -0.5064345605538568
P 0.6617902918662015 7.844788480863376 13.545691436387907 1.55120233014238 0.24359788346445146 -0.2060554064343032
P 4.705381648597238 4.560587689620807 11.135883471690033 1.5245101655631745 0.0878895620241325 1.4789098512255563
P 3.1988140007527206 8.36720983371377 11.062686976522889 0.34195414934786267 0.3600009795472445 -1.5634253545711332
P 6.736874932741235 8.778153472584425 6.36731040406093 -0.09735867785683233 0.85396003334191 0.2582822249495036
P 8.870162701528516 2.232244065521607 12.200359759631635 -0.2667920621927276 0.5338407204809515 1.5869020975368346
P 5.986118580077773 0.8724135151075314 10.214923030653441 -0.15187300685462876 0.4614405123416698 -0.3160682827200363
P 6.12538456521845 3.5623710316923907 1.0680620508357328 0.6709939046269024 1.6183492603025225 2.2261791306764307
P 8.046485324877308 5.758544140423316 8.297918165702418 1.4140792279034162 -0.9200643811701509 2.173538878772895
Ni 1.7768540329916702 8.025579195639407 7.318638528211014 0.9509335599451817 0.12741050293689024 -0.4983885503209287
Ni 6.799324341862259 0.5373125642485538 1.9814326579968242 0.5709268266999715 0.47721011647110073 -0.12316741138982014
Ni 5.485512318606057 6.747300171988529 12.451485593856134 1.5879950734906974 -0.037225202900045565 0.07860042341272269
Ni 1.5804254593446987 1.1376495952990326 12.124366814613014 -0.2982999029930217 0.15376045368532873 -0.49523817761740513
Ni 1.959499772544799 8.500688141549901 1.661142224958202 0.07742748615054407 -1.5426274439891756 0.15068515719411468
Ni 5.258837565968493 7.885654676702859 10.151758509480846 -1.3373202285748065 0.7520116792318662 2.5635078654371397
Ni 4.93360534692368 1.0876845029278819 5.828773523459491 -0.04001407849909238 0.09337321084652307 1.1166031063632706
Ni 4.33356975739948 4.6179821562242385 0.13123558288061796 -0.12771466444087037 0.39535081980144815 -0.38467739924800204
Ni 7.406316274300578 0.8721695793493429 4.37481437829349 1.3475539904876728 0.5135362045956445 1.2386626294008927
Ni 2.8773567571293035 8.823369701526204 4.619233370436391 0.28831013877016154 0.5014815874239557 -0.32490259318221465
Ni 8.657048180011543 4.344542228956017 10.943660239212745 -0.033152318382252584 0.5054559986906715 1.9809043737301884
Ni 9.33596869818186 3.949069496726366 13.384202254417588 0.19851924595825812 -0.023505539321107903 -1.2896537757367788
Ni 6.458426438574848 2.856404252271975 3.3535610951706745 0.4958195040421719 0.09891008150435222 -1.3604113060663152
Ni 4.665804694977839 5.2112840058075705 6.701094287328168 -1.263693347117275 -0.4852314441136804 -0.4595144989635505
Ni 2.749554825111095 5.29152310254097 2.716767262175877 -0.35105174077375667 0.007930824811302471 0.15617343400219555
Ni 2.2226999630434343 1.7976210353712891 5.550742409867952 0.508870423688859 0.3266900240999406 -0.7185271743211754
Ni 2.370341385052712 0.6281104620131992 9.461274694362483 3.9097901883012405 0.08491942365221504 1.2910246879423766
Ni 8.031969755996512 3.5557022176187214 8.82331405078289 -0.4390644586393148 0.9018383450804275 -0.27578166728584763
Ni 2.2994794385675457 3.9228487215020773 11.985629511533809 0.25988967864593954 -0.5731269196750839 -0.32427704378307376
Ni 1.060109559616311 4.95542043830236 9.54184305799382 0.3817409423274974 1.0229632721189221 -0.8807555562681992
Ni 2.445961470091137 7.1754306154190015 9.45699886225127 -0.5869995638921182 -0.502628042323573 0.8536800402076459
Ni 9.208064739800912 4.145776324089902 2.0870735365154243 1.0908835901099794 1.3067942920718074 0.46241727443264236
Ni 7.43870500690872 0.5909209252819264 11.888893679457668 -0.4927395795652676 3.584137347216563 4.409223120726284
Ni 3.489997240013889 8.702487011926573 13.032919922427979 -0.7601643902459876 -1.5640676161408225 -0.8532236693965176
P 3.626758941705483 7.6063435960151216 2.8899987509852303 -2.504237252701281 -0.8026960929606112 0.7057040544145782
P 5.203242473398848 3.1114608839991473 6.8789958010138665 0.14753889825564911 -0.8149980502564157 0.7983984940265217
P 1.5602706151415227 2.9978406164018576 9.251703270169768 2.3842546667973457 -0.07055749850358817 -0.9606567007702165
P 8.098759923095946 6.175794863536105 12.279027650378831 -1.771227311382898 -0.2300468842528941 -0.494078352981349
P 5.750354206032425 5.940920901383765 4.8518701727075495 0.5066978415175726 -2.079690785172483 0.3560108845512449
P 3.035377042766448 0.47121617641575336 7.299321227694698 0.8701986066879595 -0.4722563720102512 -1.2708276441692112
P 8.515695291996629 2.7787992907220547 6.953319223733099 -0.4115636821158847 -1.15802666361538 -1.9315186242082092
P 5.324672395307722 0.37385612850212163 13.613362740256463 2.617181957921828 -0.6419005868053719 -0.7578305999064884
