# total energy = -381169.7684921657 ev
CRYSTAL
PRIMVEC
9.22078277747579 0.00000000000000 0.00000000000000
0.00000000000000 9.22078277747579 0.00000000000000
0.00000000000000 0.00000000000000 13.49554764584245
PRIMCOORD
 96 1
Ni 4.710787220781308 1.5168003089602489 1.344005607809947 0.558125046949613 -0.8655168849415739 1.2419454139172224
Ni 4.766305553285348 1.5868598157474436 12.591615902847263 -1.8182509884306042 -0.5911953471410206 -0.011572021108315554
Ni 6.392906942374831 2.4748211876356856 11.22714845619664 0.7918681491071717 0.2074800546959717 -0.6845567309130016
Ni 0.7657159234568236 8.843634224872988 13.33731258503195 0.5770398815762449 -0.12466379342968853 -0.02294503883194758
Ni 8.145132274668939 5.867340771296057 9.838955935715605 -0.01278506757981024 1.0527253338727032 1.5693987985457487
Ni 1.9014452583716508 8.818774994773188 2.334581381808214 1.2506894786584395 -2.079553231153354 -2.365199707048424
Ni 6.380274470106016 8.922794644163336 2.1235379520314366 -0.5012054509444336 0.6584736606727046 0.2511918937616255
Ni 4.528464684889863 5.389427605097016 0.8200733594217081 -0.8984074650220075 -0.3447751637364256 -0.6215994133541746
Ni 4.734254112696735 3.9341667997295207 12.404553884659341 1.0314052322386884 -0.047977042099910924 -1.456357676956653
Ni 6.353561862687945 7.645199879434912 11.114582063342281 1.084363015382642 0.7273278033319409 -1.3438881116003114
Ni 1.8512288759074413 0.4527173775314947 11.1108706983144 0.5019688114730194 -0.1751155223223371 -0.14428979519073215
Ni 5.015976685856666 8.114897328267883 4.0004577726362305 -0.00819539132659879 -1.204728695657609 -0.9878600006578857
Ni 6.073157861450961 3.7137439898127145 1.4460483213939386 0.022955837465224983 -0.5596242572029588 -0.92132627860171
Ni 1.9670234647773532 5.08200671061359 3.9497554549248917 -0.2717725461264545 -0.2635254756263139 0.6916758584562862
Ni 6.499342436826606 5.946722489370676 12.56604206208992 1.4762058220308318 -1.6472250627966083 1.5886134238009866
Ni 1.2316476046441132 9.485234725171303 8.423731768735843 -1.7027943154214802 -1.2341796539288745 2.0144816954650016
Ni 8.899355414595943 3.658797345834708 11.017386715212098 -0.8299083917093449 -0.8300477455006866 -0.3011561414948943
Ni 8.491520196749454 0.5546752599148492 1.7502244224529886 0.7581586726698685 0.2912967322023112 -0.23258507729371555
Ni 4.244925617542371 8.590846467756517 11.70625386959594 -1.1088368321542903 1.023114967205438 -0.621910002616058
Ni 6.937016107418997 6.803019693542778 3.990148015523995 -1.19655721559041 0.08600494340690994 -1.9209871285492657
Ni 2.3238124297186165 7.009694316486735 11.742840091105577 -0.9671003995130312 1.594232826870293 0.9174644816534586
Ni 3.8705710615995805 0.711250604334607 3.462795778840498 -1.403741593422834 0.04076586906345237 -0.056683311624657215
Ni 0.9171829542729875 0.739386900598156 3.822087264200561 1.0349662101170694 0.8743427107633199 2.395969641241428
Ni 6.0507052556301115 5.822140494608661 5.8429785413826 -0.21821209640149514 -0.172975850271515 -0.12677466912510424
P 1.1744418689100047 6.665796005729271 2.7875458763154786 0.027071916516127573 0.16633957590191997 0.8130882348282127
Ni 3.4950362454740107 5.352590578298537 9.682960578526291 0.4963586643750936 1.9922257122802787 -0.8412880943011962
P 2.211641608441145 1.1663644632841053 5.811196347648181 -0.9151036947307659 -1.8949056009708656 0.7753434119792711
Ni 2.3544715321228575 2.005326596021629 2.2428253733797625 -1.1239991417170256 -0.19609135324305585 0.5544553114075096
P 5.9056623441056875 5.299082376418293 10.367941173011369 -0.5485844544490294 0.6030435047288583 0.3834854358224299
P 6.107846445885475 2.6596425556328596 6.491776784639334 0.4039257059546527 0.0641852764286572 0.5027663676736502
P 0.6041069537731636 1.9519013811854873 9.559584662138553 -1.0751420110050063 0.4589545126950225 1.1567174578856532
Ni 7.925815958673488 7.708721851303428 6.006072057077412 0.2051748036015628 -2.887504144755001 0.2760917423270987
Ni 1.0861528747684686 2.072878049920417 0.18996287641840912 -0.17647229346054766 0.13050662536371074 0.8073274210850353
Ni 4.431554258944427 6.290860540477768 11.951980351337623 -0.49895804967115354 -0.22169902650883108 -0.5761492514411756
Ni 3.127975328629492 1.2757874913235423 8.31552496193163 0.45936897452462183 0.10056947148464615 1.639132258486145
Ni 8.863846180503092 1.473453409591125 11.978337958622593 -0.18724598703728398 -0.06566006120197078 -0.8352164341858196
Ni 3.6292723996998566 5.459450228753499 5.670221645441276 -0.5059658484475543 0.8555183789679652 -0.49063101786269697
Ni 8.83324240279492 8.037018597769773 3.212763191588204 0.5019469570961483 -1.3035606156258583 0.47668304032303715
Ni 7.591258300768804 1.1106893774745394 8.80093278029132 0.6474207452926527 1.598449436054802 0.768397062568425
Ni 2.533898742253421 2.7808681855000947 4.63294076302257 -0.11894745977120158 0.8477608465097335 -2.0391550298419654
Ni 3.671143973840506 7.761049793000892 0.6003928225104784 -0.553906380882575 1.1004750904531562 -0.6947470411824422
Ni 1.4946519889677714 5.077092033446234 10.89522517590305 -0.9975872552479788 0.0327270579193759 -0.51829763054003
Ni 4.917102233200825 3.6096690157264986 4.898289992381235 0.0660315856087766 0.07090742564383917 2.4220383133040224
Ni 3.377093214240132 6.455820342586601 2.508808992586672 0.5444179817761656 0.2843753224921296 1.2781177500727214
Ni 7.120943059496409 9.102332503686036 4.320207775638366 -0.1343031162916655 1.3683881536242046 0.06228497408215079
Ni 7.640165332092742 8.092647579665948 8.443057607150594 -0.8365420949757786 -0.664580544901391 -0.3295892000246066
Ni 6.835928666920443 4.31260616239865 3.6230686571141204 -0.16958173698830148 -0.26617988253002545 -0.7086063156630377
Ni 2.863597047686816 7.869264898509516 4.603587323445529 -0.959957874930979 0.36090137987432686 -0.3904708660013275
Ni 5.771758138056248 8.37940470016805 13.472375843464011 0.8534612393286205 0.22947249980666287 -0.7803002417639142
Ni 4.820680508737321 7.597445445945721 8.208464298414288 0.31753046908785965 -0.36853035717449434 -0.28304143417205446
Ni 2.8693323745125117 8.69393481809619 6.980963279740457 1.214773995708753 -1.5594524859663144 -1.5795572271359892
Ni 5.665977319174608 8.496960458529456 6.130554467386505 -1.0838763055542107 -2.8591297073773663 1.2464170765353308
Ni 2.6051569507887513 7.686555089745595 9.170953568375468 0.4197310484180255 -0.3719658652186046 0.445806919569471
Ni 1.189554731719193 4.314404215020854 6.441870220473104 0.04147343665343825 0.013034207476138843 -0.7340653791660906
Ni -0.5626438603051485 6.870303744743905 12.155871219991102 1.3908315702293854 -0.14301607068463112 -1.0269523386736572
Ni 1.2182313658476709 6.773614617582741 5.8480794783600505 0.19120882833977393 -1.4404615745516869 -0.6238568419297836
P 4.955912507492387 5.4731523118129575 3.712841275188542 0.23296688611316652 1.1903857966723757 -0.16835917743511006
Ni 9.324793106574672 4.310614473340209 8.589564778964279 -0.7110568340860594 -0.3901826453369474 -0.374954001312651
P 2.7125329650736796 0.65909970166456 -0.12091027909964834 1.0680462805004898 -0.3871960519047977 -0.17886470495212423
Ni 0.2506743537266808 2.09794935802181 7.318715938843056 0.014671228858929571 0.26392733905042287 -0.3015724030967064
P 7.6019636294579245 4.293085765469394 13.440499597746278 0.38678518961962416 -0.5406610858368948 -0.015571886296328023
P 8.214444898059218 5.196482727560553 6.5042598802287666 0.38011729068114536 0.8735952910743342 1.162116003193405
P 2.6006940919726156 5.643386401613589 7.490582107177688 -0.2866764598214805 0.3706065229772327 1.8082707372894404
Ni 5.364347076212946 1.7561533857149214 8.409953153180156 0.901069585235203 -0.5039213072136998 -0.7897364474761496
Ni 4.650308107196522 3.4706288337254314 9.72741489389504 0.9355329091193952 1.8117779791117508 0.15348277454390985
Ni 8.290663887675295 2.7217721893170026 1.4105676717273887 0.2823600918343137 2.1178480129684947 0.1446348372349767
Ni 8.155505655181651 3.2450792686396754 5.490488305325805 -0.8406193503689458 -0.41765076885022906 0.6081283754509333
Ni 8.856119164618955 8.923467761298827 10.248275699573247 -0.7169042940057718 0.30318397055820046 1.2918165877160526
Ni 4.005932151312139 1.6529912691138244 10.480574877579274 -0.8622952926804826 -2.747483409253268 0.3579595236371835
Ni 6.634390019928114 5.898737536314535 8.068245700386976 0.22912694354178606 0.07156665649439288 0.14015803241054572
Ni 0.44877825917146713 6.75080240123745 8.06336052972419 0.17473268506162165 -0.14044728151619038 -0.301469558970255
Ni 2.180512246120328 3.4389923283573256 9.241130179102672 0.6629736054255873 -0.697773743823908 -0.3652807398889451
Ni 4.730547358060192 1.183349144976921 5.641247180032301 -1.1463988495684643 0.5272656383665952 0.4120853589473097
Ni 1.6144391767372435 6.483335158097655 0.7450152663447873 0.06444650050984385 0.7031751173451374 -1.280244309497421
Ni 4.771736594282672 4.346538642653569 7.518652935884223 0.9367225585521223 0.4090576278645794 0.20302330447619873
Ni 4.0751802292236725 3.5838600450108684 2.8307452431617546 -0.5228297140824286 0.38375488743373265 -1.2579050225702724
Ni 6.8402993179098 1.4493318421055628 -0.19385957917811805 0.768865003343779 0.3948893067839973 1.7977258718940587
Ni 0.5901356238595078 4.659833175702861 13.15973783014139 -1.4495015732667682 -0.6355083101257829 -1.4363642645538617
Ni 8.730071065411144 5.53288454200083 1.7832071620920773 -1.4422441203734064 -0.8295965168958808 0.42046355570867583
Ni 7.328880929667248 0.6050898892066349 6.51162820766673 1.2329434675289284 2.8395332733026772 1.0277730348027396
Ni 2.152600936954121 2.854994057448273 11.73441875028579 0.2234499477616668 0.37105672314077387 -0.34264243366413893
Ni 8.659808701405034 5.515678561523743 4.358724829040771 2.5157568233051064 -0.04038868822969173 0.7231497606948514
Ni 0.5465748023322551 8.827811361797595 6.44447509157963 -0.14384807966762322 2.069124836731178 -1.2353443636609371
Ni 6.244470782824914 6.67196470934083 1.5742153564611472 -0.242787214637698 -0.8763042053650649 1.0765440335588556
Ni 3.3067294216245644 3.127071691927051 0.5329759920387891 -0.3332087990550649 0.7886077331883451 -0.586709543455525
Ni 1.4395762540322736 4.217355477335249 1.6706407692377216 1.5799812020472854 -0.7823915770753042 1.1283630751126763
Ni 5.799309836698014 1.906728766846126 3.6642302309885664 1.9556491987078253 -0.14676499620410205 -1.503526878443288
Ni 6.976434953367307 3.8200780556550322 9.281293142213094 0.481599503788048 -1.1183702255660224 -0.6462979445421192
P 7.760256805690588 8.851997474761903 12.625556681806593 0.5539125515301622 -0.06216516067483487 -0.8530526910362921
Ni 3.273562266331916 2.8084106633591825 6.804319823900371 -0.3881298765729767 1.4514630678685132 -0.036629221187259496
P 0.7594291938269856 7.1802142505503825 10.210083217721108 0.17928585164994285 -1.062146884296919 0.16749785787607926
Ni 8.279239337937293 7.575868814479277 0.8626641546112386 -0.37635885207997766 0.2103697175389409 0.31850748828914827
P 8.317016884568924 1.6315990533009403 3.948081882868841 -2.494732141424323 -0.10036481167300779 -0.4513674443763839
P 5.3394048590690435 9.006740649663548 9.729938622113998 -0.17574415704527155 0.9518236758596187 -0.4365704885728675
P 2.799899880947419 4.942238086780963 12.785385118355135 -0.36914279394751265 0.25388486721275627 -0.1395075433107404
Ni 0.26278954008726185 3.277176813141679 3.491540646760793 0.6969499623710319 0.672660493696048 -0.24700742336663267
