# total energy = -381168.10148401384 ev
CRYSTAL
PRIMVEC
9.33428374801563 0.00000000000000 0.00000000000000
0.00000000000000 9.33428374801563 0.00000000000000
0.00000000000000 0.00000000000000 13.66166778907761
PRIMCOORD
 96 1
Ni 0.7485003480901513 1.803355623575671 11.088315181899933 -0.8562408589562867 -1.6088739738222357 -0.4704781970639058
Ni 1.937330598679744 4.913072265108587 8.199050054128804 1.2247550181808649 0.17687518532592117 -0.19413422951668502
Ni 0.09548972307633717 8.947657746482433 0.7291933155181968 -0.5384172841080405 -1.9497909401548355 -0.7215207097318607
Ni 3.829249906766489 1.0210492999170375 3.1329347390089746 -1.350533899051603 0.461466737593915 -0.31309454480369303
Ni 2.8151639825498367 6.753951709482584 5.21978189528762 0.3749190343096575 -0.32519235650849154 0.803815551277035
Ni 7.714057470595574 0.847878733789519 13.00723297239391 0.563901544422074 -0.528820898668857 -0.08839401246437681
Ni 2.342214491950438 7.937473552886105 0.9953660180945016 0.15510745463152642 0.7359266007445455 0.7181535930318406
Ni 6.992199968700612 2.2714419523253366 8.624187476346814 -0.9710017914499665 -0.9427980753222408 -1.9258606545914831
Ni 6.511064311225558 3.673115341967086 6.325570623650788 -0.588189213324845 -0.2174975868329738 0.022635992231961017
Ni 7.96247076485076 4.2604378117311335 8.498691764629108 -1.4955585155258306 -1.0303562221488836 1.4023231158087526
Ni 5.366597111160394 7.634081327162724 9.615354933596766 2.816497988749769 -1.5212844595370252 -0.611222955215857
Ni 3.143264057440673 1.3439688473095972 11.586952621463757 1.578728817697423 1.029671023156401 -2.38774236823563
Ni 7.21378653137013 3.137430130077749 13.043231571222474 -0.33620104891416935 0.6480066997031098 1.294178145969694
Ni 4.7801053926528265 8.884838016638469 5.392451210376117 -0.589200685308495 0.47245254718145724 0.4946645645021222
Ni 6.198281796018815 8.762904267611471 11.925474424195722 0.6605511120270237 -1.1259678354076224 -2.179046438854686
Ni 1.1845299460518344 6.643555135208503 12.973188039160643 -1.3044494459887146 2.0215871961615317 0.7548236947593646
Ni 6.128237330528606 4.7371676872617074 1.158181129795736 1.1574034282090842 0.26394842209634545 -0.2958229022074389
Ni 5.433738614394811 1.7302868501405226 12.411748604892036 -0.13226885947045608 1.0020308928416293 0.014135153849801463
Ni 6.119547112328796 4.038916589048081 10.07475571128851 1.4932458082322542 0.5379310885002413 1.4750488256082532
Ni 0.049655589428073396 2.9094775858698085 3.099095160018882 -0.4354949961205016 0.21926007805003528 -0.245636511161035
Ni 4.032485267523193 5.13665636450717 9.76108363883747 0.30561674836940916 0.8585934183488633 1.1468487926216895
Ni 7.443820620861162 6.240864798626268 10.008920074355009 -0.7314541667954886 0.3071282999179291 -0.15876047800308143
Ni 5.449569559686842 1.1707712117591147 10.26586863769925 -1.2637092879568754 0.4761173976275542 -0.976295435748738
Ni 1.592027438781118 3.105208182466848 12.711977441842148 0.38581459817623875 0.7562951370985684 0.8520088231528101
P 1.683755445493842 5.095342824493888 11.81424149809489 -0.5781873649171269 -1.7123619045052574 -1.6961045621061306
Ni 3.5887707537248783 2.2901198541704737 0.2517120301432785 -0.17553024126225253 -0.09543857801598403 -0.3181434200815102
P 5.271854130786511 7.258880456314586 6.666129167103695 -0.5260428217030876 -1.365717548770577 -0.560678409499086
Ni 1.5501165046058734 8.616206663714333 8.89565831839703 -1.4192851975843879 -0.5094635771881677 0.1665565770087325
P 9.210231149232907 7.032001354741424 8.327851969161625 -1.507191728889385 0.9358918351207107 2.5563368016099974
P 1.4189511489197846 2.8039255048779004 8.284202991346419 0.1928247666766421 -0.44840244821078906 -0.9856694207644703
P 3.291800515242604 5.032681777474196 1.9451620627717328 0.4669228756124797 0.5226255684914225 0.35963871111181933
Ni 4.610902830560475 3.2979331396865095 2.1004406737484476 -0.7396708982783261 0.5480465796676884 -0.21616318429226644
Ni 8.843729830868362 4.007460052707196 11.675288549450583 1.40271778014401 0.747668571771822 -0.5843574982835807
Ni 9.138039798473143 8.002290819459134 10.613258010022856 -0.10518820120358012 0.05125365596865366 0.462028780744972
Ni 7.078495422252981 7.589874159177432 7.713814779217277 0.9466495878578471 0.3178657409400913 0.8237151184144393
Ni 9.347818492160103 1.2993323022703942 8.852665540731605 -0.27686692993022644 -0.06393922185612215 0.22329516735135738
Ni 7.240594594388238 0.1352323031293304 4.769752738511676 0.30782609731590216 -0.13163431121025074 -0.5659041766743996
Ni 3.839993667398049 1.9493251533379152 6.375627587281431 -0.5449152331275583 -0.03861436993808834 0.7341684804028582
Ni 6.323146510152946 6.650098468138759 2.7743572941458465 -0.792510667787177 -0.6804254823534475 0.30901883207242264
Ni 3.6403893430320284 8.757966431491493 9.900816000177464 -1.6441117139786072 -0.3512404597457951 1.8426967801777943
Ni 1.2424678454785032 6.925898551006456 6.831790301929658 3.5140243924495613 0.14732189714883662 0.777906287610441
Ni 7.708578246016316 2.285490049415257 10.757156262214167 -0.02562078589189781 -1.0959869727748157 0.663930570022218
Ni 4.571549490141136 6.675319702914151 0.9813897949896924 -0.06377081459905792 -0.6380421322912302 -0.42520672682061605
Ni 1.2064095072337437 7.515209223215788 3.569411449163752 -0.7265713847818907 -0.01591281457551453 -0.43647664330748054
Ni 5.608915118106799 5.1404367494383445 12.54921180184495 -2.6656822195150607 -0.3714619289989925 -1.0859655839830715
Ni 9.156885717426333 4.30292747150078 0.45130795365389675 -0.6552723801265876 0.821628668199056 0.3646582758135978
Ni 2.922601588865442 8.869053742765342 7.081238768256123 3.4708357728772286 -1.881478271821366 -0.03341971311102632
Ni 1.309114631672545 0.9306206255065841 2.2179173022701724 1.8035154819926422 -0.2299131868885073 0.3730321016995898
Ni 8.425124540440072 5.757432907341169 3.4708694152911326 1.5537299816602403 -1.2384332869989059 1.3945951510368755
Ni 0.48401621744977097 0.5269268534179263 4.308752998008302 -0.011096367023477664 1.0002807429197418 0.42828716551815277
Ni 4.990117443434304 5.761969369258578 4.762785629097779 0.4937248262966723 0.4490449668907944 -0.5281220728296194
Ni 8.063122346857812 0.7638235083445125 2.2936435462976794 -0.07163864738290888 -0.8520188504551393 0.7698836744162805
Ni 1.7285973447762197 3.4519768249190403 1.5397246464728445 1.4121357310238003 -0.16282616343202277 0.0995258607114802
Ni 3.027724292803439 1.3342145207587885 9.057385052609439 -1.2898250112073206 1.682697544671605 -1.2505547528527883
Ni 5.663810041020966 1.3194756866690978 1.0006006844387059 0.4090686836081729 0.3684048873402236 0.659833774245025
Ni 9.097192972648896 5.235469092609428 7.040417144998083 -0.2477214187145218 -0.17495405704380837 -1.0986575776284435
P 1.824227082109267 8.540038908064 11.417137730355392 -0.06097062614610146 0.6975613707027857 -0.20209282224212938
Ni 9.235639069683915 8.013099920077158 5.656121391470822 -2.3132878486704804 1.0564477770296128 -1.3097382051914799
P 8.025318497546065 7.800408929850627 12.839399749732182 0.8449156637514547 1.3608681910980756 0.19035599342117537
Ni 3.6804240861673567 6.663129128296585 8.06950979724893 -0.3682534493640239 0.8649345300755427 -1.1005627650709564
P 7.490156005548448 2.7666070383227495 1.7506878607715726 -0.3026658932712013 1.2788746828434039 -0.28130131155249616
P 2.465809743490397 1.8197372916107608 4.64018541220884 -1.0728889533047716 0.5116166189754286 0.15267184860684027
P 4.445667339074911 6.844363582182232 11.390251259353526 0.46360820941694997 -0.1309838221104454 0.4670205775326086
Ni 3.70166891605218 7.3787326600584935 3.2535262180283113 -0.7781489997488663 -0.9923748578091037 -1.0000382878916325
Ni 3.982005460837286 4.681964732982777 6.45247394536262 -0.44135839687981404 -0.6633225041245737 0.6846904282773886
Ni 3.239257831841167 4.854835668600936 13.347900726967053 0.2841948310502073 -0.029088946946156356 0.48265699851828486
Ni 1.918596691131923 0.7703631075612557 13.189917040550696 -1.846681475857155 -2.2474596373217617 1.758918669218874
Ni 4.564931482940635 3.2353000955181597 8.615293770760584 -0.29888457185189815 -1.27568780047499 -1.6210450619671308
Ni 7.290000958439367 6.192093165872226 5.67589047108992 -0.4732966403493075 -0.25547740851085676 -0.22669647972342247
Ni 1.2919675523674394 5.847611422946299 1.8037364623539225 -0.13911956384370233 0.09557638914542894 -0.11602694369029697
Ni 1.6825326543185732 3.7732162012310777 6.166330542637553 0.35360381777164906 -1.4213996728242293 0.007518419864232213
Ni 2.1749907980195893 3.5526377412098737 10.194801134706678 0.2071280706731917 -0.15408749800744428 0.9531979304993262
Ni 2.4095240122929082 4.41138251474848 4.0909178839902385 0.16726517303998292 0.42180027224222844 -1.272194699720067
Ni 6.405045516044616 8.451036512215234 0.6326964232219243 0.6116556718779014 -0.9615529873322408 0.9357311411731304
Ni 5.099888620695078 0.5144711851409894 7.95094012409649 0.4030782703526929 -0.9565604192136556 0.4112980871593239
Ni 5.445723834769203 8.738971163997812 3.2082652094041815 3.131483579928587 0.8109670747201517 -0.22834558529107127
Ni 2.1287020847512066 6.473661836116381 10.143201213967089 0.5889384327860437 1.5699076198613673 1.1118499079490014
Ni 8.968939913502378 2.683923952593503 6.777485305750429 0.07034975336815627 0.1972915441987441 1.8324517054110183
Ni 7.936465450237791 2.5520398570563017 4.888472693632988 -0.6305170275587786 -1.1146423830924739 -1.288060720218046
Ni 1.2441760194103673 0.5952752795451858 6.667412631123539 -2.5120066122340545 2.096650552955273 -0.5564779982644933
Ni 4.522647177414163 3.0447780292707383 4.369056204944995 -1.1608492206658394 1.2610767354300345 1.9047567827333325
Ni 8.242947323892576 6.650079799571197 1.378722252681818 0.35791504355249326 0.6077229124823985 -2.201855723439718
Ni 4.27235769211906 8.933628317960073 13.037425646710892 -1.5487201871504748 -0.21845043766454633 -0.058041111204132294
Ni 7.9285126404566535 0.45158144816867063 7.038067705770486 -0.04105383261751639 0.06680703032222042 0.2969953252489853
Ni 6.621684908310375 4.149238489051916 3.4940669773428743 0.08019733558619736 0.2259295196504109 0.25141532262634125
Ni 7.626912597219163 5.7720970671606135 12.604636912077861 1.7490800858618973 0.07100152801954224 0.2683375523029766
Ni 7.272461839215473 0.08932629549595542 9.540489310533836 0.8321074562431928 -1.3706949473805103 -0.18002632936039317
Ni 5.877518468179591 5.318413538284534 7.929232313736144 -0.12270512704142092 0.8289781665855916 0.2870783232455894
P 4.320205230778816 3.1678505609189793 10.890439566890093 0.15584047614280905 -0.8504227096126127 0.24726633345497415
Ni 6.03233689896592 1.8489349312767223 3.345264492453194 1.8891715267005658 -1.0744043615080336 -0.03724680016660037
P 8.114731601881182 7.867373081693212 3.239700276892371 0.012183686550385469 1.4654393275429471 0.6584008984532402
Ni 0.2107522594852848 5.318040166933307 9.679154763237701 0.21770507485808957 -0.24218223406384742 0.970563418360967
P 0.5565865401310311 5.386647152721291 5.114546246515878 0.767145449549511 0.7845862707337777 -1.5649775295496018
P 6.024160066374045 1.4552241756914999 6.284886214364325 0.9271793949483775 0.5103989445182435 -0.8763707969369424
P 4.281673307332176 8.881477674477424 1.500775480541209 -0.8889506904844819 -0.19228020702708176 -0.5414249605861127
Ni 9.436027473887512 1.9285283690745645 0.6082405997165476 -1.145484565284311 1.1154635934421886 -0.8449624578289899
