# total energy = -381174.31704885955 ev
CRYSTAL
PRIMVEC
9.19931940860439 0.00000000000000 0.00000000000000

0.00000000000000 9.19931940860439 0.00000000000000

0.00000000000000 0.00000000000000 13.46413383594904

PRIMCOORD
 96 1
Ni 3.3818537428307187 4.768743113020477 12.985712137331358 0.15441788476366955 -0.8924833862280888 0.29883237845772403
Ni 0.047625795691227116 9.089111405776634 3.952759815782618 -0.7764741831496047 0.25314284684040916 -0.37485372828936087
Ni 7.843955947277733 4.656888590254908 2.2353425846538175 0.07811551335650417 -0.32455909379986686 0.716754912912101
Ni 1.006607911016873 8.868704915856387 7.861505488611715 1.0163241695358498 -0.9780540703110574 -1.345139467508909
Ni 2.025322126167268 3.21083839796585 4.065427558369922 0.7173897182826225 -1.6398935621322017 1.0649671273545336
Ni 8.06857572541466 6.976938506566374 3.623158326292091 -0.797593224516407 -0.5096767216402384 0.46474489412455444
Ni 6.714270344009807 8.712702860008166 10.14853720826966 0.7703351601314025 -0.796461424904809 0.12316561161760725
Ni 6.4171875281375055 6.521204230901739 5.6215853226989 1.1354886304138638 -0.38426756540409307 0.2512787970484769
Ni 1.5695050566293776 8.850729446041115 11.728633441152018 0.797237126728569 1.2909920349322284 0.32224510095470954
Ni 7.740491203668524 6.035765353377571 13.280455566318283 0.5352427430348008 -0.47985372474153487 0.032964113630846455
Ni 7.930981507386483 7.6193729664178065 7.99576955307125 0.2540563597936141 -0.9800788140505701 0.34900462843674085
Ni 8.243647970068956 3.6097116813437866 0.1830232162824112 -0.21742122506908362 0.15767264425554137 -1.3554786446513882
Ni 6.861137475842385 2.623811437959556 3.1298586304684606 -0.8414806699279767 1.5543149076294327 -0.41860002013737585
Ni 4.834463049745309 8.582514093976556 5.831343600586814 -0.2305503062518739 -0.25901756045363133 0.3919510500912798
Ni 5.071023544269252 2.350830838523293 6.888317784499606 -0.3711004318945157 0.29792580748305464 2.1997103949619405
Ni 8.862532172639371 2.0613834576288217 4.401478690586902 -0.41339919266272673 1.455305581543055 -2.502165714884233
Ni 1.5484846121422218 0.7267048238446875 5.503478022638836 0.45375059989657984 0.44991991329658 0.9744257295298508
Ni 0.4474576481350552 7.928525289146627 10.057506264559287 -1.6602808675393017 0.6615343018758993 -2.6220233451745294
Ni 6.970618574241352 1.5945088063519548 1.0141577923256735 0.847050193595954 1.1787207016296217 -1.1161392793529743
Ni 0.09862682161542467 3.1060213544268334 8.979998280147683 -0.26997534501671566 -0.8133353178420122 -1.256738770176313
Ni 1.3290348514240158 7.336861872238134 3.45709129525201 1.4053924987626958 -0.9822529388837534 0.10671800758454525
Ni 2.829103446351401 2.3357715529103946 9.59514755910244 0.41528381127994934 1.0532485533660247 -1.7599807919348014
Ni 8.547639474698304 0.7731862242211653 8.795203274977645 -1.0940769002362964 0.384945308197408 0.07910950183865731
Ni 8.483299435861031 1.0546651547809438 6.298548507424769 -0.17838905086728635 -1.4076031332607692 1.5916982333738974
P 5.6171503308882835 0.2568468333349171 1.6303990304754514 -1.6425860213627 -1.8161596531192141 0.6695664281517566
Ni 3.742595847915762 6.3114689513119515 3.603069772845 -1.5511997590392188 0.8920982349745281 0.025689434346304146
P 1.5796979023588167 2.208903741128178 7.618276407563159 0.6761170847860807 -0.978107292146496 0.3105622653001426
Ni 4.070919551962409 1.8497715169119537 2.489141683521078 1.4648358896309934 -0.7001304169815427 0.28505100840291553
P 4.356650407879721 8.323801638697658 10.735263350536465 1.0459126818262439 0.2764527252109432 0.04551906747772161
P 5.1759877769162745 3.115091883207724 9.107718868824412 0.3200090125353392 0.695192613360293 -0.6776317216583942
P 2.3557248763645044 6.304357877531395 1.7795411539586525 1.120843112586547 0.5553500553076371 -1.0140232893168148
Ni 0.02324851960960174 6.4292662343132765 1.6388007687468382 0.5763618816726139 1.0167455733439843 -0.9598506599291533
Ni 4.423584654745605 5.4012515074007315 5.9798123339008855 0.0705649547027559 -0.48059780199641094 -0.4146950286560148
Ni 7.471926277472453 4.201559084637288 5.253691666828598 0.2162248907681373 -0.3018400549357963 -0.6551479387335813
Ni 6.1528542887966164 6.418319044405305 1.8464717210968364 0.9593402959516382 -0.44361968211016506 -0.5286720317958185
Ni 4.6027229985085745 7.813377410089415 8.382002051867216 -0.4446144419232665 1.7573060733161154 -0.6774502017752074
Ni 5.358180294670375 6.336914268358547 9.928465573570126 -0.17183582312980084 -0.19581778786669501 1.3488850505942707
Ni 5.0605915162393025 1.0251537386256722 9.628821667218514 -0.587057413713247 0.4791006486255942 -0.7349809490018245
Ni 2.641694914582326 9.08714275145705 9.607264902419061 0.25095818048426455 -0.3983487260875075 -0.5011864247810401
Ni 3.530956309241143 8.644471509127976 1.7771309323150488 1.0247836131571126 -1.5148914115264878 1.741376803680369
Ni 2.5717800882793136 6.394897577593796 9.52066435085968 -1.7810743793803068 1.6187071578625734 -1.121632441257062
Ni 2.370452986484389 2.9466431484137163 1.4565502952814604 -1.2801615199756273 -0.90770971625954 -1.0751957470610773
Ni 8.713604393294705 8.266793457302953 12.495510772231261 -0.8634360911531452 -1.7980575442018645 0.4506171964739207
Ni 4.427981929347294 8.801605081243997 13.040336775108287 -1.5898647797095844 0.14393781116795212 0.37136319863759915
Ni 1.8980587436572844 5.511137375846715 5.326896169695552 -0.9806832804037885 -0.3673098545038319 -0.23632628950370266
Ni 6.390445107076603 1.6348570205841935 5.17228689078184 0.3044764641173789 -0.5327441449826632 0.10493906130725154
Ni 7.166582472913296 0.35687655113602723 3.288614962500251 -0.27658050903805914 -0.4972675493426082 -0.26960382060990984
Ni 4.408488571855704 6.513375610219651 0.5065467155442013 -1.6946724576452943 1.144113138858081 1.2448016524190948
Ni 0.08548283427045832 2.3483930189219384 1.9094567002085254 -0.14349069632820446 -0.4856613325622475 0.6748647004362184
Ni 7.669389665182211 6.377538462168298 10.834898417541732 -0.9789344160334817 1.5120608840562282 1.1007913361419945
Ni 5.982998058157298 0.9979421522829997 12.081972854036268 0.8479824756022364 0.48904567565344803 -0.29188628615719403
Ni 3.2467709389578983 0.6399561632453747 7.347081395993398 -0.007088788525981339 0.3668079751667489 0.24661995812022688
Ni 0.07667908574782897 5.310049456352301 9.663370630595304 -0.41704655960732695 1.4519562054548478 -0.6196893408156554
Ni 3.816089209407179 5.019636146936539 8.354669954442365 3.9270214645778623 -0.9507168159486854 -0.8636492356052158
Ni 1.7503452744536694 4.477133892102162 8.463796879050191 0.07357880182841521 -0.6369977501871159 -2.425550954442971
Ni 6.467204226901911 0.1471697894359163 7.456786957782076 -0.8034738516669001 1.3513412254442467 0.9250417797800843
P 7.21677395874346 8.474284102995643 5.676060931503972 0.38566161753814227 0.9070466287542442 -1.4364946194841388
Ni 3.324440791388995 6.59157902316727 11.51638490754302 1.2206764772361172 0.3240402451819194 1.731755478540521
P 5.965298567919534 6.2938890522244435 7.72818343444342 0.04971845027104986 -0.6646975300952295 0.26498740488382105
Ni 8.922778514410219 1.3060181546595242 13.074966692494478 0.28210066752533997 0.509042173380033 0.2910591622702084
P 7.975552209154653 4.299559432611761 11.127998848110536 0.1262995292608986 0.48780177594401797 1.747135303430701
P 2.160377332082337 3.02796513058722 12.760443807187277 -0.29293169670257296 -1.2424205537814281 -0.9370822558843861
P 4.835005809581083 3.2647280101346716 4.881489049821411 0.32075257556958303 1.416492208220283 -0.4444943714056345
Ni 6.996496259292718 4.789956743211891 9.06427048400479 -0.7701677813156026 -1.0502563035069201 -0.5518155597918174
Ni 1.1079292132407388 4.979251135427298 13.423081811976429 -0.43622364675641 -0.2512775114968963 0.3350381389543197
Ni 6.31421034844857 7.794187630133089 12.581747950680251 0.8659241476823216 -0.24907587585988714 -0.8079056621860086
Ni 5.599772816824285 7.748632601205125 3.7138930519226006 0.027663784463855583 0.6166559533059703 -0.6511632430542206
Ni 3.364384235574216 1.1482958261114782 11.500241942122427 0.3927874299496461 0.9493248206971651 1.1517662845279648
Ni 2.978417597104585 3.5421426814496253 6.3893641870646825 -0.38590767211067734 -0.7659933382229389 0.07449977098078782
Ni 0.3795777112502304 3.2327143791432924 6.168323864048083 0.8614913087219485 1.0817787995952337 0.5629283818755273
Ni 5.736023934241906 5.149594929986888 3.7068104960317205 0.37754644463017556 -1.369604799640125 0.9951902157707119
Ni 7.3879180940778335 3.008361381264625 7.4168122359114035 -0.24518965343160354 -0.6509850656051434 0.13246349197976542
Ni 0.8725434717850714 1.9966938446600342 10.905907962835542 1.5156095206394349 0.5036346292112166 1.237234124484482
Ni 1.7103650329914468 4.233121948985398 10.831074260529343 1.0972663537078715 -0.060030373720019195 1.453790173339793
Ni 3.8196033493608303 1.3819401364330455 4.955366942857494 -0.28828905572423896 -0.19668964894868704 -0.3172954702589181
Ni 0.9265186376229222 6.42493335494634 11.50428044327335 0.33046028977565023 -0.7397120359289067 1.9805891564826148
Ni 4.248199633236798 4.196306273345312 10.839664584845364 -0.17755678477397807 -0.5038994528368289 -0.9847710773199169
Ni 8.660377132111911 5.20117551302386 7.271184252381854 0.06991086605852476 0.4441938094460801 -0.32818074971285416
Ni 3.94839381886638 4.279412923453393 2.2998629301483975 0.8693334304741867 0.8635073107107128 -0.10409831057351104
Ni 2.43198723295029 0.7997179808712336 0.4554178190824232 -0.6627144382269297 1.4940405362194078 -1.6772367786673503
Ni 0.07425138539764936 7.73900091394996 5.795797431003282 0.4725769885744635 -1.0996482236764866 0.7848593218895062
Ni 1.3700270180037823 4.610358433486403 2.5383525219191485 -1.0848790357871123 1.07787663632735 -0.7475058209417126
Ni 2.880573637557369 7.114882298726069 6.7213630191518625 2.4791396863027044 2.2095623480553557 -0.9029932846204771
Ni 6.1581254987270935 3.412616266404044 12.183020936478396 1.1638111315076407 -0.44745062582048106 0.026511416026967244
Ni 0.6488601843478333 8.90911752532338 1.4463841275778473 -0.7164144988535468 -0.07133757120272231 0.3861388142848769
Ni 4.440539000124086 2.5120121111094886 13.411946955955749 -0.388334279274299 -0.32372837036845536 0.7564717718857488
Ni 7.554830542557026 2.4587296540111927 10.262389823176415 -2.1552346811470686 -1.1802037139330512 0.41785362888965455
Ni 2.0120015118926937 0.7891921197849301 3.162630285366072 0.20918212498874297 0.4993403727112369 -0.46902192423335354
P 2.9625763693554026 8.30897233606602 4.629426782428625 0.35873651101252413 0.21743228081267718 0.2203278571929173
Ni 7.56839033913211 8.182214916114809 1.183778520392182 -0.4685501268032575 0.7070207163434726 0.11659490037862501
P 8.655115121500685 0.5552065147191729 10.952197097439687 -1.8003548248764736 -1.2969924754900373 0.3952721440447128
Ni 2.1173613152674835 7.519854730767019 13.426231658887765 -0.06466504427855316 -1.0239032674346882 1.2846282974977294
P 1.2411353559864786 6.503348352236718 7.57943228202836 -3.2823631125216957 -0.5273296588353111 1.1234026457836073
P 5.8229942984351535 4.160392130991764 1.1482617886302517 0.5760381797846079 -0.0869739921883986 -0.35157984536308484
P 0.05924729570025287 4.995819109397262 4.156835674169561 -0.936396285560955 0.09018761402968985 1.043827517162441
Ni 5.557446748953211 5.5779520315623445 12.29983573218378 0.7089313031026242 0.36880726498496486 -0.4976527005961687
