# total energy = -340862.3240582319 ev
CRYSTAL
PRIMVEC
9.38865081913175 0.00000000000000 0.00000000000000

0.00000000000000 9.38865081913175 0.00000000000000

0.00000000000000 0.00000000000000 13.74123949316888

PRIMCOORD
 96 1
Ni 0.9988210165503428 0.3657386519666613 4.490019026319436 1.3436582549776925 -0.5694661829940451 -0.4442318617728672
Ni 6.1014401266109966 3.356292484729972 0.5693568964785225 -0.34888661480163785 -1.4129181177157795 -0.9136214537582846
Ni 3.7204688651838964 9.267612430253754 7.9729287350582165 1.6625038433325496 0.1730208445768375 0.9001689277978046
Ni 4.920329063838957 5.103388979435921 4.222682824623149 0.0435467742426992 0.14074013016626086 1.719034688539743
Ni 4.4766871420160355 7.6789869743908215 4.393760943918705 -1.1454830226224142 0.855233757848011 0.6494071795950622
Ni 6.0086239236367645 3.0271357721997663 10.384268526744314 -0.6099307187669947 0.2964193981408572 0.7903090321501679
Ni 4.42072139389451 5.648559772284874 11.02668508807056 0.8908486788381431 -0.2371297592416045 0.9966472599322126
Ni 8.892113336792857 8.53864940703624 9.014913135338453 0.7949786697116954 0.07538063092384437 -1.2498343297469958
Ni 3.2851077334705514 2.1295431898460824 7.38234315998926 2.0080433960388255 -0.0841887161337776 -0.6125247047464162
Ni 0.4251397074590415 8.70555145440352 12.06891734873503 0.4854895828710735 0.2907984524096541 -0.5538796414096978
Ni 6.013515410764984 1.8543806087446455 8.090113181489825 -1.387285761859656 0.5084153384293115 0.28967719432101724
Ni 9.07601823097243 6.39670380932763 12.858488807952961 0.7191329262259745 -1.0923473191396993 0.7536877813827084
Ni 1.1564470768107504 2.765549180325594 5.631242405666831 -2.5699088838674773 -3.6378996285396834 0.7910245701599538
Ni 6.145407178859463 0.5133282443958473 3.6396973624722215 0.5610044253799371 -1.2198375262745895 -1.7444870671745765
Ni 5.55406300079634 9.136443588279953 5.802279214898348 0.1707294774394995 0.3131354253439575 1.629627147209187
Ni 5.652108682331836 7.0205984401230666 0.48176923320046144 0.18392206487037355 0.5194908795171828 0.915991496652358
Ni 7.637949181228737 6.1136265955024145 8.344780337637514 -1.8192794296951185 0.661263564713016 0.06171753161445499
Ni 9.02207104279825 4.543468615994966 6.564286533886457 0.22973140989500432 0.04482332696227764 0.24965925916718293
Ni 7.9282087130061365 3.67392932258393 4.416420452909025 -1.4668292659119382 -0.6900905162470373 -0.7609017826326444
Ni 3.3232819881026803 0.16566368431121065 10.963791454436725 1.1790806560722018 -1.8054594930928907 0.7094961744671587
Ni 2.7585076921371785 2.4225348190405867 3.7856702292133475 -0.018138104361607472 -1.4682647128068842 0.20317474245239847
Ni 4.132170596584166 4.983495907214502 0.3178940868891083 0.533023881006611 -1.24420824180947 0.797941094774129
Ni 1.801588224633366 3.792996193524575 7.726616539362356 -1.1755569591896593 0.01589301708117263 0.6614157740201642
Ni 6.7129699041475765 4.403821822242313 6.260509222517484 0.6215148240601683 0.22444085092002639 1.6463637432375773
P 8.312091871736706 0.22179842814925793 5.0242642460952425 -1.1506486259837538 -0.06816045902632131 0.087020786265934
P 5.916990690678186 8.03066706047304 7.748616026193148 0.6191769199556111 1.864118954607312 0.8627596339114109
P 4.530803325906737 3.7009310826237733 12.343027462068571 0.7140128313905896 -0.1613017563676964 -0.19855575562314837
P 0.38772217809089404 6.765696567702431 7.89097520119598 0.47691315405597223 2.9638977903243924 -2.588974899359993
P 7.147814660060439 5.311291265361614 10.425959770010284 -1.634871940547894 -1.9084542861895777 -0.2311807407470212
P 3.972206762245205 1.1909503689339855 5.440596460128215 0.24311862983518773 1.5039459682585776 0.18913163409577105
P 2.2343393113915386 8.22181999316122 5.149323892916776 0.8617116522628708 -1.5027198091609604 -0.42498226951463586
P 7.573355262913673 5.691982282780102 4.924737035444905 -0.38110819383950495 2.0330728282036277 0.12133164373266199
Ni 8.059377554979937 8.67889707444764 -0.03003992747687174 0.4975585982204656 0.918466954776044 1.1678400501613757
Ni 6.595996702361621 6.918665857107566 3.3012637239700515 -1.1464731544498254 1.4206180574631986 0.183381104765239
Ni 4.834235134921932 3.528724447487887 6.298159590428395 -2.1371523697240615 -2.3065021932072147 -3.044568208892266
Ni 1.5998824483134786 0.9122276114044859 8.132821215650202 -2.4966406713009452 -0.051978449949820156 0.3051218110108616
Ni 4.193084163739418 6.60057836400955 2.5227267461759113 -0.30925151690851904 -0.1763077428582254 -2.3286998123501763
Ni 2.268514000732648 7.162949165340072 9.318965534179322 -0.8832924637574401 0.2393913015822716 0.9566519504861976
Ni 6.08525409242856 4.857030779350562 2.283120863830697 0.42123360110548097 0.11374971762034602 -0.5891312655231402
Ni 3.0234272550872 2.391965371651946 0.48248370953531267 -1.5240602225099493 1.1492088082134337 -0.559972641681313
Ni 8.524350491688299 6.771339146904081 10.658241565774453 2.035864789126468 0.8950935701574262 -0.8483005210632873
Ni 6.213258959043033 0.7322790947217102 0.5769832976191223 -0.997797828596888 -0.35690460001010793 1.1437596121734044
Ni 0.22129050213460025 5.151571535946518 8.936917856703198 0.786088309200601 -3.15842565573507 2.846130466904221
Ni 1.2472822744413086 0.5772123807015187 1.9741901219728952 -1.3370705744578457 1.507443696999191 -1.6864752665464824
Ni 9.341444781072019 2.0258830950616904 3.612420514960484 -0.9660035669044265 0.7010115340349152 -1.6695756625776668
Ni 3.5010654818837916 6.8807732620029745 13.00157654226702 -0.5850771500584246 1.7852519077967641 -0.6167680534038024
Ni 4.577831078354434 6.7467127155464635 8.686716881797148 0.23358137976871385 -0.8888712433967981 0.924856917462788
Ni 7.646164250781889 1.8287026484842244 12.028531127946646 0.05853142057698951 -0.6455649230308366 -0.11777632228123586
Ni 2.610317226049248 4.190849664820961 5.546788674065161 3.5932495939304765 2.0598441827602008 -1.133009829856068
Ni 5.32197555010617 2.7822234243557618 3.6295839077034735 -0.3761631911294038 0.6794906292440039 0.6348511361577583
Ni 8.424380136714637 8.623137876646307 2.494364570618066 -0.11844223800000891 0.07045722548029801 0.6322738623488853
Ni 0.6244504389297761 4.352315683306784 3.980878120232965 2.239500787486001 0.16800565075043325 -0.7990307282938819
Ni 0.659888840684433 7.466315253798842 1.155458451869097 0.5667600969167917 0.15533988235730667 0.1403467513825841
Ni 2.9774510315423073 7.34683528221781 7.046521444172446 -1.0870094518665538 1.020517381681591 -1.800849505124705
Ni 4.978012935078456 4.143380645780123 8.31781988766171 1.2204471348341301 0.9415747444381011 2.045432378210245
Ni 2.7721118473171975 8.655322171992825 2.7671424343863595 1.8612082087184205 0.39661965921154274 0.005585978728209735
P 2.396274762423256 6.11418052590657 1.1332664976944868 0.19517192675258 0.03125175892543005 0.5893516090640624
P 4.922507230851907 8.860238866926629 2.0915811187246973 -0.112807922532367 -1.542642356387511 0.793554278560343
P 1.2923571874980848 2.9883794212107277 1.9949803505654646 0.38204099006641945 -0.1034827884766992 0.7284932843949518
P 7.902305425123686 9.236329445395354 10.748218640711118 -1.0212527171857186 0.0338233763073482 1.549060858319345
P 3.5574912739002933 5.3997699116117825 7.192439856738248 0.3200943731602939 -2.2315619922548984 0.061029504408494896
P 7.9085019347294905 1.121774788970993 1.661233526601504 1.9119206474716235 1.0086949351253662 0.2789973460096679
P 8.609496166862618 3.76413548060299 13.376176202969983 -1.0529384783247737 1.5239177833948143 -0.539922150788341
P 1.4269904416605865 9.236085340471488 9.998936699177115 -0.2179380168045021 0.039032431312113425 -0.3018343985088415
Ni 1.732459587924963 6.852109710750664 3.4961561563188286 -0.7028023073867509 -1.8972468475095325 -0.24068302381050166
Ni 8.540959015162041 5.752492137945885 3.0009902571236338 -0.042246824484353046 0.025338992985420878 -2.050740677797036
Ni 3.76360032750067 0.17960958638464022 0.25715045431547023 2.835380941697201 -1.5190090332392872 0.8765464032828583
Ni 7.610027333398941 0.5577816287618594 7.196809334875433 1.5469250429232648 -0.3975141460013541 -0.011562250916302667
Ni 0.12236416514300687 1.8941039907782262 13.478108785985485 0.8595961485817647 -1.6852118264530265 1.1904755281727046
Ni 3.074294965760313 4.585050950910289 9.501283746353772 -0.9801857719420798 0.7526061182827555 0.4099202329751908
Ni 6.954924826952446 7.444834020498717 12.195789944048805 0.8659508871551991 -0.5810474600737412 -1.397719041377838
Ni 1.3636264366157662 4.067088468421373 12.89982234361896 0.5852830954216436 0.20279884717021848 -1.0106931965023174
Ni 8.931235845167693 7.39762788368358 4.5613079916040435 0.8315675245793227 0.9784446208812569 0.17707470293123698
Ni 8.876086909676022 3.769637230040871 11.045689595258548 -0.827591056430078 0.6203097480084736 0.28530066251987635
Ni 5.572295760878877 6.608342778318642 6.194166198536418 -1.1347823483754587 -1.3928575995204786 -0.2285013941426452
Ni 6.669171847615633 1.8965356513659588 5.398987836990322 0.3128430909145193 0.4089936073958633 1.0708698659922138
Ni 0.4859133837156169 4.930215313255491 1.217979356061491 1.3648102064649592 0.8692951210370835 -0.06259890577814381
Ni 1.7950631122454346 1.7256058727549053 11.42158113432781 -1.6494302979780433 0.33263390038820134 0.9173657512920652
Ni 0.47888128417811937 8.713184427599764 6.544801327771474 0.27870346891833286 -0.9250381802356584 0.925745233605012
Ni 8.272011720968246 3.4704584798914793 1.8411613882522606 -0.8085934322816526 -1.6421108814984948 0.24294867991622676
Ni 3.084622481769989 4.540727129926943 2.8845475141145385 -0.9995322947894915 0.13739949582880207 -1.070804817082233
Ni 6.818122794427913 5.0678998789663074 12.822980930181512 0.20744843012708788 -0.2058180936125165 -0.8660282773603537
Ni 7.618674280894314 7.591118590450316 6.466269957168807 0.8714486770449766 0.4172638178244556 0.012027106367863158
Ni 5.395263359171197 1.0727472538777862 12.284159681948326 -1.03426815560878 0.7258710162807563 -2.058842223858248
Ni 5.607296651500761 9.164215217695062 10.003691112001933 1.6256679054511227 -1.696203806688156 0.06378829810055466
Ni 7.519361131484905 3.678510984231859 8.549743975825908 0.5839782605672911 0.03126307177933971 0.17652911484041212
Ni 1.2849589305747897 5.987123913034803 5.754308841898496 -0.34031507108254294 1.8292943907289594 0.5918054699211936
Ni 8.629465827364964 1.6601951418099854 9.65221757623991 0.23771648498301 0.26674732499772125 -0.6798698669602937
P 1.3395445470113856 3.3037629828443933 10.03603783100933 0.38391275316783563 0.5209700351658706 -0.6008647519099845
P 1.9030795410557262 0.3629990436288218 13.400635516341264 -2.898904673282459 0.599430076345987 -0.44424266040614463
P 4.464481895822782 1.465483910423924 9.748269108320446 -0.04974904639866916 1.7035692459142922 -1.1072818289623447
P 7.787848381783723 6.6756218507962215 0.9629244486308931 0.46228846216426184 0.3559278379191354 0.40260338759880343
P 4.689969124917678 2.113019164230601 1.7315338669444593 0.5591565735379208 0.15569392326261575 -0.2403125278449603
P 9.18969601628621 2.516881372114435 7.465546323288668 -0.5122815062529371 -0.6891955152365937 0.4703874371223125
P 5.159120011284499 8.277297531435016 12.337036563917867 -2.677623708147653 1.265408272925853 -0.15368332059049017
P 1.9720391820476075 6.516596881549049 11.45319929402398 -0.34246682731822303 -0.3462144672861134 0.1578233109007927
