# total energy = -381165.9049480464 ev
CRYSTAL
PRIMVEC
9.20502512171461 0.00000000000000 0.00000000000000
0.00000000000000 9.20502512171461 0.00000000000000
0.00000000000000 0.00000000000000 13.47248472382786
PRIMCOORD
 96 1
Ni 7.372295188575793 5.4355579624382315 0.9012621409870885 -1.174412304062255 -1.5049132172678532 -0.5668490570861722
Ni 0.5223492600196039 3.296945336555314 11.129026913329577 2.8870598581287314 0.3368769919352715 1.033168237676382
Ni 2.92844978219819 1.600707794387791 7.371739205075513 -0.549507223373615 0.4038794260977495 -0.18869814610277824
Ni 6.535374330208744 4.594347562496182 5.790028740950568 -1.2357804227570912 0.09804644795247631 -1.208683566540299
Ni 5.167903455192975 2.8500045605197477 7.348162374955237 0.19512590400599297 -1.994847723284158 -1.909930099404156
Ni 7.980728920387772 2.235237771618497 10.609433637746786 -2.471053052639828 -0.5685567838058982 -1.9257428980666964
Ni 0.8200287172848956 8.249893051706634 12.961324848145683 -2.629309594423298 0.10096310737863902 -0.8519453169047264
Ni 6.479794390230519 6.345124876835117 12.09380464620864 -1.172041232726917 -2.3261425931459616 1.0932384634954013
Ni 3.5582207615871035 2.831401205320014 0.9425052547784827 1.3723805626130492 -0.3981486942615594 0.8471273266907927
Ni 0.6119979174296625 0.1282536110825791 6.811190012476308 -0.4807798361002301 0.7705745298357181 -0.062004980947886756
Ni 6.927094162234808 0.8965399632446523 13.022732489349515 0.7222161931369885 -0.34244085917629413 -0.0311226895467335
Ni 2.248962463653531 8.104361609001145 1.4529128360743782 0.07329366648782862 -0.21517613778864875 0.8310126805171173
Ni 5.803206654510162 6.8915351512815315 10.040328374559678 -0.34146512552658614 -0.16721246542517657 -1.7420087808374127
Ni 2.2445808718301397 5.678303672468999 5.809240548292164 -1.0340403558686901 0.03331506921236198 0.13673949364729998
Ni 3.8666351188197035 1.8422016210404475 9.646703102391927 -1.258091941770098 0.0830008664732635 0.35368043664585536
Ni 2.8213032930715682 4.3816930786642905 12.436261946803524 -0.17804580859525465 0.9352151207686604 0.7727527684339595
Ni 7.863742259708199 6.859418819618062 8.04754635468952 -0.03327778821652333 -3.4626666068028755 1.567095604333869
Ni 5.089761999334222 7.074061588815189 4.862259810436931 -0.6119243521582558 0.13523565540826388 1.0532953474435602
Ni 8.76974682949237 4.169931482241788 2.349493301428322 0.18613192803749878 -0.12440205512786963 0.01402073975912424
Ni 3.3692047815419106 6.187139035522383 9.262697081180992 1.9928270933097034 2.91731017237284 0.43574027936208826
Ni 2.01161089817845 6.2478461743359635 13.36265656710869 -0.6128093258663705 1.5178736340832635 -0.5452641318265449
Ni 5.507716152151598 2.0156334940331178 11.278881035699486 0.21015348776307674 -0.1885582780908043 0.7295482080220274
Ni 8.746789497543762 6.094785021312127 12.433432322167999 0.8520923840055519 1.4884360455484367 -0.6637685905230569
Ni 3.4563579567181004 8.526586893343843 3.4645568723422486 -1.1066709348512231 -2.326258035677903 2.8557314803290947
P 5.365820694257536 2.244470411532071 5.182015678773734 -0.08727069749321098 -0.3450541284294251 0.6296953029884317
Ni 4.657263907271135 0.28303702425380395 6.045265669687936 -0.41738234568019084 -0.3470143374795895 -0.07024639502107256
P 5.103808867238623 4.0676636562798665 1.9796464494248247 0.6983108472743005 0.04100883831219389 0.027921923221248687
Ni 5.22543486043708 7.449801497720651 0.15364567210111743 -0.013246580597261057 1.1170754180139988 1.089322930491079
P 3.466142898122018 7.168422298440361 6.497644774398417 -1.0202121917363463 1.1115588590711438 -1.0136311960847189
P 9.093027301840046 1.305824823668605 12.066670994490552 0.6140095168220586 -1.075167464926303 1.9598526952662119
P 4.121973302830302 8.393224493475588 10.195558231435598 -1.5511514222997866 -0.43047877385283284 -1.3029368659989304
Ni 7.457460078386746 4.031156527768166 12.080830163697991 -1.2351039655153568 -1.0171932024043642 1.8618026477693095
Ni 1.649282710463494 4.181299687918023 4.237944649270127 -0.439634729320488 -1.1836785598555293 -1.3003832463391412
Ni 1.857822548192327 7.618446757797012 10.402980579148966 0.8684793100040075 0.6612689640296546 0.665746283074718
Ni 2.903154373940462 8.839364432350157 12.803360178390081 1.7991968000126304 -0.1361831069231977 -0.8823190441005772
Ni 0.3297875044064059 0.44314186228448754 1.2723617968711816 -1.9085445319105385 -1.633922432150431 1.4416805345604526
Ni 8.201852027071595 7.745393255352445 2.7673020148532412 -1.6231513096768562 -0.23139979873636277 0.26491978487067924
Ni 1.9195882648623985 4.486648771879216 1.2465021205908189 0.7334218320448207 -1.0017210749106944 2.5011655557544925
Ni 9.036941085495672 5.0171895835030975 6.273597231323225 1.5948354934512985 0.5295618905999395 0.9344003381768489
Ni 7.222483409320142 1.3383185613504753 5.8277656607807655 0.1559777730516217 0.6107676128459933 0.8385264723956591
Ni 1.4937269957082724 2.038673671205277 0.5606587323947908 -1.2316442891015307 1.957633833238022 -1.5126468384666851
Ni 0.5399336189696542 6.336444538411886 2.0041529870538457 1.454185866116315 -0.028953706919872715 -1.8742668416745913
Ni 6.397924899311946 2.405245375371038 3.201843622430598 0.8647429828900269 1.1826418910608987 -0.5578293700860651
Ni 2.9260472707151965 2.196236081375413 12.234672823330664 0.5090347171808653 -2.8518254604064692 -0.36159789172071916
Ni 6.099424353831011 3.3266315416612726 9.27311072578142 1.4285514533776624 0.22626273462011354 1.3882627810609447
Ni 7.98797327493611 4.97793015256452 10.226060001742294 -1.3353687612753904 -0.3900373780083347 -1.9664095225481233
Ni 3.3753997632585957 3.257860801088679 5.530589718374171 -1.2214043565410773 -2.2188376027096948 -0.6978768450606755
Ni 1.5927454479020067 5.378735344106733 10.621935902483195 -0.11268630935283819 -1.2040779494474876 1.3757857316398565
Ni 0.2948378660974748 3.93654728247234 8.697875836553981 1.3474303204256148 -0.3207307211927121 0.26664190976810853
Ni 1.628405714128513 0.8382178463668719 4.789495009586671 0.5667397852018176 1.7300176699138075 0.9856894753691281
Ni 5.899353138954111 0.04912629706356251 4.015110328468722 0.8759951587650784 -0.103808290136918 0.37008484614580783
Ni 3.7412902955862664 6.687772721444169 11.799268704925886 0.5458475151338407 -0.0022679700985702876 -0.588704976618999
Ni 3.91888283980619 4.220034432440774 8.827912460947886 -0.5727050016463169 -2.0798933881015924 -1.4698189446678815
Ni 7.649384846281082 7.9547431352671145 11.343481900019988 3.4300681040415637 1.318715983210058 -0.4453461778829685
Ni 3.8290602074266733 5.951039353425415 1.5638996615638543 -0.6357381667484019 0.6287977308748267 0.3174435658010081
Ni 0.91977068443098 8.119614335159461 3.976471316204298 1.4024419007748041 -1.45060920450865 -0.9454763934853524
P 8.189554113886617 8.617182747809842 4.759384452835632 -0.9476919130794325 0.14586536720796817 1.905222152405525
Ni 5.63457059945864 8.753997031992743 11.573011955889323 -2.7952123398981152 0.56339375154772 2.0495042342867738
P 7.705848468643857 7.4169119439707005 0.6981900880126551 -0.18238377384897622 2.189223379387688 -1.1070668847380611
Ni 1.6024475440823727 0.5765576512968097 10.879435426326001 -0.14371798184766216 1.09611552793288 0.6740764002069681
P 6.107267034993888 5.423416534675516 8.331883128450597 -0.13512561219296085 -0.8257002671652682 -0.2651375573084402
P 2.7472488682413565 3.4088876436230846 10.540023147947878 -0.6961349226689043 0.706789574169273 -1.2090841444128275
P 2.117256968256305 3.732674392336909 7.292642267638466 -0.16540215168931513 0.5075252225148744 0.1004026068894787
Ni 8.400165082204238 1.4527186100502743 3.792666300720494 1.793357567623034 -1.4350221487036705 -0.8573541466251234
Ni 5.759243455878826 3.0135226217607536 0.006021006747227086 -0.10625520901551377 -1.2614909401493177 0.6481298555445354
Ni 5.624141306315989 7.2015695928858054 2.536235640338268 0.5153033237983964 0.32833295902000226 -0.016163497133739903
Ni 7.154016434567238 8.71370663827219 7.2415681873189595 -0.1035853754928345 1.9851814038389877 0.030157754530302904
Ni 7.2314951286375795 0.47729342493987237 2.0019704756645056 -1.111013528090635 0.04732835277231849 -1.3461331988807461
Ni 0.9440765525185096 1.539301073686443 8.943978619143554 -0.7517453129443569 0.1771634059903013 -0.622791891000379
Ni 7.216113532131515 6.726084034824324 5.820180720313383 0.7251351665559963 1.2584614092943747 -1.211602539959307
Ni 6.7872974500040515 0.3807612499551671 9.890083038634108 0.6759795307669519 0.1906634973592652 -2.0082552549393156
Ni 1.3691001644122816 6.061481241444419 8.415317473591807 -1.5312629109059757 0.4392043266512888 -2.286012043673663
Ni 9.040282509512249 5.680402418132305 4.030038117250221 -0.4609324623569997 1.280072302695931 1.9123567065677776
Ni 4.232479626023179 5.052702569332179 3.7861721556965398 0.34807260354077474 -0.6498841192314808 0.8720338601244851
Ni 0.4375323201475663 2.3788821842319794 6.634040229951142 0.7372134378767691 0.8054520584391933 -0.4836106206808058
Ni 0.1963431798170826 4.308393465870881 13.468375356882774 0.20970020227574207 -1.0295319264753753 -0.7960881007257903
Ni 4.912114224965264 5.018441466881209 13.230276343390761 0.46245224143563585 0.9747023802300052 0.6212109196665043
Ni 7.9177849605383015 2.753434644933203 0.7794750598539467 0.312250708746159 -1.5229888438226415 0.10744408711729238
Ni 5.039079132570374 7.402607335370807 7.661693805495869 2.120112126412323 -1.4458194964294908 0.6470939580808533
Ni 0.38300727601589696 7.217383825559305 6.163823628107537 -0.2454336511216096 0.1044423241764911 0.020675011850848267
Ni 4.189004293708313 2.4083290586921215 3.4412635569870154 -2.0864563860310903 0.4104622215215899 -1.0116825569987802
Ni 4.918658997625832 0.31934716523394757 8.433290284590067 0.3262678489608574 0.17599998180981946 -0.4271589654509805
Ni 6.85348157859687 5.074288352579766 3.161897496639027 -1.6532494146138175 0.1371660396617573 1.2823204753001594
Ni 8.24202275546924 3.421121121634191 4.890296475091731 0.531208167954111 0.14549821367653654 -1.5254193076410052
Ni 2.461773432907686 8.538139199516861 8.079246619230263 0.9707819621296765 -0.5424508307474657 0.13418793087003986
Ni 4.564376001620213 0.4009432669147992 2.103593949887693 1.643559183909247 1.622456854712993 -3.5877872852643247
Ni 7.739317938958668 3.6088299881522383 7.334851909037961 -1.9947924445661902 -1.2593692658206246 1.5800665626722399
Ni 4.754735915291908 4.3913031245962655 10.9921997421119 0.7705359632882988 0.350652448452809 0.15728620745040006
P 4.475611947097187 0.9309501870980146 13.274600378995789 1.8053759322401488 0.8771670675859926 0.4343290008368584
Ni 0.20150996025924522 8.300005206930459 8.865245280187649 -0.23549453763102668 1.4654200442692376 0.3522485892953353
P 7.539228314032089 1.6731329298214903 8.230084758755467 0.16326273674880915 -0.7738472870497188 0.1428301799260701
Ni 4.379723203348733 4.862554371231782 6.407244066459008 1.1005794772415045 3.4494305677285753 1.8853876341781013
P 0.7884435155546399 2.6514521747412916 2.899750355754979 0.7202271877314177 -1.06133261592574 0.1862324581711051
P 9.061131890772714 6.666113297997868 10.195720239872763 0.5563070199042677 1.648734043241967 -0.05715459483412092
P 2.4222930813729713 6.14394905897753 3.3676491323441096 -1.0497207427184243 0.9968784021064122 -0.5559766331480425
Ni 2.238993421752832 1.195281680376371 2.590839847683554 0.8218320424591137 -0.5362061353893346 -0.32530317105474293
