# total energy = -340891.0816102079 ev
CRYSTAL
PRIMVEC
9.09171865813264 0.00000000000000 0.00000000000000

0.00000000000000 9.09171865813264 0.00000000000000

0.00000000000000 0.00000000000000 13.30664926118066

PRIMCOORD
 96 1
Ni 6.4447646488852275 2.0667021682539217 11.586139628229246 0.802360049777431 -0.9613866369577055 -0.5096173291572127
Ni 4.643031523824699 0.4683016901671409 6.025130927707046 -0.1455817745292783 -1.473328757593353 -0.2367232678318052
Ni 2.7255426391588204 1.7716849955054188 4.777207105057476 0.36747080556172845 -0.44186233309942613 0.4384473938806062
Ni 3.50122078416742 4.324257690704786 5.087118331009362 -0.9992528158758597 0.744329222985944 -0.32003832311137786
Ni 5.519618652171324 4.192209571594821 3.2574945411874974 -1.8631349934274881 0.9181540515213156 -0.1929569213791322
Ni 6.8973776696543965 5.988205822298536 2.6551290979248034 0.969767404822233 0.804805168883814 -0.6632780240398835
Ni 5.217628131353602 4.545613760380518 11.470252038706032 -0.3727377103876226 0.7231153079124901 1.0481719101740659
Ni 5.712635835364973 7.948471242382507 12.359189357427141 -0.969925270556336 0.7077110575422779 0.7335696704765947
Ni 1.9942866306120277 6.347646912150675 0.15475104931028844 -1.362792147593666 0.7767392638855333 1.1033513835596869
Ni 2.6412078585980905 1.3908965506773636 0.36373965434643807 0.20388590958681013 0.7824010901570009 1.191357930777658
Ni 0.46118832963342865 -0.060237180746562556 4.730181100424842 -0.496771583542796 0.8381233234199694 -0.7054909099625075
Ni 8.766044026117266 2.240481275157521 1.4859804699893817 0.21986968660957618 1.1476926286792235 -1.6888964743934656
Ni 6.89590481126168 0.8188065299316196 4.774013184357715 0.27638973318349175 0.1021409297368241 0.3434276485695956
Ni 0.5709271899529758 7.294785775852117 2.4233139153170904 2.2311117920913577 -1.11960101264933 -0.6141907795949294
Ni 7.669810071167936 3.790401073655899 3.8548959061636285 0.7357445666407265 -0.033926220433799635 -0.03794434045425723
Ni 7.73601596509239 4.072662565385999 12.488622698304109 -0.2899024229579459 -0.7951275365847339 -0.12226983927621524
Ni 8.16609970748408 0.2662064260776434 6.856663135986106 -0.7377459133414714 -0.7045429442269414 -0.07307178028500964
Ni 6.823607465959942 0.8347561316497835 0.5286216055518128 1.3631541589187748 -0.768664971517831 -2.0961551013760933
Ni 1.7363818526725905 6.490523267962649 9.182240168540593 -0.007401177560077577 0.1781910759238673 1.2327694038449093
Ni 0.00799071136641066 4.839330817387301 1.0845920094439372 0.46511873252420544 -0.25507477375579946 1.3632791145324135
Ni 6.32550857766756 2.080667047829308 7.11756727184997 0.49619771331719703 -0.4643764550415422 0.4283285602790494
Ni 3.408839832757591 4.448077804596181 0.5279879127742058 0.9042137872911395 -0.20602018232099356 -0.4551302538529258
Ni 6.086496390716178 5.858512458273222 5.0736925903394585 -0.0536848911179656 0.3529592422091147 -0.700515311124787
Ni 5.2595318617982345 2.763800590495555 9.37712933656795 -0.20492026438859548 -1.5461010043600727 -0.8983575856206787
P 0.06162730450116967 5.70518971793513 12.246721163221832 1.7093884236992303 -0.2539370606069304 -0.12734416847532906
P 4.1086657705412915 6.359193394612094 12.675567522729269 -0.3874811872453843 -0.753281032862593 -0.2342812340492159
P 2.2290166181623636 8.590601134733005 1.4727402003763381 0.8586003603273987 -0.7345418045818769 0.8375000880136738
P 6.264221303437302 7.966336469183049 5.89511208016038 1.0830931475312833 -0.26736438975642984 -0.24950499297750575
P 4.751259340533939 1.2909785646529546 12.803297984736142 -0.20565534278240713 -1.7019551073496366 0.22966816075723673
P 4.034968300594625 6.076277299151898 8.240528151596019 0.37251505285385517 -0.6528069493052305 -0.39484894046436514
P 4.653423358039976 1.016481400499273 3.6453036110208346 0.3454853024295727 0.5843006769037163 1.4246942844151014
P 0.30334245935474086 5.446330309555969 3.4419373246887335 -0.2785062653058623 -0.36948757888144107 0.5323713350242767
Ni 1.5579386941920559 1.259493943579021 2.8004911295674475 0.7517856792639892 -1.501855918498768 -1.4040341849625886
Ni 1.7236716302465558 6.552519696233845 4.815755991385364 0.5811981267189925 -0.2848075249335418 -0.8681003293980339
Ni 5.9864329371961915 5.651939522835497 9.34367635844449 -0.32715616510308176 0.019245735603489435 -0.6560606803558378
Ni 8.866634799308716 2.301204862842419 10.534381450880717 -0.36837840497766233 0.28780440277833663 -0.07263032187221685
Ni 2.2541461280232795 5.2457215414368985 7.30255555845962 0.1028109592206552 -0.5173131551395735 -1.8207233612304965
Ni 0.6436400267889554 8.881181548866412 9.142252972350187 -0.1955930734503986 0.5294600749147527 -0.5456899065100538
Ni 1.620944303213817 0.9774961116846537 11.454416992640635 -0.2183645628189594 1.0365610654080148 0.48506715062167427
Ni 4.056524765095433 7.092076820765653 1.7729642002946484 0.3668959068948649 -0.9323311143526459 -1.1318021827012121
Ni 5.619345712107789 7.890902481007934 8.077136333048461 -0.30707199275869695 0.49112595522124447 -0.45916045805824146
Ni 5.111582327078014 2.715023520884913 5.08095778257168 0.7586908910242547 -1.0499829952408755 -0.520167336758917
Ni 0.42360771132297415 7.366683085541018 6.637929117918149 -0.3449847086440704 0.357592627216068 0.8845803293309282
Ni 5.087689290929503 4.330503701296121 7.077447336569851 -0.46561187011054006 0.8929901506611782 0.9730342484989629
Ni 8.195038647385417 7.186803435541661 9.374733668750165 -0.27371758566796733 -0.49514021858696017 -0.22418039816978808
Ni 4.468452345695425 0.6019672259935522 10.680940861846333 0.3119095233566564 -0.4191918880851039 -0.29851587565856974
Ni 8.13891546924814 7.1438723409095175 4.290382856844154 -0.08408381512479712 0.3586640059033759 1.2151596611829458
Ni 7.30220461812654 6.235909692110639 7.196900698078395 -0.984595470974001 1.139249897228509 -0.5714528744067706
Ni 2.4806662937919928 5.133738844998077 2.6859336584569142 -0.6073249057130314 -0.035874602409422085 0.08281446149407028
Ni 2.5740473342339127 5.318573481565524 11.41494893357507 -0.6199215114311195 -0.3307030019140756 0.07791393886865937
Ni 0.906893462706387 3.273673254211195 3.7573190376461607 1.190388367775537 1.6553124677904332 0.3801846535839711
Ni 3.9053476703171 2.730324883075912 2.5052157520142955 -0.9571049788632163 -0.12651061683044018 -0.30892652946893245
Ni 1.0098353542951017 3.4264232162854533 8.489455766714665 0.23771365676953254 -0.0842931029221258 -0.4494383456744711
Ni 3.6087849054280916 2.3736022170473663 7.0567291285123055 -0.18120697993205567 1.064528240044902 0.6695769696747178
Ni 3.9179033335290843 6.7001237456520695 5.995403735814052 0.4021971532993202 0.6115942225123466 -0.2716607031389386
Ni 1.0561303847624621 7.555954480723561 11.305449185451376 -0.6390230081472609 -0.9403668401729288 1.0086692240937531
P 9.25173271869324 5.691961267556102 7.9657991486212625 -0.3434996394581116 -0.9580136067204145 0.9464837517039442
P 8.792464560001426 1.6544836526627746 8.333501883050324 -0.4761346240187348 0.574176701095837 -0.24094681899484957
P 1.9336721435488127 3.1783374942974594 10.535313352024259 -0.6405214470696582 0.21035583358186996 -0.033231765469936315
P 4.227467255835282 6.008625821990148 3.76538248276036 -0.2588324410260187 0.6831166560323655 0.0567856415304764
P 6.802341936450289 3.763207743701485 10.296951222943736 2.531910036026201 1.076228816311282 -0.09654749480944662
P 6.192933138886128 7.937843023486917 10.176179562256525 0.7688094675154953 -0.26901015288996893 0.6803982286599378
P 2.096750297809033 8.466826479433978 5.89468567856397 2.386290466280452 0.19337652541505404 0.049276220527308685
P 7.009514925307268 4.080072315941949 1.6227062782539927 0.5318105774248002 -0.891112474022491 -0.5130572080766971
Ni 5.658094616242096 3.0847200691752263 0.2669501286487805 -0.8360003635396958 0.7347181822587411 0.9720276616113195
Ni 1.4332730504826203 1.242892465646303 6.969410445948554 -0.012198598948720926 -0.2945484063703895 -0.17645121041462514
Ni 7.100913971121953 0.7652981300273378 9.398832177736182 -0.7218824639466535 -0.2468883812902651 -0.23528293584085289
Ni 2.5104962221037384 1.44752886504916 9.158048014854302 1.045791068646715 0.358150299491751 0.09467007528107567
Ni 6.4417734735074275 1.911251965793017 2.5235928425648995 0.5465052033224975 1.2635753334821724 1.2919027196719557
Ni 4.02279448955853 7.141853979408387 10.149752664169434 1.0170494777376484 -0.4131955612923529 1.0935734782373168
Ni 8.358134985082584 7.036662796669314 0.3629213996838178 -0.9226205719331015 0.737725087405865 0.2828015502471065
Ni 7.683756767306374 4.024631016690189 7.989950389574424 -0.04797215700390448 -0.7870750985939026 0.7410898901130398
Ni 3.171318687635872 8.407039338751856 12.727291218297193 0.8294250243150233 -0.47841493541247926 -0.7328086239408541
Ni 8.891991602131473 4.813619437544078 10.258361423882716 0.08900182125170478 0.21293079339789778 -0.4447419686400664
Ni 8.717894285081298 2.625451910483413 5.880833536297655 -0.24363747845313527 -0.3886988617025693 0.140992355386383
Ni 3.5739999905482565 2.8468352553145655 11.909078377581896 0.42612203954603384 0.0510965615654991 -0.7493778411534449
Ni 1.295460781860419 3.2828467981510157 12.76593374932536 -1.2587398597667416 0.2406025482815534 -0.5338564042102355
Ni 3.11730478818446 8.077319076589779 7.926731125168534 -0.7230520587747226 1.4530880050664459 -0.13436687965006536
Ni 5.8790415585865174 8.137651720380315 3.4970940531522716 -0.6297449252794445 -0.494258073092323 0.04640147008267493
Ni 3.248525560913332 8.421467895969393 3.507353148277835 -0.9309465753002935 0.1832504927246457 1.3126314675788748
Ni 3.633305270151279 4.255369739830632 9.599735517533794 -1.0810092684190609 0.9644951006797003 -1.3249372815294214
Ni 7.141317568018447 6.279431748443565 11.417876466923556 -0.02092492307812525 -0.7652718866758821 0.40750828109958853
Ni 0.6389132423545523 8.96482535882315 0.09114265935373034 -0.10168841558043777 -0.7591092095085958 0.5935422501066423
Ni 4.897417806714868 0.46765890567106033 1.588122290352423 -2.198770399646174 -1.7093308309884174 -0.5920836632832448
Ni 5.893297373153057 5.639047466039991 0.4442395480550207 -0.13275454085762298 0.45086967880435896 -0.6616721130053443
Ni 7.9751736195393494 8.549761135349778 11.494336910114335 0.10830052158031672 1.3714269404505284 0.09845036825911432
Ni 8.908138494140513 5.13911205061595 5.687927272069384 0.123702972178316 -0.7685199612995345 -0.015328659937270376
Ni 8.200984631267124 8.896846579796353 2.361437497729745 -1.3896578616362583 1.0872200252154631 0.10249651330402992
P 8.59999287991619 1.645664685743423 3.500766198243742 -1.2092520374492592 -0.5471068414622384 2.003952513798904
P 1.8734849672538545 3.1544717333043684 1.5782486840901384 0.01481006842963901 0.44510552262707215 0.4138524781500615
P 4.638112904130503 0.8787018620635765 8.30336192713863 0.37800101566909095 0.3526563662567152 -0.20498479907794373
P 8.543706050846389 1.4072798273667162 12.588462495549647 -0.32922693158918137 1.318170138008917 -0.8506960178786576
P 6.46661204837719 7.729960880588999 1.2445735243920641 -0.4509254717429589 0.40148624327522464 0.756728110870929
P 1.7691211308958754 3.4269050773645517 6.160126581946139 -0.4668215741479251 -0.8372504338967129 -0.6960050819592594
P 6.80150549835072 3.9603707505190764 5.890374385663808 1.0559096451379557 -0.37672394872888026 0.18923242133969345
P 2.50559578584649 8.612075773767549 10.225414854478236 0.41505164066448524 -0.2623278557737869 -0.7991999068818946
