# total energy = -340872.57837245386 ev
CRYSTAL
PRIMVEC
9.16997446999216 0.00000000000000 0.00000000000000

0.00000000000000 9.16997446999216 0.00000000000000

0.00000000000000 0.00000000000000 13.42118455205899

PRIMCOORD
 96 1
Ni 1.534310922788023 8.784569409416536 3.946942153901263 0.5587619092026634 -0.1330813280694224 0.317851085652072
Ni 9.15595336684465 5.238953012888927 6.831543707070391 -0.29316129621487574 0.2665318665528055 -0.39310059031469075
Ni 6.260524825069711 6.701976555799265 8.175474043306505 -0.4515736468499191 0.23414959356735804 -1.8971828270408166
Ni 3.6418644463341647 2.6653905675516874 4.144005817692028 0.8491903798674085 1.6676000269085345 -1.9654584714887637
Ni 4.146011291062139 7.648189519532045 9.139598717756428 -0.9623556857391943 -0.987568437559396 0.17883796547924682
Ni 0.20183755238921067 4.723022751240084 9.15743523468466 2.302622912757467 1.4916810348482954 1.6529547661915338
Ni 3.1808164806163672 1.7896488559876746 6.122314973060908 0.4556483311399249 -2.1391799416770514 2.1003701678987055
Ni 7.3964645561898426 1.8378920905562997 4.382191314043054 -0.5066315070560112 -1.8669255708181718 -1.0188749609821612
Ni 7.487559080463692 3.8949373958922178 0.18603952073841665 1.9715095627788497 -0.6615088479546027 -0.1733373473759918
Ni 8.068541139495128 0.6697529118284385 9.802604362526209 1.1863023706316214 -0.5847547337219994 1.755799921084234
Ni 1.218075190544418 2.1437199020176605 3.7885317656006468 -0.49559196141239814 -0.07495279935780641 0.6253719930227294
Ni 3.0363618761382165 1.2780376522141081 9.971551051248676 -1.2085750659868928 1.0076258704309033 -1.1250905750089915
Ni 7.58379796029599 8.598382252092573 5.6751879452633975 0.2182861441725402 0.29456486143062177 2.1301291443286927
Ni 3.2839053312190063 2.9578485565456356 8.209791754967714 -0.5699472363955216 -1.3496525248879143 1.070472373443479
Ni 8.743130295746964 5.814864076155973 2.019807873871126 -0.9248240073423233 -1.0354341508924232 -1.5555626639936049
Ni 6.127541858387674 3.4202353385050257 11.737335966228672 -0.9384305423821645 -0.26927189119178785 0.1118671558856525
Ni 0.05610006851243772 8.110952270435993 1.4429247933327856 -1.9937169521138243 -0.4573455163366898 2.7966130769003836
Ni 4.8783254352648395 4.750147535093723 8.535846695646233 0.3036238863090964 -0.4239265745566118 0.1405573247314934
Ni 1.6910074428999156 0.9825260617924176 1.7738645792982668 2.2422490396551 -1.5320684375264066 1.1152571338583375
Ni 2.3843033466370196 6.57335849686379 11.774056211145345 0.1563832360201565 0.7315194728157853 1.8304729844180925
Ni 1.2476758674475774 4.553075618326127 3.374488170929288 0.303233078628581 -0.580257102961962 -1.172659068816574
Ni 0.8058270768326745 2.5819529717828367 10.053124391250979 0.7593118124377053 -0.2562677656226361 0.220053263375292
Ni 6.530699776617973 4.7589140304838775 6.274846490865051 2.2455482792316617 0.6802773868113574 1.1380746459734852
Ni 1.1994784827502398 7.977501635066823 10.187806554162929 -0.12814172467595997 -0.6121074147033394 -0.49441285350263237
P 0.2753413150449279 7.464771694433844 6.293448700643784 0.08007675084793307 -0.3745734780447807 -0.5057879281087935
P 4.631662297712768 3.0101632596845835 10.085898796244653 -0.17156354330502066 0.024792376453331495 -0.6134634145106015
P 3.1174611284714078 0.6082288035426989 0.17677601274350593 2.158760177801824 -0.5187249478854357 0.4392997145785725
P 1.1767919664372235 0.6580740326141065 11.165861336507396 -0.44189652877147123 1.1818348217785712 -0.405209971983715
P 7.474693606580442 5.470164743817136 4.36286467629798 1.2917499961441754 0.2670879961665916 -0.8695951687760055
P 7.483781051069609 4.601373872740297 8.473746712977123 -1.8075240889314033 0.36149299071173874 -3.0810393072351063
P 3.488982635513386 0.5650675687075716 4.323527320728224 -0.10208847923233387 -1.1444736075212933 -0.48011829125683114
P 1.4897540178709066 6.718812628536007 0.7003668708870501 0.9777758769490064 -0.9399837458018973 0.19167651200481184
Ni 6.832080150564453 0.24007359405064313 1.9652236021034502 -0.20393733165003589 -0.09849304857159166 0.24987908848747287
Ni 3.7740129453587716 4.615853262092864 2.2689450704778666 0.1292637540955451 0.23922366565615574 0.07309826264757088
Ni 4.519275093213039 8.042773511831596 2.2970895554689372 1.1067077016264295 -0.9726655523056343 -0.08133222052158896
Ni 0.8963539796999856 0.48120632012802567 8.079713836130447 -0.4445141688999764 0.27657022462541403 0.3188741275999476
Ni 8.472240086206618 7.507256185168768 8.349882368696727 0.4857376943261376 0.156940136964891 0.40878689070169594
Ni 0.41129351939153935 6.703883910444822 3.8851374444032447 -1.457203055676084 0.5063844240422118 1.9978605419685527
Ni 1.131024624918119 8.655318622257294 13.077199418881591 1.6760910950986814 0.09389077391288991 -2.2204941644765115
Ni 4.378956147125014 1.116334326157629 2.2584628729041363 -0.5906433312922924 0.4819625435544216 -0.4043530233000585
Ni 7.566879357790932 2.897546805828418 9.770729532007195 -0.8769536660236058 0.15203395791252525 -0.7317195046417333
Ni 8.693273145709021 2.0001364450939705 11.974474251519494 -2.2940045749608364 -0.6501450862023512 -0.6897927825009604
Ni 8.82555919434749 1.1921700132670248 0.8967244466599882 -1.0260835629154585 1.1918582674528442 0.7472512817287453
Ni 6.761691428164004 1.626533353895543 0.04969209050130766 -1.738100189811626 0.3810295180827696 -0.3527360704547151
Ni 8.622655173952134 3.6730148488868393 4.768506740554632 0.542101417827847 1.4790630889739687 1.354015172731984
Ni 3.220742548533454 2.8410047445567694 0.679560199296818 0.9399554636671231 -0.04482641228607119 1.0801584903829913
Ni 2.2344659672697254 8.464418098164984 6.2716250789083965 0.37904154111846333 1.4728705870100116 -0.1213720100522942
Ni 4.91688517701756 9.063419156612378 7.081607071077137 0.7596146883901047 0.07931313320903115 -0.45500581245991956
Ni 5.49905933270247 6.240534281188396 3.8626976003977544 0.10811848747649765 -1.0242141138068876 -1.0198108425328694
Ni 1.483628475066907 1.9508019835887047 13.009193972790662 -0.058155782405125644 -0.019223367005986248 -1.3159484477672496
Ni 4.3929953777132225 4.269540014284711 6.148110110647211 -2.641169064865045 0.26553762096033623 -0.6165433389875059
Ni 2.90246191203043 3.4166682185188644 11.751279829084604 -0.4706666589256281 0.5013471187286205 -0.8993605729638963
Ni 6.08129767820718 4.929695631055266 1.4960592921703528 -0.6329408065089228 1.332704584179666 1.440517367490287
Ni 2.118474962886806 6.317039376418588 5.47421878943637 -0.16708416737742837 -1.4730886165580888 -0.1830327202868848
Ni 2.9436901162920797 5.6871446746977306 9.661172181563325 -2.1375141239388546 -0.9422360321711838 -1.0285873031739188
Ni 5.919878621352684 3.845300325236455 4.00049296957012 -0.11841806963029283 -0.6867802209268817 -0.3409979560821805
P 7.42767914856232 9.385193553307504 7.959661450148888 -1.5071271942000366 -0.2451138058883456 -1.8581136289534967
P 3.2365974340246444 4.88036116955 4.259776742692767 0.40429491636861337 0.865870925846883 0.31292125245062236
P 1.1143994615893 3.0202777412905886 1.548804984099403 -1.028535624000377 1.3156663977504568 1.150969242547966
P 2.683400396993386 4.768744242887902 7.53741714749906 -1.643207456996783 2.077343625096545 -0.20025474059212608
P 8.438833869986603 6.950125229181049 10.770098085518333 -0.2939737648138421 -0.23658417115077962 0.10548516361870866
P 1.3306549645035533 4.824791125549646 11.267352777594382 -0.9010752416621579 -1.0336516050707036 -2.757947542009386
P 3.0278062901559832 0.12052555665324549 8.127735157322041 0.15593612118040887 0.16281973567411961 -0.0423704945464109
P 6.893904117008413 7.075744706534327 1.1403229788152083 0.13888816455918662 0.5357672480797031 -0.33960107573465387
Ni 7.401434682237399 7.8267564282480375 3.533327714025155 1.3615999270577777 -1.8741292876554625 -1.3638383294699932
Ni 5.179173950704385 0.31887393383748336 9.63842330942536 0.470492338131293 3.591355462231556 -0.03397095762880601
Ni 5.478105941524118 8.418513207032017 13.201976175600606 -0.6735644935675561 -0.21998950001689208 0.0972118678663229
Ni 1.6849552598899757 6.852996861845776 8.040255436900491 -0.15735511301512253 -0.26211214021855506 -0.5507477806489354
Ni 1.8443569224078262 3.6581136407184274 5.641178344737239 0.030232573632296318 1.57875427161872 0.17033764131771956
Ni 6.527921274417955 5.443525968599144 10.13739645467726 1.3148012215366842 0.6088292581726998 0.8337956425788929
Ni 8.202862922418758 4.367218580075434 11.490614140841354 2.2822921716199147 1.0919498265909646 -0.4382944132425097
Ni 8.61523666477783 6.2654399312717235 12.880659360620928 0.8123726968184268 0.5415925965122285 0.7070474558163501
Ni 1.2307847748652914 4.50100850449213 -0.10747209829771652 -0.366448277834485 0.6214934839039297 1.4873309854097159
Ni 7.929047491090276 3.5201697179630904 2.5343085365332256 0.965426097134402 -0.08768053133711996 -0.46202492409023005
Ni 2.466237066627642 6.994388694921927 2.77786305281201 0.27371552878543826 -1.1749728045514152 -0.7055279338480301
Ni 5.55143822566122 2.286184622081937 8.020889368266111 -0.9520314209950507 0.12411357735317335 1.5161394250009759
Ni 4.430573932220393 1.7798828334034538 11.921232463983117 1.72452785044383 -1.4768923065748953 1.164979697894445
Ni 3.340117273417385 8.922971830884746 11.621806211550904 -0.4082546723473098 -2.0880021332516554 0.46392394088515587
Ni 4.489435996979186 5.074966363242333 11.107251446040687 -0.03406351734261231 -1.7057446562990561 1.6260160328191609
Ni 0.8892802615577623 2.9767478734903103 7.683413224649894 -0.2649974321861501 -0.13419950083426566 0.6922600130945303
Ni 3.7688227399290355 6.490251020168209 0.580189773255589 -0.28954529672884327 -0.2112318084289201 -0.4034497947594987
Ni 7.345158550219217 2.0934042532668435 6.8241756327545025 2.6264898655863154 -0.18353974183029034 -0.7765299760882046
Ni 7.900152902204942 8.628780716756134 12.716142686462256 -0.24367321678707715 -0.33365282857101897 -0.35720516196966223
Ni 5.7653370451913 9.151212490153531 4.307609162414657 -1.2656805527506332 1.3318957151251256 0.21696562558890375
Ni 6.2178752747981525 5.850681995605706 12.58637287876004 -0.22767247048344658 0.7123518987483991 0.7111527362339752
Ni 6.494790157425665 7.8978512386663136 10.284116959794435 1.7956098539923202 -1.3428208466780616 0.9247152496786011
Ni 3.9539095003420996 6.56603168743206 7.05000000380644 0.4385636077434963 0.1772863047214108 -0.13952348415034035
Ni 4.062582865267546 7.635855904155729 4.778585459261033 -2.7838316088649995 1.096037109286461 0.01431744506393663
P 4.454911043899757 4.442467388832351 13.534727031481943 0.7683001319792446 0.44183276541307137 -1.5349778978637176
P 5.422077398810888 2.4914086459644365 5.804729420606601 0.5718501098451892 -1.2080690728847516 -0.746061118075386
P 0.32981187913181065 1.9386334277490227 5.904783926727439 -0.018824331795354678 -0.25788267551823973 -0.10437624682524604
P 6.561180771049851 0.6919259095830357 11.49618398320535 -0.5532535777899247 0.7930935368738407 -0.014331071910691447
P 4.629920002603845 7.100916285871122 11.25072394627586 0.09719618413703905 1.5014291153739947 0.9295543229384571
P 6.121883984270806 2.3677607130765175 2.2086708296834217 0.37435262028322625 0.2945939148963443 0.13710716139936388
P 8.993589802641633 0.5689895666974976 3.15710567817879 -2.1807230552261605 -0.49533845064069526 -0.7316014910066304
P 5.813470240068835 7.157880165958614 5.872157158319309 0.8526408003098542 0.1413746784264662 1.0243971763519713
