# total energy = -340893.7464000771 ev
CRYSTAL
PRIMVEC
9.05909284038988 0.00000000000000 0.00000000000000

0.00000000000000 9.05909284038988 0.00000000000000

0.00000000000000 0.00000000000000 13.25889807905440

PRIMCOORD
 96 1
Ni 6.2323114508667725 2.019706572961654 11.532323600937575 1.2590303944239671 0.22848545330304518 -0.9967827570688124
Ni 4.51926422089687 0.25247238071278866 5.9181357787597735 -0.015772175232592195 -0.34249150990857147 0.19597539649048185
Ni 2.6738727073971904 1.6085143606667263 4.758485866890033 0.06112797765957214 -0.37744180073151123 -0.06904928938917786
Ni 3.3710785906895935 4.224137102761947 4.588347955017599 -0.4331414082866605 0.4306672357145551 0.9389429632422088
Ni 4.897544749841556 4.627900859139672 2.6517395324009585 0.6469396918911762 0.34433859041963927 -0.6491536688233593
Ni 7.128409711795993 6.0120305556439595 2.9391528332023467 -0.4483692809800084 1.4725872514416378 -1.661322678540255
Ni 5.180514565731495 4.468207175104973 11.53001715596621 0.11685689579076004 0.17663221607717966 0.4537847955686249
Ni 5.597966611000554 7.645937552817905 12.216827730520821 0.7388823409387598 1.056638295773864 1.220146829984892
Ni 2.0023765288523743 6.5802711969396555 0.2812186932938476 -0.35959268836523234 0.0037044454347807164 0.16307556043866753
Ni 2.7746641714640186 1.6076899832417686 0.35380014306046925 0.2857729741706046 0.14575763798551028 -0.19528736928452176
Ni 0.5161825657734923 -0.06733623516166987 4.504113794462809 -0.13482453601277425 0.24135511017686173 0.49537521741590174
Ni 8.567754577587296 2.2939887190654984 1.3718582496927725 0.2717149534156417 0.4750725013028077 0.4877593527418567
Ni 6.846264273331012 0.8166889730835798 4.862820342065665 -0.478794173128769 0.00024374057968990284 -1.7124986871934378
Ni 0.8010810624741299 7.441664074187408 2.2656672779265334 -1.1714683909425825 0.22103491056227093 0.16782130265376904
Ni 7.823468590146474 4.003140539225161 3.687272628623852 -0.5347004973780854 -2.098996684589946 0.8910618232902138
Ni 7.575720526215174 3.9120694814987687 12.82122139849258 0.4847015397521394 -0.6777908729440779 -0.21879085172310064
Ni 7.803230577318386 9.061176173248626 6.755792927533546 1.0157528704134118 -0.8881965859272768 1.3921929693532862
Ni 6.906760893593305 0.8868407742197211 0.24310074943675647 -0.6986432909130548 -1.3946396311215659 0.7716153123954066
Ni 1.9213791820771167 6.418249326111394 9.257694162719714 0.013301345094596448 -0.058286394445718974 -0.8141899525328236
Ni 9.12676400354198 4.7811535283486 1.5016098209255944 -0.8273025786553817 0.4912151725009411 -0.033658568594709774
Ni 6.320275239837553 1.9495167236366682 6.892637768258038 -0.09166111325142279 0.6959127793557692 1.0342411590255864
Ni 3.279001973686605 4.383359713982385 0.218031522534713 0.8484725278647774 -0.7072585433858917 0.9069311862223026
Ni 5.808499922605183 5.485081258336814 4.852518341981465 -0.27921640399900943 1.029887510042581 0.5650405431225236
Ni 5.467570032375896 2.921702303161727 9.188230852619801 0.27427500083333406 -1.2684524590688155 0.1676706360085177
P 0.18696698816193186 5.711386450126627 12.616889035760298 0.06132980925773309 -1.0344008245319025 -0.24117127630082985
P 4.098088888576629 6.176416849636111 12.679563461879294 -0.03241723998844094 -0.05528077485017576 -0.020951919661318756
P 2.498244079510833 8.53046735251997 1.3039277380577265 0.7566399220324969 0.2279997719158783 0.28764319461012394
P 6.124879671937371 7.66838598423599 5.973491363981808 0.7328214794566605 0.4696793553116943 -1.207191812486121
P 4.694177180469253 0.892114072011677 12.79274142323343 0.8186101930877062 0.1744390650806028 -1.2067889206207474
P 3.899314279143377 5.885828336884749 8.209432135509916 0.28688960427355104 0.6190735616085273 0.7262145156631041
P 4.726943918338183 1.1352583050928269 3.937242887965505 0.1960386456282495 -0.6281798947851697 -0.6331305539222256
P 0.11911891426938157 5.751101512005917 3.5254745173823654 0.6461709320459517 -0.10432662453423323 0.41624668941385085
Ni 1.5208948172140597 1.1633052557265589 2.418409920223098 -0.47879802978351094 0.6481234277866321 0.7618782876133007
Ni 1.793872453986103 6.42276981330979 4.699404276889041 0.651084310187169 0.09657629116485301 0.7540875879242884
Ni 5.8555981449387655 5.3504178471060575 9.297297797760246 0.4333833490941375 1.4766076854549408 0.13924014858196665
Ni 8.957857222351432 2.3753937250069446 10.352374980319448 -1.015682679297109 -0.23399224205388736 0.6670670587686706
Ni 2.131821902755926 5.260560707785648 7.0233441678489985 0.807194752161913 -0.42691239665781316 -0.44511554992940117
Ni 0.6527710341779154 9.074130675640822 9.23728855667886 0.02129156238892462 0.3798671223435522 -0.21653419447844
Ni 1.7238366092350108 0.9445100516871872 11.340998283334464 -0.657298666527997 1.38269042917949 0.14087254197906707
Ni 4.188344627970644 6.900990251618601 1.7216542738320177 0.03843619248901122 0.84984112607753 -0.24682487504218134
Ni 5.540242073068337 7.867695080131576 8.069749986988755 0.1332610481803963 -0.4565307337448783 1.2338824344034298
Ni 5.428697466106728 3.0542911821912173 4.708738765885487 0.18822326334888873 -0.5747222891866618 0.09176215760566131
Ni 0.7961474806539972 7.5760647717332885 7.188470589705095 -0.008010786119618462 -0.3482957752951743 -1.0050781643083853
Ni 5.09748798221788 4.323288871071442 7.198680187044958 -0.22098580249189037 0.13019320788834995 -0.8138279412077146
Ni 8.233718656812878 7.302851598554115 8.894386501994484 -0.38451799085200233 -0.704641931698651 0.4585310520043587
Ni 4.732931978534856 0.07447117647921744 10.554321178065642 -0.23688036223495978 0.7649201597634181 -1.282717453628262
Ni 8.097189072510238 7.024329797121915 5.0442812137562845 -0.18685723623929756 1.115440196403421 -0.27389499178609605
Ni 7.036858522162759 6.06495377450774 7.08346030622285 0.41348738150115877 -0.5146911441356942 -0.21829180059949502
Ni 2.22438771075834 5.424430633500627 2.4011595961285397 0.8465179752415679 -0.31014728924991103 1.0555188374574402
Ni 2.357203067102379 5.329038388612644 11.446883675160127 -0.862422048066334 -0.3660227602612922 0.011547081407651082
Ni 1.10019055770808 3.494599318044547 3.9691571652224735 0.29675878375814696 -0.43441667545465834 -0.7176951653381833
Ni 3.7835390759459946 2.6372015006254372 2.6250632224748762 -0.6150081332899021 -0.5969397058239655 -0.06135089230365563
Ni 1.0387246145395168 3.4603106526218483 8.459932351767613 0.6585160838748659 2.7253693509630485e-05 -0.5812158673308055
Ni 3.688155890150593 2.354267921105826 7.087079413709341 0.12453832359541778 0.6617168502003506 -0.9707763057027217
Ni 4.020905419778374 6.868160100101597 6.246121131598705 -0.01797612486244646 -0.7191342117775551 -1.0839403260229268
Ni 0.6379322405286735 7.295160428952034 11.133483461378145 0.5712777822814872 0.15275386679768532 0.508388341846118
P 0.13554304912046558 5.536428195091334 7.888739352199458 0.10056175817516229 0.7128972297289077 1.1761089750383873
P 8.770560483219517 1.674473613755939 8.20886231858651 -0.9972167592824372 -0.12013119566665764 -1.017830578878047
P 1.825352800708396 3.254379360048852 10.857406709033812 1.0779090322271823 0.06174864196270657 -1.1218712967407454
P 3.925241402112931 6.228153327371655 3.849190319887421 -0.25627907847654574 0.268352464701312 -0.11190983619812984
P 7.119839810213464 3.8224750558632365 10.41884154259325 -0.7094154418278944 0.4763421120438506 0.7693871943958362
P 6.605908428946588 7.664445278962839 10.188097395438282 -1.650803009955854 -0.3943971976389272 0.26878286737051127
P 2.28241119874576 8.332680184178152 5.731542931121477 0.09747823415383212 1.034827627656676 0.5064337892229084
P 6.836417039694426 3.977720725440195 1.6904302994297942 0.15591298125195727 0.36935670973053164 -0.4335795242653436
Ni 5.258739830176675 2.9847807648098783 0.40724154201993684 -0.24972225119463445 -0.17979595851714197 -0.007409662200509819
Ni 1.4774745864687504 1.0333797499161634 6.9692215251273675 -0.25735225693606645 0.6939955077283984 -0.14975493207036142
Ni 6.983609175966028 0.7464094387420328 9.301089933915053 -0.489333382097196 0.2662037937894254 -1.1846527508433404
Ni 2.9702862166787503 1.7060989059595433 9.191558257325152 -0.5896971653289392 -0.9994628750041368 0.7507202141139523
Ni 6.27002445328545 2.0002567011881967 2.437595266493162 0.9246993088390011 0.23286224221450216 1.2805070762405044
Ni 4.143864483393246 6.638358098575149 10.444206095913465 0.10551961640106988 0.6360734386006336 -0.6196325194357909
Ni 8.031746187698197 7.390670442043584 0.0751805034283845 0.38293162020148885 0.5885774499021993 0.03486287331545609
Ni 7.60720993203005 4.020524937889932 8.209644118276334 0.6495401056285006 -1.3253584282272401 -0.047222423322073506
Ni 3.0723459537070528 8.299234014365574 12.23999092434362 0.8219734531329844 -0.2519477980910435 0.5251977000939729
Ni 0.00948124629627387 5.001624664515634 10.342748788541863 0.3052940749226678 -0.7956548698431135 -0.4176600248216098
Ni 8.603528934193436 2.321582715070133 5.885398935896363 0.46676398143711223 0.7645614908724186 0.43410068687613623
Ni 3.895672523925431 2.483568349528066 11.324159242043127 -0.8463536817495618 -0.27820313224314663 0.7427500514242821
Ni 1.109602954900731 3.4525923057420225 12.99511158651246 -0.7554117060523505 -0.2658212136390261 -1.4867280617183942
Ni 3.0920585391653863 8.493379427489447 7.885623024351266 0.10154083425897997 -0.11970156432840674 0.880897224052386
Ni 5.715888819139858 7.955196855380677 3.687458340021782 -0.6913560132230222 0.01006741153833105 0.1710045854777571
Ni 2.7562923317078147 8.36636189039786 3.530923561570411 1.510575043539321 -0.0777200776902984 0.08272087333899948
Ni 3.464178885154343 4.131752476611172 9.494643788293322 -0.734730009333283 0.462748432519816 -0.12660420498551098
Ni 7.2370554091313775 5.983313232159163 11.587268809265646 -0.14829300281285426 -0.09613766096553766 -1.2833239768640092
Ni 0.7472519343521545 -0.050122147437439396 0.13166847522316352 -0.18427970532010846 -0.5589863665086438 0.3532119816498691
Ni 4.606965296182775 0.4599400953876842 1.6977618230563705 -0.28234363677408153 -1.2000127782391785 0.0960085915868411
Ni 6.059491141680821 5.768159783337738 0.5878861894689225 -0.055577223044672025 -0.15242939357873103 -0.35597746021014826
Ni 8.04275298518527 8.950392530063903 11.210331743750865 0.2871143186898475 0.584921855427483 1.0472573687795963
Ni 0.08867945728475532 4.974465504954933 5.7309459369203255 -0.7739087364152736 -1.0581812147809517 0.3144646856783423
Ni 8.059086529110536 9.134826595939918 2.5548570667832426 -0.08667831532485072 -0.2991519665806719 -0.4457863507441806
P 8.530385820686732 1.8208866680654923 3.7370469069061447 0.3205669419213382 -0.2536912631447115 -0.5390731725244845
P 1.9447969364014697 3.3706799906159874 1.7636984284141282 -0.530372559426693 -0.8616563735449031 -0.19540178337519895
P 4.866245584970901 0.8870038378861963 8.271868307494005 0.3160819095667911 0.7485499459355108 0.23282239011550224
P 8.7302565803224 1.5579736831520006 12.506918899089433 -0.4388613414895732 1.0054525169286683 -0.2301751823006423
P 6.660435107197373 7.756848023298778 1.5994471149014478 -1.8775825363113856 0.2081372286639964 0.3564747115615409
P 1.877777769480168 3.234213819961421 6.105814811598647 -0.38171677395778136 -0.15483800302022363 -0.1637381337233309
P 6.964992740710111 3.975455952294707 5.976978208716602 0.1835986200926838 -0.07064568734202027 0.15387023979031564
P 2.495399524440099 8.415552763117873 10.084584579959833 0.6702639684394135 -0.4530438036375424 0.23346413746455918
