# total energy = -381170.32124081574 ev
CRYSTAL
PRIMVEC
9.19594177368386 0.00000000000000 0.00000000000000

0.00000000000000 9.19594177368386 0.00000000000000

0.00000000000000 0.00000000000000 13.45919032582329

PRIMCOORD
 96 1
Ni 1.883540328368797 6.812702918071129 9.633711549184882 -0.5440857952477275 1.1293418940861775 0.3549721588740854
Ni 3.4339944592214646 5.648607073915202 11.408399517872875 -0.8346567050276078 -0.8955370854527479 -0.3042903162485018
Ni 0.5157727715989938 4.46063856559341 1.4728928013556826 -0.4729531409669597 0.4975210601143109 1.0540000868200687
Ni 3.8746179967821432 3.597213225122842 10.18946827447925 1.1690546392947672 -0.4487138088036208 -0.08127899868615034
Ni 2.8461806818153046 6.814955923741637 7.1092251325403 0.4088426836402959 -0.209176211451472 -0.2719864619094735
Ni 2.5272470382865673 2.2935965563426723 1.8971806684139552 0.9971573667994116 0.30126104250387475 -0.656862607431843
Ni 8.27842564382969 7.01481132062792 2.378548664033073 -1.7915315701578887 -2.1871330725175624 0.17085931814914446
Ni 2.3790820286407848 7.4174556197429 4.679222416963593 -0.15394197356851555 2.284054148616344 0.9719849812988424
Ni 2.8956364552683223 5.495034850660203 1.7007709908123223 0.9512017260049038 -4.374529168888524 -0.11730246796861087
Ni 1.4810799480840615 8.030061655466156 12.025247641415742 0.029875961623825963 -0.9738240913901101 -0.6578265140070091
Ni 0.8906011868276441 3.038357467538837 9.21280227103822 0.9941334923714235 -0.7708033580170726 0.1055772091118827
Ni 4.900029846991443 2.1024497160685143 11.985058618224645 0.7480331542000924 0.9917071423181177 -2.380756680946416
Ni 4.844955353274426 6.975480278779917 2.471901264294937 0.8193838380289373 -2.3943243923285213 1.4914843454564573
Ni 7.281272921887614 2.6934544851794335 11.626694616679572 -0.162652613968636 -0.5583189081279739 -1.791563708947405
Ni 6.627643791078097 5.0106386315010925 9.745193948138198 -1.7443430853975443 0.18066859093008242 -0.4780945759585831
Ni 7.992229552084654 8.528362138191826 0.3931761577339423 0.3355801275007188 -1.5784686220575008 -0.4888708406384807
Ni 4.954681327398896 4.280471679484909 0.04961946121193594 -0.1795499039446069 1.4549841936478942 -0.8466390742004646
Ni 7.801239042816204 8.060785296058667 6.728733856528391 0.03581263882323509 -0.3332648491039809 1.0744547551299948
Ni 2.80684044402579 9.210103262204367 8.065809958500974 2.063323656668369 -1.2464425304566276 -0.9476181224187035
Ni 5.8973113121146925 6.685302344360064 0.3766648447486517 0.12672427550314305 0.8048653326977879 0.3062515537399306
Ni 1.100524300481566 1.2213313841283289 7.554657227917748 -2.6937093008556063 0.8448076774186805 -0.7791728130276904
Ni 3.6246079348879103 7.958747129038458 10.836922330563272 1.119531335753659 -0.8357867048669929 -0.6873708033230291
Ni 5.030005284325945 4.251955064855342 2.4176470485608146 -1.4654681238983536 -1.2146415838959468 0.7614931363597401
Ni 6.8773503869024255 7.448445942639268 9.407233901620563 0.5122000022827243 -0.045555834252927994 -0.7897845271052656
P 2.474839367608109 4.631664685838708 13.163532316935013 -0.4516196695965061 0.9878502304658728 0.1567154225485946
Ni 0.33519482690489427 2.0805081996202253 2.8879514069465135 -0.9481976490712573 -0.819843037053543 -0.6632901082247415
P 7.412186345256366 6.035848170997123 7.496310818210662 0.3388145752776165 -0.6877852651526284 0.7694884958603909
Ni 0.6701036600287569 3.589295519480773 7.009344333398872 1.5997596702257932 -0.14695731472056625 -0.6648140010684357
P 8.896153818975282 1.1329307983708248 0.9326165240030795 0.6400414221094461 0.6106994786122193 0.5156573647037055
P 7.860598845277943 -0.013472054315483551 10.806168343363769 0.33650161087372366 0.9230730860894878 -0.17416601392487424
P 1.9661106872075182 9.00865696743646 9.97674591622899 -0.9659074076461946 1.0988771498384171 1.1449937416908216
Ni 0.8146905288321127 2.920998861959178 -0.19965216657886134 0.64090119900658 -1.249281028346687 -0.1420763324791811
Ni 2.120032356239985 0.5599905367666193 3.3895762225288717 1.3697840055304669 0.008190763340908474 1.1582102403810957
Ni 5.790794721578006 3.29822557873423 4.969146543397706 -1.602248498085918 0.0874344767645849 1.323687211172404
Ni 6.386995197643361 1.091981270816662 5.33107765065539 -0.3421094439788044 -0.30457519447877224 0.9698597074257232
Ni 5.427849301971518 8.490235764681932 6.5214490584943405 -0.48744156439112185 0.020869387249841477 0.25484286025065145
Ni 3.6064643422841907 5.553392295497103 4.262982837916863 0.6044871791539203 -1.3803280995949 -1.2503027847429822
Ni 0.9688384180257814 5.6768202224748645 11.75034416584778 -0.13209685266896604 -0.8250922012676241 -0.0904642647298442
Ni 7.35982465428547 3.0950136631959664 3.306156158694416 0.4987346208064379 0.12695027547102006 -0.061510814920287614
Ni 8.406203251142758 1.5483206724218195 9.366788311661272 -0.7886542701555643 -0.6149050320531345 0.4608208764797999
Ni 9.280544174188398 8.396694647619064 8.726414210947551 0.3224649302749995 -0.2428754034761301 0.3988927715164356
Ni 1.649246130519043 5.173664282630711 5.485858220625103 0.7311116958544054 -0.9902783802913914 -0.28558708341204364
Ni 8.72991878425788 5.684250543216782 9.626726312012158 1.8669898483972038 0.7695298906212876 -0.4921145443867589
Ni 6.327515847941964 8.480828316514874 2.1147483682470316 1.3589357499620534 0.8682391689687434 -0.8099897984085469
Ni 5.516240691787509 4.074013596592812 7.580162171702044 0.9803194693064666 0.42880524280515186 -1.358499433755583
Ni 2.276676023960085 4.761189522039109 9.06580054799374 0.6096209008360598 0.24185518974173187 -1.4495478531236714
Ni 4.022976121199683 1.1643441345767578 9.726270539694237 0.7609861148163345 -0.8338614628198219 -0.27948457005873156
Ni 6.998470132560606 4.9570354884260395 1.5557206465567477 0.47191055863505826 1.4132479902513724 0.17693072115420497
Ni 1.863438000222963 2.1072683894209465 5.416408631136096 -0.6971487086453994 -0.3218910600494005 0.2363566285210058
Ni 6.587080493067451 0.9930697239106272 13.013596168953967 0.5497795031983951 -1.4371862462345248 0.46204857823931395
Ni 7.844138109970969 3.7380858531493897 8.248962766818511 0.6511647857161172 -0.2728675789628462 -0.4244755050815463
Ni 3.1106743515913715 2.486619368685334 8.06869012738262 -2.451214420647346 0.7714692737358456 1.592256934090845
Ni 7.911535165314437 4.038728769010212 5.856241317726719 -0.6827016799821338 1.7878312384881663 -0.8419221283407694
Ni 6.85138104807176 7.650048568412884 4.615721682038877 1.1962245148413397 0.4482085870324281 -0.9052537985198797
Ni 9.023260122557954 6.422565099412842 4.993722697089262 -1.2323577702287873 0.9505975167620015 0.6823707790052764
Ni 3.563602058895475 3.6834711565079856 6.254364891994265 -0.4751298369033043 1.902612225586504 -1.2538462791198663
P 8.73978602950055 4.852698336027761 3.641248910648524 -0.0035568641133229065 -0.5925634311331408 -0.9094081870078854
Ni 3.757388134383656 2.396342810859326 4.234072636990572 0.9241560347410214 0.9640279312352946 -1.9626348859970393
P 5.001773743883259 8.290122881433305 12.65208255744094 0.04837222065580057 0.42382450176110875 0.6731400044356278
Ni 0.4360448782817168 8.65714210312973 2.5258189085697107 -0.2834193863367635 0.7165358549227595 0.0013655128889589385
P 9.04446596368526 3.848713029542063 10.739168552693632 -0.570004057775386 0.31473696550312247 0.7859651533591754
P 1.3352323156993726 8.349455096070507 6.588232744538939 -0.11811750767073852 -0.5094134406765227 0.5213703559280828
P 7.844248461269117 1.6416502828299033 7.2170595014956955 -0.3943645446287789 0.14675754000493435 0.5183063722907783
Ni 3.3103090458813593 6.921757588465203 13.43217703470972 1.2579014230258465 0.7924687588056482 -1.6859152802779545
Ni 5.698145610841831 9.224265012133271 10.833436149135968 0.7950388335256694 -0.177908511686442 -0.04700053711925454
Ni -0.0034236490250201547 8.88301281855424 5.077357945955105 0.7846850010951711 0.07824818227962653 -1.505132532367511
Ni 4.651077318371121 7.707330088092847 8.565711454643932 -0.2436801587656126 -0.7924358486851837 1.0098437040178285
Ni 8.326934235306943 4.2845178937503094 12.74289156028051 -0.17012912485133924 2.7692161729446694 -0.8435354955744763
Ni 8.024764793155084 7.189515817478129 11.494376973041893 0.6789383562849597 -0.45892391656740317 0.3187208898515349
Ni 7.514316471691698 0.5581412329285006 3.512390780207764 1.1970426398672611 0.3389600997165453 -1.073254049953674
Ni 6.2460398061432025 0.5394045020972393 8.46155086432269 0.6793569318796171 -1.3120863937086822 -0.7652184077301273
Ni 3.2184875698812894 0.4422346665136294 12.334055633745313 0.6902362977962823 -0.8879114505866901 1.384911090979892
Ni 1.8394825725834851 0.14695298455446434 0.7885308340121426 -0.06671498482904639 0.35105714009039535 -0.517479762624425
Ni 1.2659960720534507 6.304176548383809 3.0639580491148606 -1.2732264834186913 -1.1733216421012373 0.726448228940465
Ni 6.363775445324865 5.267058264629382 4.013947545822932 1.128818931703172 1.6211872439719501 -0.03939444263722248
Ni 4.251200997651336 0.2286819147448125 1.9949215719654774 -0.6181142830190516 0.9917482799686984 0.21286728714981407
Ni 2.344744383033948 1.949741911315668 10.947045569361073 -2.2697876113950004 0.5662093666196442 -0.4923762826885778
Ni 5.071101946944304 2.1541676911335514 0.8192544746046551 0.3937837324246444 -0.34916455105337285 2.1083680985025173
Ni 2.8521580437982834 7.565032089131897 2.065998843102157 -2.1507445065861988 3.9705908645283805 1.4668012408874802
Ni 3.795505311952038 0.40943642151594783 5.187884886585295 -0.1935909554187053 -1.646370170995481 0.3896285726056903
Ni 4.774256954928052 1.8352432435463264 6.936059116705095 1.6213237695498142 -1.4600232987336985 -0.6396516428701952
Ni 3.08524757330993 2.6130083888300484 13.10649173092267 -0.5026663517606762 0.49043844223591665 0.8234646929665304
Ni 5.962538125261262 2.5980925716971375 9.18526410458556 -0.264625393558712 0.0717664312100248 1.857600436762504
Ni 8.597478834598087 1.9232575997603147 5.251977840143401 1.017124553949958 0.41150634651538803 -0.1493235009598977
Ni 7.7379709652117485 3.008203975320086 0.9274097819188292 -0.19071620497407155 -3.4500023810716454 0.29455869078303465
Ni 5.648082905249003 6.414215184519697 11.526194930674366 0.33564671907259613 1.0516624398258276 -0.8382140833615629
Ni 1.047077488412221 6.680925076200222 0.6300682090609144 -1.167367995620964 0.7085780335282635 -0.11263977238561892
Ni 0.5950951238955795 6.039682878607742 7.3518674060948985 -1.2968389806313083 0.6949133915569774 0.7299896664348202
P 8.091830794604109 6.258160057056382 -0.017764719813413737 0.43841988307678037 0.7106986794156922 1.4602716672990785
Ni 0.35416145627396245 0.7434900320791686 12.30482173567779 -1.2180261840974635 0.48226979038219525 -0.6665335548627037
P 5.623676876475424 1.7161374090793347 3.0179673064236687 -0.7821360094210724 0.15621534298372453 0.03898486590362963
Ni 1.7403043433735945 3.7258920347041125 3.5174108446793153 0.4283781825700622 1.5146206743636044 0.9177606727376387
P 4.811169464158326 7.564461940758135 4.610513100766323 -2.510828789875869 0.9528886267890234 -1.1112986634312214
P 4.209230720589311 5.477305075424535 8.243498538371918 -1.2032410553684891 1.0720574585424119 0.4609337479085804
P 5.611427882381074 4.302845405184275 11.424039055602801 -0.6873849443904162 -1.6580725470340736 0.5627656310454179
Ni 5.05411704297113 6.081092203237517 6.0053967302733735 1.2203900563439498 -1.6362922179341886 1.9274984473052221
