# total energy = -340863.1439892015 ev
CRYSTAL
PRIMVEC
9.33088756047460 0.00000000000000 0.00000000000000
0.00000000000000 9.33088756047460 0.00000000000000
0.00000000000000 0.00000000000000 13.65669712532347
PRIMCOORD
 96 1
Ni 0.8527740708841807 2.439681843996018 13.62952009723662 -1.0675482578181485 0.07121441536129672 2.7222346619888085
Ni 3.627755759427575 5.766003282046223 8.023897042996197 -0.7159933521557282 -0.6869537703902685 0.5744057863875075
Ni 8.332361255032156 6.84107081870665 1.5052410462586832 0.8473070468017666 0.628514395306453 1.3890564806068335
Ni 4.697952572801855 2.045675787519286 8.661869417695026 1.3360534460472409 -1.2954117612664786 -1.334337491797399
Ni 6.124318693753772 4.195372309126637 4.337175672966171 0.13356392413279577 -2.6977937553376248 -1.4058516977873015
Ni 9.181798600538698 7.623232465184225 12.520145686426428 0.1576947557427284 -0.6509431566236145 1.0382027147764958
Ni 0.8532947344078722 6.434701336264123 9.015127488366002 -0.5965000471833856 0.24304921004983304 0.0768682712129644
Ni 8.71467570944463 3.515066630832172 7.562846693501025 -0.1149866753512407 0.767525201486433 1.1264342335210793
Ni 7.058723101029774 5.4658846158093635 11.104519417011588 0.6610573622394809 -0.8174861067855921 -0.05372114367253973
Ni 3.987060245212388 2.9800242094701597 2.8484185726027134 -0.29925249671427817 0.694058756866166 0.7075189961361299
Ni 0.7534990261894772 1.6440370650500853 9.685671192135626 0.7828533472030711 0.29430543712164803 -1.7724920370279347
Ni 0.8579956355411308 2.6030470227199003 6.1209586411573325 1.0363522918313184 -1.3949602476857783 -0.2669113613794113
Ni 6.860273785225599 8.365896464783905 11.694215645852431 -1.9746859036243025 -1.6370362951890647 1.392830088716653
Ni 0.197800819121442 4.592672168898408 4.7316081510026295 -0.700813044870864 1.8845947059631607 -1.0420835378881408
Ni 2.5694091732054156 1.154436065917072 7.324960381587842 0.7664738774037831 0.13768411694875643 -0.5374448928924421
Ni 1.2115597593228067 5.037895466979856 6.877458480773678 1.5337537956486296 0.46781633396102656 -0.40035470077394275
Ni 6.85759582050697 3.1649810619184566 12.044168716163343 0.1700743603540039 0.9854269657363609 1.0815671978050598
Ni 7.902711208223848 1.0190542188697336 13.077025183854664 0.11320027287477924 -0.7233742180008317 1.2314208602368146
Ni 3.669567466410766 7.759976621809682 9.474196890440389 -1.5379621773030223 0.10227719820437225 -0.9114226463347529
Ni 5.616186552003349 7.853574754536392 2.302901296909229 -2.1764938476361615 2.115116987190577 -1.4982268063866133
Ni 1.3655567269752482 6.866366854777042 0.5616457147741467 -0.08151656861825315 0.014025367744814554 1.1257053257748546
Ni 8.041517490991524 5.604429633726442 13.163990921731198 0.3779868746017039 -1.6903810293587922 0.37129146485939923
Ni 4.107885907726414 8.7192944987677 11.661316802629639 1.1102547955477393 -1.654620069709099 0.8550573801711466
Ni 2.310206448749698 3.722184341143686 4.587926479505046 1.3561990677571805 0.6182358961985803 -0.6287738196154268
P 4.285741954770959 6.358253374801662 11.887143875510223 -0.5306093580278475 -0.19466361965759377 -0.03920726632708086
P 8.819330943884147 6.255753575379578 7.169424750583129 -0.1598511399640989 -1.1370742297334286 0.9863929291940562
P 2.5682987975903746 6.042020265815423 4.688575963931645 -0.24167495541012574 -0.82619160497939 3.5285189865213105
P 3.3274038210026817 8.187611196913377 2.4905445118749236 -0.02778051254737796 0.3110394620468772 -0.8432583306536896
P 4.1967719422548395 2.6346040843171226 5.076753948062539 1.4172828224423784 -0.9793172532941973 -1.1894152052289904
P 0.6380582188640265 5.575737154598275 11.893385306173258 0.08176416585268498 0.2523380915509267 -0.2827233887110034
P 4.993797692553934 1.2968534021555118 11.897796016704602 0.8589415457169014 0.8878461445663935 -0.22952932118652727
P 7.909532087001957 2.9753867583720464 9.475808334715326 -1.1472483420529531 -0.5513239648673796 0.5523436643811455
Ni 4.022732228206528 6.577062687177434 0.7660537353494602 0.7014925874363919 1.1776691204366556 -0.4533124839178967
Ni 3.4349236379112544 0.8402576183630351 10.105696428465656 -1.5183207489230108 1.048490212745433 -0.049631546984198395
Ni 2.9244494433929695 9.085111944042419 0.12031992841036727 -0.14293199561125708 -1.066845061103537 0.9913147919757056
Ni 2.055566528291922 3.9455564575174016 12.02499467539571 -0.3730747820120671 -0.3732946113323571 -0.2303639012726807
Ni 6.438629639910613 2.6670755728914375 6.939022743550826 -0.32411326451169986 0.14312200013487608 -0.6180001260386905
Ni 5.916491835990635 6.500334799089333 4.319558957325853 3.099997336394848 2.5804606912413943 2.8050840904858725
Ni 8.755171761287311 7.597395237637594 4.756122258698733 -1.3697991750391183 -2.3165307810878106 1.1944782215741945
Ni 4.47066148366917 4.1945698527998 12.5012581039057 -0.12135632632301034 1.2395208636361297 -0.6057236226641827
Ni 4.986603578274969 0.5759341028355975 6.505763509449257 0.4144831697555249 0.4796228396776514 -0.09674701241476241
Ni 5.621402518127786 3.6234075658426232 10.044405560692883 2.6475978512095244 1.1491046785354015 -0.1718425079980202
Ni 8.24403507375501 0.9485780254209399 5.337761266164887 -0.0552964585794596 -1.029391030022137 0.2013924537409951
Ni 7.447503860494548 4.969108164172429 6.127282183630555 -0.9202114482709765 0.7356913448052879 0.41393603900280324
Ni 4.6249103852846885 5.108091733803009 5.736959961547254 -1.8176642626891986 0.585441732486695 0.7752498238242003
Ni 1.8011878726847448 1.089521081431006 2.008066712275713 -0.11378468462333952 -0.5563928947498546 -1.0922781564646609
Ni 2.0913598128238395 7.492310782372094 7.3952247638899005 0.1477790392909132 0.7151397459061812 -1.128804790635785
Ni 3.490554389313572 3.4373310068917635 9.954789850760287 -3.196728922190643 -0.0015246641746425355 0.20024368484853255
Ni 8.180706340147575 7.794762170489292 9.678186887254746 -0.7400539926493577 -0.7617821283550686 -1.91342114327655
Ni 8.40057004281326 0.9137775473212947 2.2690600340467793 -0.3772875345418341 1.9817016728205032 -1.2352690303383114
Ni 4.352635087411552 0.9610814146995555 1.8289453968832714 -0.49949489601123004 -1.0040430381756513 -1.2714351958462233
Ni 4.188495445023398 6.02189354143186 3.4074824307997016 -2.760609662222581 -0.9282651718133884 -3.1661415363220895
Ni 2.727185150304006 4.727512824469507 0.6973448119972112 -0.7534916062115024 -1.6989147778614158 0.08555294347115588
Ni 5.2915556442478895 7.379024476975324 7.373742261549485 0.7671943005095755 0.12780825259594117 0.47948168611409686
Ni 3.7657782476434565 7.972571563096231 5.532505286534334 0.9857175003935862 -0.7064198495346802 -0.14129548844909862
Ni 5.629828309559569 9.228331736607696 13.599339341548797 0.024194080747700266 -0.4116670404629684 0.7857913467854725
P 1.9093888443823763 1.558500819141825 11.71552086132994 -0.21696793958174893 -0.28762468266736274 -1.3075142009569676
P 4.795255067874544 4.315236890225962 1.4400302726381902 -0.08446510972361582 -0.036071806021892715 -1.6942806215235142
P 1.7799134491360555 3.368954263135275 8.10445805967807 -0.6990405263514735 -0.7456705675051867 1.2007676541273322
P 5.376149470516493 4.5433024430229185 7.710598498135424 1.2598266650730174 -0.0707457032549943 0.6896243752438962
P 8.070816477808577 3.2317062385836657 0.31626576709256393 -0.02693950470332134 0.3623707653310017 -0.5028447863200695
P 6.127565842611204 8.28638797221444 5.447861073473115 -0.3857732034153421 1.2934343258251335 -0.05035968339947456
P 1.3184450758799273 9.272177577070543 8.335023357241997 -1.6702006977561752 -1.438533761401355 1.1313697231494837
P -0.059362173322107796 8.898792782016004 0.7513790485446253 0.9418228558931652 -0.29259642485034126 -0.4523948571996338
Ni 2.6645655641481927 5.6810082276142015 10.416795683137645 0.04617032790847533 0.21935418042573837 0.39451469705339803
Ni 5.287515369951143 2.4595659653040256 0.12311172995675666 1.008908850908385 -0.5483052326457137 0.6923083498339626
Ni 1.201025187311197 8.634961937349695 10.522676063108715 1.7096920709825782 0.11208364277183276 -0.9635869870431341
Ni 2.33398155015411 7.399664400172561 12.245182159858388 0.016781590333713035 -1.2165480568900404 -0.6266917402754174
Ni 0.37389239533569973 8.581085392801391 2.8170761214184825 1.1238826707438192 -1.3374084174132386 0.3178225464069817
Ni 5.610998578541475 6.930236779860718 10.23499826920408 -0.4540717306814244 0.024120547197287488 0.0690973690182939
Ni 7.259841050665058 8.591806582563429 3.5078454569793953 0.10750476515189873 1.2742107017088313 0.7124195187615409
Ni 0.42293927250294966 2.1651298095676714 3.6921696752537443 -0.44894058010244614 1.540033458009754 -0.20665755879467634
Ni 8.288711363207257 1.1695334419266243 7.788632710476515 0.16395333505793055 0.1338925111168081 0.912248741780474
Ni 5.748227941318042 9.270721958617212 9.70769955139604 -2.28243461073505 -0.35555939883612314 0.4820304206778796
Ni 1.7351718434711587 5.856839472066612 2.839404935257085 -0.7283012229888038 0.5112319819425002 -0.9278800205598279
Ni 7.1696486918836415 1.3279719120392306 10.707328728623818 0.6294957853831159 0.401826914444095 -0.32891351411382064
Ni 6.665034294728768 2.984810954768615 2.1590554017912695 0.05656401243797356 -0.03479319641978523 -0.44622189561970244
Ni 7.04953217682124 5.841536816531591 8.790979975239262 0.4327117769484096 -1.2394131344136718 -1.9255724339271028
Ni 1.5782076535869265 7.956354480584117 4.72770224148619 1.3460174992384883 -0.3867563932642178 -0.03837654289566939
Ni 8.832226230438659 8.2779808425577 7.0576855063374 0.2502737528227303 1.6392482152387189 0.6046771836775392
Ni 0.16758460606103842 4.2949235480919725 9.929784005291808 1.1885374306097272 0.448798398097627 0.6043791928211462
Ni 9.23861437465623 2.3742256680337137 11.666206187690827 -1.4279469870244441 1.14798573443961 -1.1706425526071773
Ni 3.611781279991015 3.206792768901648 6.966513404366242 0.27181085556355766 1.332642877703795 0.7034885348204981
Ni 6.069705009091282 1.546118731400987 4.300548207089845 -0.46395813655720103 0.12375233735901267 -0.4588830360271387
Ni 0.38206718589315875 4.550879123690258 1.4137955492831489 -1.3886841848690792 -0.019643742372856494 -0.8512099814005984
Ni 2.9874889194872436 2.0374552756129725 13.395103009303876 2.2734401205459234 0.6282999653028017 0.7148949768852269
Ni 6.2035285979225545 5.785738109153889 1.9507358731670041 0.9485583748447857 -1.8281937014656129 -0.6403962343457036
Ni 3.3523266215722205 0.8371905556347657 3.8165690676884476 -0.6994794136611051 -1.1193395314578272 2.449042352696692
P 1.7673354127572691 3.198450955457557 2.294994302823633 0.5149978767428356 0.6834285308458294 0.07500010765597406
P 8.175107807634761 3.0616788061695366 5.155785632279663 -1.9513816816807232 -0.5215336209788244 0.5317205888141553
P 6.67062349635406 7.171729479800904 0.15581462454160133 -0.8736369429455471 0.6307772231987008 -0.1465924751819798
P 1.0693943570474433 0.6135263824816322 4.901197031703255 0.63013573295996 0.08844363475538962 0.8220978945259907
P 7.650506649409145 5.593624465976712 3.664119161187047 2.6057176660359707 0.05250809720104505 -0.7684723958910507
P 6.380750144615648 0.733753002016786 1.9536592402274446 -0.2140232551311282 -0.10368359163359563 -0.17016074942022308
P 8.654743418894967 9.04469053929991 11.18994275918084 0.5463709917374784 4.190860871900169 0.013061975390280731
P 6.659351784228264 9.074260121855083 7.942912404020853 0.8709377988468291 0.09687685312440736 -1.5252673554441731
