# total energy = -340895.46628375736 ev
CRYSTAL
PRIMVEC
9.04320165356977 0.00000000000000 0.00000000000000
0.00000000000000 9.04320165356977 0.00000000000000
0.00000000000000 0.00000000000000 13.23563972083624
PRIMCOORD
 96 1
Ni 6.266133718615086 2.0172398045496625 11.409690536954505 -0.42296755307745226 -0.009023286544532846 0.6839604920898995
Ni 4.7393157686675496 0.03848605647721291 6.0214617661168885 -1.045403089179677 0.752021449423879 -0.526605636185093
Ni 2.7943401864284776 1.519447740814369 4.638218203043847 0.7119328089331094 0.38509828883550457 1.58786806099453
Ni 3.4367782564030254 4.237734603549684 5.021999009569964 -0.22373636865383403 0.4539989684619601 -0.601005648363223
Ni 5.159643769292781 4.602401699617077 2.6345404876193492 -0.05330333940883079 -0.49843483017783186 0.12311316111311703
Ni 7.410333817735307 6.129291995175735 2.475726497761774 -0.1965587797977776 -0.5099662278561992 -0.10964520853366923
Ni 4.877948045982197 4.690581956374749 11.454836911255736 -0.7899153962561751 -0.23704362728570144 0.3872639290282556
Ni 5.4818078188253505 7.771121380406224 12.453505674720585 0.16389754211933064 1.0198373248954307 -0.09509816395742976
Ni 1.8462780822643787 6.571124728707307 0.5043655668259664 0.41133408260358195 -0.2997662031259031 -0.09511719012082327
Ni 2.820836766502314 1.6324787149928277 0.5933488598671055 0.02108690257728626 -0.9567177707271265 -0.6683906626761005
Ni 0.7209023111583881 9.228677450904778 4.7401721598392195 -0.6850508969406008 -0.43774291161441387 0.7536579565860375
Ni 8.59881847406426 2.1502110377939263 1.24350530222835 0.5966064908542629 0.851070884719573 0.2541946851436913
Ni 6.763120937426633 0.6832626983313155 4.770746319419982 0.9527029931407784 -0.6351151884524223 -0.6757136787000749
Ni 0.934461129272955 7.654834853727224 2.782104734947282 0.6010583559780294 -0.6368069743325484 -1.1779228883186745
Ni 7.819647199067044 3.8164208939729005 3.6259032486809035 -0.5297241272094168 0.13647389869073917 -0.22211220278684973
Ni 7.710206375840571 3.821467000348737 12.46520576867947 0.253002464607803 -0.06628329660826648 0.07512840570372223
Ni 7.971328815988022 8.949739904018262 6.968604176699584 0.5164546637940202 0.31149017643105065 0.2549953266681157
Ni 6.964178433939129 0.6326985420771005 0.24408504872796039 -1.5771992684267742 0.2599022770514298 0.34224622666698473
Ni 1.7506824003665882 6.521540855483811 9.285131444224552 0.19841357361832926 0.02540327056445302 -0.6302504041609532
Ni 0.04392825507394837 4.779449496438091 1.1786565050578783 -0.12216031028154443 -0.09166522701648085 0.37978921791776526
Ni 6.332248563980211 1.7891069630743461 6.906965716022699 -0.1085272928791421 1.0464850093899463 0.7384336834371154
Ni 3.4799595430421277 4.430779823630294 0.5728370704734277 -0.1504576145643409 -0.09781324889574768 -0.24592576026667967
Ni 6.051393858398933 5.6310929873778734 4.718148347173068 -0.04523316080618661 0.5744322687500688 0.17075724535364142
Ni 5.33795761430845 2.944647236738115 9.174297063663818 -0.4604930608267359 -0.49016127731513004 -0.45193745794724105
P 0.2518766710459186 5.643039056414576 12.262674230340341 -0.33814480290410154 -1.2285610221905163 0.2986868540187953
P 3.8722626625585463 6.250362375390248 12.713427177723393 0.03515417930362978 -0.05732017387770773 -0.6580100907727249
P 2.6348814163117673 8.442497694830013 1.4522802668074017 -0.715623113300503 0.6515273112618586 0.2938686066945455
P 6.510969353058447 7.777297886955858 5.954382915483547 -0.3765025767466935 -0.9320423794676335 -1.3135840613001313
P 4.6332390163583 1.0762766134770183 12.565545514026658 0.914877951873205 -0.9958095945222656 0.7885084886063194
P 3.7659598302145363 5.956575891820716 8.223170218548518 0.3107957214671873 1.483492585500232 -0.4147855314872921
P 4.7895869251967165 0.9263312912229963 3.744323066567894 -0.08874728203873748 0.015570600744747375 0.320940266100357
P 0.30128872344299823 5.534791935771633 3.45673841051189 -0.4715855711954717 0.22111281498805793 0.6138927887385363
Ni 1.5954739349033602 1.0714837167401128 2.6447855304745196 -0.7257720288090468 0.17529807064678843 -1.101604576071909
Ni 1.765603682660728 6.67632429048169 4.792942857232689 0.2905511122855383 -0.6698165964893497 0.7758326929108639
Ni 5.8549574377969265 5.666008787946161 9.08560496170745 -0.15169868606029357 0.10759603931412437 1.6407872775910646
Ni 8.322964658851864 2.470421755826172 10.269691004880118 1.0991214046387392 0.1456465663289427 -0.5075607037385
Ni 2.1309128460268387 5.230325431360052 6.958067942759643 -0.012876598852352018 0.5271486531727567 0.012843945842203686
Ni 0.3721385890561314 0.10253905192533055 9.206658159839321 0.3300689678745025 1.2360218493439359 0.08055086227087417
Ni 1.4237254540971127 1.0354375159980267 11.284388842809427 -0.9462438677789962 1.316237182652262 1.023678810128708
Ni 4.337182689239779 6.81826637950522 1.7646152607487586 -1.119747565529523 0.35103425727225995 -1.1015832359156705
Ni 5.701295359771455 8.100266781412172 8.066036455509275 -0.2141602949296247 -0.494534209571845 0.026524785763405934
Ni 5.306396841455996 2.7644162330276836 4.739894533556535 -0.16014733104827902 0.7593820035540083 0.3858958450361354
Ni 0.9475647280876272 7.809898627968207 7.313855519381815 -0.5332524520776494 -2.1749925805002865 -0.9392581804897825
Ni 4.99926259263425 4.507176788976292 7.123116315655753 -0.5381640304466537 -1.0610523656811597 -0.8030725024634234
Ni 8.229756382121137 7.1816583841765675 9.28093630309955 -0.8803464937552387 -0.18017108246837357 0.3710688073256319
Ni 4.6211030400923985 0.31944747183489713 10.505021330342043 0.20043086115867417 -0.5699374662035088 -0.5375243399801259
Ni 8.293981198395672 7.260144329043745 4.523782819689461 -0.911332914834424 -0.02357778731994004 0.911488723685998
Ni 7.009502959307753 5.964289742606717 7.139078470429926 1.1727739971278834 1.1678500774637048 -1.6376253349233154
Ni 2.283616344704929 5.200383391556478 2.65919858485052 0.13608591922370109 0.11588707567832299 -0.14975107541561952
Ni 2.3046779607431427 5.347905135837876 11.274792197493948 -0.38126014603633696 -0.5171218650643739 1.6272730451547135
Ni 1.2002679477406273 3.2520527816015714 3.885441319944759 -0.24903062444424856 0.06814657506925038 -0.637913834243482
Ni 3.491878482474659 2.755382074838686 2.639119964803442 0.7968972268906469 0.34346158713132463 0.48741019693255416
Ni 1.1783381843689364 3.43851455106998 8.228437883358419 -0.9605201751923523 -0.6002991092145016 -0.023715598449384964
Ni 3.6086714284315193 2.2236056602783147 6.856881753762314 0.36926569267862214 0.9755125348361264 0.22688494158514474
Ni 4.071855160445797 6.744998361840296 6.011799105431258 -0.0560032548384971 -0.2468942948275361 0.39735422338472215
Ni 0.9094566774285324 7.486260536609004 11.43201910550751 0.017376029384602334 0.511873472181241 -0.21393583762364446
P 0.11507835497324244 5.825829286118487 7.969522888670361 0.09357709932721303 -1.8380806215620216 -1.0133038946522872
P 8.371806989561351 1.8807326795617565 7.981871380168936 0.37906750926039234 -0.7112383539692461 0.37061526472798106
P 1.6236887232413706 3.144746153903228 10.407288739955703 0.4893439236201572 0.19621450908448143 -0.38661446836971486
P 3.9490937015712824 6.167843162702959 3.8406783773824773 0.2129264225225236 -0.5298683660967649 0.4165194834592633
P 6.6083194160259735 4.0239714090836936 10.477623143089584 2.033951117043523 0.7169672860332232 -0.0955380797083258
P 6.272572478005041 7.735102309268308 10.176102009370853 -0.36662928349703955 -0.6909947732288615 0.7569865067386382
P 2.499622253115735 8.529493292205544 5.938222714598924 0.24814539362581778 -0.06434417060402467 -0.5033520649737911
P 6.9015994803176435 3.89915714349356 1.4069349420755795 0.8548236668937859 0.5919833902599547 0.47029564873945456
Ni 5.217104270927305 2.7790571760787217 0.6653056133304223 -0.499204875574637 -0.15507814405548778 -1.1277997464100384
Ni 1.380182439402395 1.0103155025355288 7.078684354264359 -0.27063946096327585 2.282666524240198 0.007126069521819985
Ni 7.024677451240824 0.657958012200732 9.414973729787741 -1.0353852999323587 0.2388395428438596 -0.9740840299197159
Ni 2.90536356989827 1.5931588753474208 9.349377964182425 -0.5534788064268532 0.6800696416759255 -0.9283009101473302
Ni 6.369343776083581 2.013902863236609 2.581029152032007 1.1576497398919354 -0.11326789288792107 0.32170825461463304
Ni 4.027733380862095 6.889128905600299 10.263206125163071 0.1174994144707654 0.565517225648626 0.4613410106493281
Ni 8.384494601112065 7.158887603075571 0.2970791131957726 -0.4563433003244205 0.15162001030355823 0.11307171771671495
Ni 7.465388827799988 3.9394355624863477 8.178221890357733 0.7257931118549694 -0.867008638995752 0.40310346716367357
Ni 3.071984555516167 8.358667217941116 12.394593739262904 0.11369212490953323 0.27083949278922387 -0.05257648854513526
Ni 0.06226334589295987 4.765794262338606 10.110386873507183 -0.3870284159786819 0.726989960376548 0.3736836192406596
Ni 8.38275830644511 2.399559229731093 5.665211177583529 0.6616610572617507 -0.31113305020194804 0.25068281533569087
Ni 3.423059719893807 2.5642811430570087 11.673106332974557 0.4800236746604959 1.3282673743439188 -0.7866158995692968
Ni 1.291206380922368 3.3401335631439495 12.629962950490807 -1.1135622626544177 0.1729894771182698 -0.535841038740432
Ni 3.1227892609273664 8.340237173507507 8.123942786972346 1.5587757716142638 -0.23750334053093936 -0.49759099412029784
Ni 5.735424401818779 7.7385296825952645 3.420645185122573 0.27304164264686526 0.8156053448231115 1.1305130315761436
Ni 3.1680233542820866 8.377079175971947 3.7272088079365853 1.070456432603879 -0.6566952286160432 -0.3783694547521032
Ni 3.383242504171929 4.282200024786221 9.448062803675171 -0.21707361192167776 -0.7357448237510426 -0.33515872369258404
Ni 7.097818864086281 6.110952382756028 11.512041490290914 0.6572978951970486 -0.421073678488849 -0.996483994881471
Ni 0.829648616518081 9.076118643448934 0.20322153460521447 -0.32013525370055834 0.14227353609165175 0.6374888308909215
Ni 4.80506888597706 0.382571730500222 1.6466322294889235 -0.7395233169568683 -0.8094115573075737 -0.9474422589624716
Ni 5.969173071357527 5.65103324644368 0.3639300751540763 0.25672722175755786 -0.4302666578420267 0.357190763791959
Ni 7.88690148780736 8.637487203209558 11.453526551374269 -0.09832541264547583 0.07514666053616735 -0.1683632912001681
Ni 0.11561461681569245 4.746396595356224 5.642180856602629 -0.7349773494573988 0.8456995931053307 0.4275523442346572
Ni 8.05173191954996 8.785235027525715 2.2734590209032453 0.6400967008274137 1.1255621153287714 1.0180936027314464
P 8.56993448882336 1.5547433558410528 3.490780637825866 -0.7591369774227378 0.5034471957907588 0.26753305412381023
P 1.6927878250653245 3.305290108186785 1.4994260929360501 0.5129181113956714 -0.4289391972798548 1.0520846149649106
P 4.776709406416804 1.0619069664676921 8.288448567785032 0.21442383300365653 -0.5824366271117839 -0.24509066595989404
P 8.450519014463287 1.5413232449777172 12.282090888045644 0.7077588800610779 0.5591177498801855 -0.03521691422076516
P 6.512163055641978 7.8313038856592545 1.2945080537499987 -1.6662283433719887 -1.6343734036449205 -0.42532139802160945
P 1.7064068863592488 3.150126858730509 6.031123522482378 0.4366548207565576 -0.15672724962313653 0.1276421593317221
P 6.782292524374256 4.002032602510613 5.894743906634078 0.767071401778466 -0.545966300099892 0.20744200236918467
P 2.3041624982638904 8.617818240185462 10.068112619967536 0.6962956166164846 -1.3400072884886665 0.7671400502328724
