# total energy = -340889.00854154094 ev
CRYSTAL
PRIMVEC
9.09006389253001 0.00000000000000 0.00000000000000

0.00000000000000 9.09006389253001 0.00000000000000

0.00000000000000 0.00000000000000 13.30422734446095

PRIMCOORD
 96 1
Ni 6.7016403996178715 2.1233116279372912 11.286973974413742 0.32371834306612635 -0.2950114620497371 -0.4882974846335139
Ni 4.719615632335881 0.5357229063063893 5.835952724711011 1.7789095105185042 0.33217984356991825 -0.6248418315508724
Ni 3.0468439234309117 1.9598450117651047 4.77934371412883 -0.3561978037510704 -0.2268633443185899 -0.7573032666481087
Ni 4.005263883544944 4.83029624839063 5.191482658906611 0.27778944174449577 -0.5015939446321038 -1.9725025228197386
Ni 3.6862390066512636 3.355633388557374 2.7600815007505624 -1.7088631473233795 -2.1349543336314776 -0.13080075956536183
Ni 5.334785695698652 4.676237848185646 2.663785910558712 1.9124315256697708 1.5092609527135878 -1.0391933608245392
Ni 5.560382897509324 2.9878221395902846 0.05565755125177553 -0.09496266682083 0.5909955724253887 0.3685928349813136
Ni 5.717204677090182 7.815018676246793 12.063355409135692 -0.3927707177790978 0.48297427264838755 1.542940090133588
Ni 2.0870331835652065 6.846254223600705 0.11335400379963188 -0.9932570033037411 -0.4212300015610552 -0.15859335629759783
Ni 0.6435056100419644 0.18069046893997023 0.18285208609649284 -1.2054198081873628 -0.18653070613781425 -0.3048711284526362
Ni 8.038770595118969 9.052076360073555 6.734227369106592 1.4495226563126906 0.07382794172474381 0.32998283591859945
Ni 8.63057919467912 2.3076944807669983 1.308026538436177 0.9059886198033752 0.7205670875693396 -0.29312530077061777
Ni 7.134263803025693 0.910115361418653 4.7322071886235815 -0.45182638629067345 -0.11325915113717266 -0.8811589623542049
Ni 0.9563928759008083 7.804392391738907 2.265496586889752 0.564889105146324 -0.6970049839786835 0.33292212105258145
Ni 7.9733494064078965 3.990092567168845 3.4086757284721796 -0.71148646542431 -0.22002318146830496 0.6135469753633433
Ni 7.940979689442476 3.7530509751140104 12.606340367361112 0.18628902244065337 0.5825019331320808 -0.5745659661144555
Ni 8.503872796257049 7.712164605069108 8.97386090665346 -0.9879330199876662 -0.7762759510958696 0.980286559186002
Ni 7.1761417266594165 0.6063163412834898 0.022229750867434887 -0.9589003802007422 0.6953522788666089 0.23524822594817552
Ni 1.9064590674410626 6.868106736823078 9.071793617324241 1.2271669700564671 -1.1754358602307626 -0.0819243455796331
Ni 0.19823247393852916 5.01444275956319 1.4779271017210072 0.3869646526202819 -1.2892292866048507 -1.5621297756881614
Ni 6.656290071636831 2.290332459030421 6.5612725444063225 0.415889048964116 -0.4712130183474013 1.5573295260860405
Ni 3.6216631938676787 4.5022358481429405 0.39531778183352106 0.7304393523777291 -0.5624504137978442 -0.6166065881252735
Ni 6.055173246810578 5.926621565450012 4.64413356108133 1.5265045702853839 0.42705972086895483 0.1756755085908652
Ni 5.742202352365359 3.1739230144661765 9.059353865100938 -0.639515374402647 -0.4807569532820946 -0.10981001624630767
P 0.41140083160238333 5.605206001793651 12.287797263845464 0.14113685138404725 0.3834748942994686 0.5902160139468867
P 4.091401327511337 6.26158132407365 12.528111278845413 0.4519351439543959 0.9022042130602785 0.20554349979489117
P 2.4781149956975526 8.932923804616454 0.9964109724940594 2.18756758895182 -1.020911531796216 1.588286636589187
P 6.426847772865649 7.8571238514739274 5.722307838871813 0.8897279349701388 0.25794489621474287 -1.0322974050356544
P 5.025859879616144 1.0600650528147706 12.543078977793815 0.3057298769085058 -0.6384671356437908 0.18824280373291452
P 4.189355854335085 6.62811996411764 8.215266908650952 -0.13022277557470474 -1.1073785024412088 -0.7938494412032586
P 4.862647785228577 1.4812713361696388 3.665487300147372 0.38690423169599175 -0.8500578700740263 -0.08796669511897108
P 0.5432503880865254 5.936166132373262 3.385832398302535 -0.023384697472527468 -0.6444773463936128 0.556703484011738
Ni 0.6840045710068724 0.17701353815858506 4.591023045688502 0.7208511944686617 0.16331570147393165 0.12047135261489575
Ni 1.8772526926559194 7.0429359326658 4.780714495740283 1.2197429096782542 -0.5242397070560777 -1.1831679387676979
Ni 6.092506138576089 5.705533035252608 9.336693527712107 -0.18231769649773116 1.0905935696733862 -0.09498169298422351
Ni 9.046195088836086 2.5911590283237715 10.174527429317806 -0.0048038491465465655 -0.27186099207520276 -0.22352708085650536
Ni 2.5610618272924586 5.523077275935024 6.866657780663492 -0.1587764188426814 0.9293244663158382 1.3799203226335202
Ni 1.0922166082505167 0.020843516147629602 8.867360810911094 -0.3761588202540296 2.4049199084561805 -0.14021691067293915
Ni 1.753600555649288 1.2479839404379485 11.509207852641937 -0.14253758838631578 0.40222594965472663 -1.0597783840647426
Ni 4.157149758516921 7.0808142282554964 1.2885619849573635 1.0575908894951207 1.2471259296768973 0.38158333370371056
Ni 6.018058516574742 8.375121133494282 7.799536479690908 -1.4459796761564387 0.09524908771299725 1.3760909215851012
Ni 5.858446087426802 3.1811132548816916 4.53718078016489 -0.5328019948037921 0.6778883177538905 -0.3312940985308553
Ni 1.2342761243234148 7.6165644047530945 6.901979950330504 -1.4027332067629776 0.7462171840372761 -0.08218762654334878
Ni 5.442230249063233 4.962693026711705 7.212314726292159 -0.3433973095522925 -0.2759189641946603 -0.7051111580255857
Ni 1.0682552002412924 7.572059452699542 11.158934063641537 -0.5593365507592108 0.17597272811630982 0.7202205028631984
Ni 5.01749702097863 0.4573247426051916 10.365243329552682 -0.2259153785830238 -0.47588008480576754 -0.8875579239020133
Ni 8.439369703983356 7.360988172739682 4.554941855699498 -1.3049073594617397 0.3514363778066851 0.9218104173269801
Ni 7.490112528115643 6.48273348471721 7.358581123862276 -0.3458655685871269 -1.3781915128678714 -2.014760660158001
Ni 2.5846778128796988 5.620968172312618 2.1953967423735397 -1.2946399160974607 -0.05691933889486327 2.0353315423308174
Ni 2.477751393148095 5.393625678264551 11.350940752926986 -0.5247914657944898 -1.480956706452256 0.10270734376325535
Ni 1.2260768868331569 3.4724407075704753 3.5633913402853064 0.40460910517492255 0.3800843805606809 0.09347862607613579
Ni 1.5036419830249885 1.2071695542613865 2.355766373830725 0.628868179101446 1.0160444335119017 0.5221069769837912
Ni 1.4938974346995375 3.952714225084653 8.402830374782035 -0.5121760910233244 -1.6877153096011708 -0.8486303935988805
Ni 3.693238355728313 3.120164377528941 7.014959443504195 0.5071092180233783 -0.5362385312891669 0.5623807369021735
Ni 4.303681585948142 7.130064193579463 5.998450340088893 -0.19674364211507406 0.486668176560207 0.08904630133639503
Ni 8.66781209574353 7.098739833943732 0.3217464419763667 -0.03360560386958729 -0.012268018734075646 -0.9852847837315418
P 0.4130406791004349 5.812086762371018 7.9791570481291005 -0.676031724161126 0.1195976917606908 -0.24529326888900332
P 9.138513776143249 1.758909152871362 7.882089711526027 -2.0068149229483634 1.004673729781115 0.8741380509516816
P 2.180788100942726 3.1699961069320395 10.439614595018641 -0.8298441141303128 2.209841312748355 0.5825361288041259
P 4.191028426062588 6.476161368635772 3.540627093670169 0.13688861763065457 -0.12413723150225717 0.013779313172279496
P 7.2407175394430014 4.075611886801161 10.321512850929473 0.4160888236797479 0.438278986623542 0.3373441613796771
P 6.4569086136420175 7.858932774157476 10.07337501807158 0.02164148952917563 -0.6572829827987131 -1.8301063451072932
P 2.7445174936210504 8.90911692769075 5.766930052747564 -0.8842347730660514 -1.2740492364303027 -2.252996765089907
P 7.092949463343627 4.094973722559752 1.297495699597525 -0.0013007210892945341 0.29654255398228285 0.8712746133609575
Ni 3.0864038808118472 1.911140450265323 0.21163122788602415 -0.5249405897778443 0.4812986847181775 -0.14021973888641656
Ni 1.5332846808694804 1.3035151398037876 6.546411199203636 0.4865370502989815 0.9859720396065534 1.1262457716593572
Ni 7.329263850299547 1.0199142412909679 9.01546340135597 -0.18438409210845663 0.20120090655547926 -0.4564093776756656
Ni 3.1679781127825524 1.7968601689709491 9.275773738563313 0.45581699550730537 -1.231964905665743 -1.9714884797329273
Ni 6.4305837890613216 2.069589351255001 2.1813080525884496 0.18969419146746042 0.374286028711349 1.1456817688967817
Ni 3.9137451218465857 6.808875881516513 10.345380631282213 1.4804581695492824 1.633630354831309 0.14636467544188986
Ni 7.5088653296038945 6.190033432404225 11.254285196211173 0.42694273567511637 -0.2822369359928881 0.7695579156457455
Ni 8.017718007505403 3.919971815506039 8.049283253830149 0.21086979710381104 0.1067876844802161 0.7922581854567389
Ni 3.1957846177522864 8.630506474169229 12.242855988732563 1.8200013954628076 -0.41850026133471796 0.3482741780286196
Ni 0.3539452657435423 5.0493304241836015 10.162301293592307 -0.6849516523585752 0.2187024057743524 -0.06289149731789814
Ni 9.111516286846056 3.153179489019648 5.897630625175422 -0.17485429824115048 -1.5952255298008655 -0.4118609016413294
Ni 4.191573829886774 2.622283406557302 11.238493028481876 -0.3541884866305255 0.4635526735886662 0.4573725129198833
Ni 1.3733813696819739 3.576521937352577 12.554759709695125 -0.6227705508441403 -0.3998345666044146 -0.1764812923216122
Ni 3.2762589520108842 8.796645569079926 7.837267516248074 1.4886255358514235 -0.37194529639331425 0.7655565077958364
Ni 5.843156600222129 8.323380490706533 3.3222646735873202 -0.6642149340318559 -0.48853145502119094 0.0402202809726275
Ni 3.184422038081751 8.44834159689121 3.3070579059626493 0.5091347330938393 0.7065779723790993 0.14590650485854872
Ni 3.647533515261553 4.448949894519998 9.176816577709436 0.5939379428831643 0.7764397303672433 0.4334717950428857
Ni 5.196362205120325 4.742558953206626 11.46108596422766 0.5907009240031053 -0.180333833298483 -0.16238187680575258
Ni 8.085229910875853 8.970147615617128 2.6626551066298996 0.09960427935789942 0.87791371594403 -0.555645732171185
Ni 4.532433039875354 0.7857414733513494 1.635342462463853 -0.041607648238457376 -1.0960849318052608 -0.31001410610615643
Ni 6.062836170540387 5.871363067996266 0.32675415808876496 0.8629720070325332 -0.21089602235605612 0.03982690218895076
Ni 8.015909084821853 8.747395603755958 11.134972655632312 0.96222713058113 0.3145688153563744 0.8530380357482729
Ni 0.2753098513788238 5.470618518112097 5.7232123002135875 -0.2912188277765243 -0.20512543842086609 -0.08025518540732629
Ni 7.595066404016442 6.294723696456668 2.4904320320604127 -1.1742418399226615 0.4058540333256172 -0.07078529824367809
P 8.782174187611531 1.7788527527090854 3.590292474906892 -0.3312904989864294 1.197276353144622 -0.34170089568647605
P 1.8755892109921528 3.5693771472557443 1.3858211219052758 0.5802244499518135 -1.1795488539578718 0.535537134346768
P 5.13321353234336 1.4658182278177112 7.81450417863931 -0.6452607615268565 -0.6690365237902155 1.408108869252594
P 8.789246257198473 1.4564645522329267 12.083404453712756 -0.7905805406439997 1.788266526253372 0.31744305158037583
P 6.9337188168726165 7.947924498137108 1.1448180800741052 -2.3256859652245168 -1.1504431948411669 0.4946203415277481
P 2.1588265069555157 3.8199720243415936 5.660869007083669 -1.24330835570302 -1.0428160451787911 -0.3764246723209066
P 7.19344011794984 4.301554511033817 5.979757533021302 0.171650189481556 1.2287769948560643 -0.6980581078335462
P 2.7238012383657306 8.792773201928206 10.133204908578376 0.6016620510002992 0.13585863370424345 0.14012795050355867
