# total energy = -381174.6194296484 ev
CRYSTAL
PRIMVEC
9.18751293093031 0.00000000000000 0.00000000000000
0.00000000000000 9.18751293093031 0.00000000000000
0.00000000000000 0.00000000000000 13.44685386245223
PRIMCOORD
 96 1
Ni 6.760208651883365 6.006088415576905 11.951980247434314 0.08959446053038118 -0.19910957124408935 -1.2078096485757779
Ni 8.913678959361434 5.896628388343377 10.651387669861487 -0.479360072934568 -0.36361749325390924 0.8324396427716308
Ni 3.2356398750251145 3.418498941839694 11.544674837216894 -1.0172975891927123 -1.7744633018216924 1.37986787212903
Ni 2.9429532804659004 8.930051107131296 9.654975265332778 2.312607020553372 1.206304267674845 -0.05838872435153815
Ni 2.1431894806798226 2.714955963374477 8.283503782933824 -1.0580390327761326 1.0659881124198802 0.2761195102412406
Ni 7.84465672259928 2.055402796088891 4.885510450862681 1.1343352335357109 0.9069610110189735 0.3143425582781812
Ni 4.586571753858241 8.306035239269859 7.194671431120391 -0.9222937847213019 -0.9651674441563767 0.5066502761090887
Ni 3.5246790270115818 3.178171982600596 3.1582626424113185 -0.3855667438314908 -1.1990267601768254 0.45610984415737577
Ni 8.78142471292643 4.394176048780409 12.600885087410544 0.05125854106466011 0.9516264722471481 0.1459782386367486
Ni 9.003707397070125 8.368602201286 2.2476009696420034 -0.9167083202137244 -0.010919732236297323 0.3337734133092833
Ni 3.0077436205742463 4.504270014395598 9.638422123561195 -0.1780319246381837 -0.9000583703618693 -0.39709171375195484
Ni 2.262755771968821 7.944598486595108 7.811142513488782 -1.1777858485201782 -1.6676995286008762 -0.05704300895692112
Ni 0.9115216239653079 6.479079948398497 6.436256032590356 1.30228869089197 -2.142506177836807 -0.42108679111497155
Ni 7.011156375893484 5.001020455260325 8.834623168163152 0.8556801013568102 0.4879488430448435 -0.438756954701225
Ni 4.770579259770033 4.943864938270248 7.987942415626468 -0.32926986901197486 -0.2513392179727671 -0.9161683885498545
Ni 1.1272343177216673 5.426080733920653 0.6357896654860624 0.11824194906374474 -1.0906035969757153 1.3895061665497423
Ni 0.10884078887231038 0.34474304195766736 13.23593975187439 0.39284090889540085 -1.9748797648026635 0.2857876294586239
Ni 8.633707882486558 2.875314811396467 8.259017223878697 0.24968059932342163 -0.15072886594785656 0.9198036713095965
Ni 3.717341169959968 6.51831062795928 9.360623893458246 -0.33775579499579894 3.083374640236503 -1.0628379968266728
Ni 1.0607810378005575 5.12707313057038 4.310832445368773 0.13824436032760062 1.9411052394553798 0.38867854998759516
Ni 2.918082683376664 0.688929320641006 4.032805446197658 0.06477303061132715 0.3896753666832256 0.46001329297683996
Ni 4.703188853545598 4.641614142909447 12.647788258891984 1.2978070009715326 -0.1196434573969617 -1.077356502157822
Ni 5.1720827556683355 3.942857858601412 1.5304806847939 0.16952363005685642 0.9268700912380746 0.16385537602748557
Ni 4.616302545206881 2.5775567097839613 7.271560806805692 -0.8610249106084913 0.5149971054118874 -0.18722901775641948
P 2.211443513105362 5.702836181323335 11.705270723068546 -0.8740604036362107 -0.10927471256812792 -0.7674840638358524
Ni 1.4736770495432092 2.9240545666821696 4.844686656586245 -0.09097719981052073 -1.395893815243641 0.043766346452673015
P 5.382715673609905 5.376155789486626 10.288591165295639 0.07328698161960927 -0.45505312075808724 -0.45025492803849554
Ni 0.2895637589660741 2.518894440698342 0.7164606214306642 0.35710180362257854 0.627222415967907 0.19882443590350274
P 3.125518346871593 3.924813583506008 0.6156010249083426 -0.640965219475296 -0.30716892334787743 0.8493035084065049
P 3.204916832296483 0.22866984302675092 1.3437242750590204 0.3885227411360212 0.9181123996501027 -1.0138723655612474
P 8.849834933069191 1.6348260236640815 10.038574136329899 -1.1129871068772381 0.5501021766451365 0.0707953255460071
Ni 3.312070793822808 6.200496185953054 0.04734325334349225 -1.5936849247866232 0.9845365927116076 0.8505895742077803
Ni 4.3864126004832515 0.6971604133385482 11.479699828101715 0.2990033568179496 1.7578866284099337 -1.2609152701515058
Ni 8.797622297953518 8.165640856513813 6.678299219216329 -0.1565855818389497 1.9288799010337814 -0.053574847902662565
Ni 6.672072841806881 3.405755861617023 12.940081627904313 0.37381474550188526 0.17137302456076936 -0.6061614815325496
Ni 5.668217633176957 6.3530272730884425 5.880228678035182 0.8299592995519384 0.28493068077496736 -0.1376388655331178
Ni 5.184109209894347 1.060275724597784 2.2565836008847615 -1.608744647333223 -0.6922543566675755 -0.8673539381503127
Ni 4.432487977063421 7.108975824437665 11.473675575973376 1.6353406526541965 -1.2213935579077997 0.058546847195957236
Ni 1.4021798251071418 1.0373161301663096 2.34817024076055 0.2729305709902977 0.019720104136746682 -0.8493526164768856
Ni 8.534142806514614 8.586098191272512 10.86320210194627 0.8595205581488229 0.43165222533564374 0.20384014395053926
Ni 0.746435800619191 3.591113931907137 2.7112350206995077 -0.058320590117764075 -0.11387595878556518 -0.6349148995161581
Ni 0.6322561480717587 0.36917263843357384 8.777595357600685 1.4983101101290388 -1.086793736311322 -0.9481588254135219
Ni 5.144060841696349 0.5828934794197278 8.79348883595483 -0.8809417041370763 0.2867420229520932 1.0403431581582663
Ni 7.949183055471181 6.255042449314263 0.484971130732437 1.1333859822485641 0.2748892373785653 0.37978433282175883
Ni 5.296527616242294 4.501568885638954 4.130578038426672 -0.0693321107369193 0.4447010880998019 0.22108838950802567
Ni 0.5433779869628366 1.6113978660809445 6.623853099744395 -0.7674724938716266 -0.49237756824015844 -0.41002410554290675
Ni 2.816055353980296 5.3385329246619415 2.6077487142740416 0.19490864578886433 0.11256418195267709 -1.2275495502068665
Ni 6.150525303955139 7.158340330592251 8.874775355255537 -0.4063386862715196 0.8053708115792968 -0.4801146917124054
Ni 0.5015610225551314 4.969736974252254 8.652377827202123 0.18291290687956885 -0.23573390733534244 -0.1952292623530767
Ni 1.6042959187037817 1.0401734466401744 10.982730724432878 -0.12178390077873222 0.6175920919669945 0.41033623746668685
Ni 7.772975747907658 4.691658525009583 4.421580561893735 0.012352608028081951 -0.12446890381006306 -0.6138997307170717
Ni 6.505310297378833 2.7150202759639206 2.9829961361562316 0.8729237189286064 0.14963357600114874 0.9216651499983676
Ni 0.4653015846266574 7.106017445323245 12.617344516551794 -0.028609436206576532 0.24449134181299834 -1.0844979982986096
Ni 6.3333751832569405 2.6009297422904325 8.754493356721158 0.4311647441762638 0.7016077728580175 -0.019043389784696236
Ni 6.7155573397837385 5.852905015034299 2.302342927025378 -1.5572194828707375 -1.0318320353634618 2.3710003728906006
Ni 4.655533224767663 2.242368681115103 0.01775670594546235 -0.0081550250069666 -0.8975397177050737 -0.2849990721190575
P 3.5711586541539706 2.3863002562905637 5.311346155601448 0.1701772044804553 -1.0226657954831613 -0.16662548257345497
Ni 3.5693119640856525 6.361093909307264 4.585955271750858 0.15089804453586914 0.49677981107291225 -0.12662271692827223
P 8.80349311861847 5.85765495914037 2.688886395867751 1.5521176428677979 -0.30257616177087243 0.09290372740927226
Ni 9.133049201954597 4.1421074482114095 6.366681754578662 0.26667970498457944 0.4547461310406297 -0.5481818196939721
P 3.442395662574494 1.9915955198477593 9.848596584615157 0.498330957610116 -0.23663713587590215 -0.3378367847453794
P 2.4073764106026094 7.986677295116978 5.706414717550248 0.5347838011205113 0.9190912186236042 -1.614219040184233
P 5.7446393644618725 7.246154577721515 3.5420893637253252 0.4183051146047763 -0.029418562371433202 2.1594991128503778
Ni 4.584026812818818 8.549568640468372 4.896981060565641 0.27017794794582506 -0.5024328955936316 -0.539130251014665
Ni 7.685271750931725 3.656051272219926 10.467313095106418 0.6349118141923646 -0.6877107031609511 1.228372303218478
Ni 1.549722092804239 7.486481536960613 10.549621265828007 -0.27526718954327434 -0.7813078570928221 -0.5055267040276068
Ni 8.809906002537303 2.187280354500009 12.020640367924626 1.3472912237445893 0.7174578525163966 0.10071988101958138
Ni 5.030071370663415 8.857396256085238 13.428713982478664 0.6503358620569187 -0.3396262725456345 0.8768001711648771
Ni 7.4786997136379005 0.22633529602993716 8.542584293254764 -0.24086197259052708 -0.1295530032011898 0.6598324886934442
Ni 7.3981711641413535 1.3884536810172567 0.8410846385037869 -0.7804473088647398 -0.1652463428377412 1.1625309792436365
Ni 6.870541492830773 1.248077673286766 11.948739811677617 -1.6287938526746142 -0.6432190485064794 0.4475089898622422
Ni 2.2518869443528007 1.7366328527537842 13.17241636977809 0.45395140305347625 -0.17079555479074457 0.8682080586204918
Ni 2.809578157472018 0.9609954615219489 7.141799132587279 0.6833452271034038 -1.2521768618372435 -1.3803512395233517
Ni 6.782809933316509 0.06956049674252834 3.7066524175943907 0.4744132704522539 0.7888355329284351 0.5922492423268316
Ni 2.9786559551200456 8.457298449641925 12.263826481140145 -3.5456381627001 0.23361403277886217 1.9284824084850463
Ni 5.392739250050377 2.771982855185666 10.876931002289988 -0.008635307077494806 0.95609659220336 -0.00471360342558543
Ni 5.49290151435287 6.366073541232778 0.445818545030265 0.4361650256043327 0.9475404751032325 0.2660382147458386
Ni 1.848049820208962 7.626049043566667 3.449750266553043 -0.47236204435018003 -0.0107999188289814 0.48538853851683506
Ni 8.035554863094346 7.3189196789209054 4.265018912902769 -0.006260121977098896 -0.9884654954523685 0.5360665244876768
Ni 6.264735275294738 8.635784260374319 10.788478223022672 -0.8924430199084565 -1.4624103109086362 -0.4740309474121707
Ni 0.3323683809973822 0.23838839404300285 4.526708676852576 0.05950972532985879 -0.1256770651855513 -0.08686266342151493
Ni 8.706243295866505 7.233733060446064 8.839302368420835 -0.08416249088153248 -0.012443110859359216 -0.7974546420560138
Ni 1.58979802354057 7.87030825827462 0.9933823628146221 1.8876628033655232 0.21271533495298206 0.3988848010966356
Ni 6.6399992346999275 4.20608009968254 6.588716375877357 -0.036736179078768985 -1.1310280235393488 -0.4770915886153654
Ni 3.1900238740838303 4.408526943739178 5.74465682073615 -0.19859020840550962 0.7647311836810635 1.1215913036064813
Ni 6.712084459953768 8.159714910772195 1.6604040592372005 -0.36669021864196205 0.4842238287847725 -1.1214023275241267
Ni 6.625538089587826 8.707400922476495 6.218981461661788 0.42557388035204774 0.2678356729658936 0.053879523627274946
Ni 4.12612117597821 7.699815583658826 2.290711535848809 -0.9156461974977973 -0.3899373620953607 -0.6187462601760957
P 7.220107978996734 1.719534891474483 6.992095043133588 -0.038440563364385415 -0.25897693702368296 -1.0492484310676962
Ni 5.647233353992688 1.5220952418816929 5.371439839177833 -1.0480855211078466 0.5002970801975513 -0.5648317695458271
P 8.607330533301779 1.7112477549489968 2.7920373580768314 -0.8827317061579635 0.008245527838243864 0.055663869221207356
Ni 7.755280598297805 3.989309923205467 1.4344831200335377 0.6542969035871957 -0.18752186640648993 0.5152956104889126
P 2.3674566675834994 5.378663980474938 7.723348478887629 1.2769620392017236 0.15520772765481658 -0.6294556761737998
P 7.4725532675896185 8.062143525073013 12.84217581674002 -0.44886833210361404 1.0250327530534413 -0.2573306596695117
P 7.734452506830758 6.147824175198495 6.943282706496942 -0.009484542451667535 0.12481677406778503 0.017754752880259742
Ni 1.0768683726743116 3.8212978770396524 10.809656358726551 -0.9187466907999919 -0.04007861318844065 -0.012008851535418027
