# total energy = -340858.2071372166 ev
CRYSTAL
PRIMVEC
9.33718474060089 0.00000000000000 0.00000000000000
0.00000000000000 9.33718474060089 0.00000000000000
0.00000000000000 0.00000000000000 13.66591368496695
PRIMCOORD
 96 1
Ni 4.6436994305766195 2.045020862409287 12.643128897492076 -0.8744157300931006 0.6339841601717726 -0.5115184028346674
Ni 8.987497824806054 0.5004441562625359 10.98345925120627 1.266431829094361 0.8476667441340304 -0.006606192462607977
Ni 0.6223467052252775 2.9722593292200057 11.801473198480823 -0.9475276195874262 -1.6946544599231654 -0.10196660894248889
Ni 7.082263954991608 8.141408830484933 9.6607620658017 0.9346363654470549 0.000800384414108299 -2.47524755033715
Ni 0.6797096996148575 4.016100558940641 4.230557017822366 -1.600651071691811 0.48485632016244884 -0.9664632801496646
Ni 6.753791133370213 0.25891546397425946 11.330259099015974 -0.7484365602860982 2.7609881286079223 1.6964480614884785
Ni 8.747606874719445 3.748926355072578 6.648425672283012 0.21491954169315244 -0.11089245067720901 0.14671665946466989
Ni 6.2407034952646026 5.5702562829020374 5.394045866393416 0.7096296147212294 1.6084780239353977 2.4213826819978945
Ni 2.688315541576621 0.7436740836086426 5.809598206526516 0.0232294028415858 0.04503415742150308 1.1477371087639137
Ni 4.521886518587287 1.5517840790399424 10.072884857983423 0.10275696605426819 -0.25339918582558946 0.167325336853957
Ni 6.807386573721184 3.3241404729598476 5.335842525378124 0.3895470686354775 -0.011973113201476154 -0.06408371785378641
Ni 4.246878416730641 6.695032229863478 4.385432900941104 0.5954294398270261 1.681959123843684 0.5813801608228116
Ni 2.184593099755335 1.304638136418017 11.0583070577215 -0.05998255120121927 -0.6068497658488259 -0.009215090840364775
Ni 4.844112763624222 2.0514074967646994 4.774952236328118 -0.07182633791368274 -1.0427132010523397 -0.7527848099524649
Ni 8.899168057258983 9.285101913709626 5.901091412260157 0.802625901844308 -1.0985627039217918 -1.4150225656532922
Ni 1.6033160015655537 8.479069441880782 12.221726811125547 -1.241400854267662 0.686756823888114 -0.6631114165550321
Ni 5.033508218690266 4.3786914535659465 4.139309380047129 -2.6592516333983687 -0.5719038459012602 -2.124123304454245
Ni 7.468842077188629 2.7825837586120574 10.738962267892285 -0.004639555654540397 -0.476448812825044 0.23940312865681349
Ni 5.10880327635407 3.782194744266046 11.15332598440924 -1.4287075193395524 -0.6210669378894723 -0.2871996793148021
Ni 4.644502428463411 5.74833507007516 9.864166099118364 0.34892800956253456 -0.342252654424888 -1.3848560693722407
Ni 2.003563762207491 6.415878417986652 9.337850471405574 1.2563518191505394 1.308732903855417 0.4724106381999284
Ni 6.484067878070823 4.46438813501912 13.148672090335738 -1.128480831637463 -1.0545389900426743 1.0715154699960128
Ni 4.9626576609580075 7.798267291652498 8.237033740461658 0.0721325563001919 -0.6863184507991149 -0.08430287311413869
Ni 9.474347973819988 2.313483597770109 2.3063966745599376 0.020947805896260698 0.1463693034275802 0.08006620932497178
P 2.589322709067737 7.375516915810937 0.007734923830443266 1.6683970688885332 0.41294333607223077 0.5264577977533191
P 2.9744068817079365 8.637829593847254 10.3168216102136 0.23764475120481007 -0.05545483853419482 1.9957846332761306
P 3.5609128033465933 2.0122193324523256 1.1207385482841297 -2.0586046539261447 -0.8109377641441131 0.06561043891095797
P 5.987376336351328 4.915644935841781 2.15232659048341 0.22185252136755984 0.6139622085238909 -0.5882064397160256
P 6.440911410248142 1.4320253476912397 6.300245788570195 -0.04366478787780222 0.3611034685828039 0.1465477379869734
P 6.540287067330961 0.9728879629563448 9.313661560643688 -0.21939866051042858 0.5105472971706498 0.15666502892663342
P 6.251422583334796 5.558687511021401 8.07928854047535 -0.43950206039736567 -0.13839656963474875 0.05724355500350141
P 7.721198168889969 2.3889000388354042 12.983041637844831 -0.16748268836742766 0.5050459077364463 -0.29467233354276345
Ni 0.8442523700847034 1.9284367738688304 5.256716420819546 -0.877197920823928 -0.27417781313383743 -0.20041234921591292
Ni 8.123042588120759 0.9688169504140064 7.740250694331809 -0.9036617714424114 1.546219275105492 1.2430417323051948
Ni 4.6806279961843 6.3012644754242535 -0.16921686514575118 1.4608285682438131 -0.1847299054836496 1.6127995341288872
Ni 1.5584228173830676 3.9018040806590673 0.39371359876778955 -1.1109765042051125 -0.2154766997482031 1.7058097052090366
Ni 7.7289013462923295 5.342643730735553 3.1880117893422733 0.6071603551107091 0.10384454269149211 1.5079602316242933
Ni 8.135283637301965 4.480644173634284 8.808350863699806 -1.4161021718707159 -0.25189149093181135 0.5740430037314501
Ni 4.43801992534122 9.138424078783945 4.775034403553742 0.5189548045080546 -1.8159040854649824 -0.6729880522387959
Ni 0.3226903031180229 8.569023879570894 8.531301653261153 0.44523716310893 2.621919215496497 -0.3967626125473102
Ni 7.098006448446614 0.41024041574012726 4.014990367676228 -0.6392230399732088 -0.6440487434966263 0.9140500566552711
Ni 9.159339372579446 4.764223811073193 12.86424370280486 -1.6764160825382677 1.9618609839454924 -1.539122001939078
Ni 2.8662916197177117 5.386472475858803 1.867529384155691 -2.0689836831676236 1.0198632930373597 -0.7384627369028379
Ni 4.653989008149227 1.1009194399759465 7.594024779147067 2.4346326050292646 -2.3140432387792664 -0.7061033467355258
Ni 2.977917663166467 2.2919427125976894 7.980196733808326 -2.9680992300002496 1.314711490036355 0.7302915139459552
Ni 1.8603967087403417 3.8428117475340784 6.380533438909201 0.8665142158578367 0.36952640253917646 -0.25134821683383163
Ni 6.2177060092742815 2.808821247703735 2.8192919666601073 2.1816879902425907 0.5118706439677636 2.2733719863121493
Ni 7.723177652052757 0.6770616740253915 1.6940809068902432 1.252785956176152 -0.015469299280192713 -0.4564859965498719
Ni 2.467976656314912 5.523579696436096 4.376085445307766 -1.5278572276585365 -1.1406323793983324 0.3767709999167318
Ni 3.016256143668399 0.8301074689370229 3.2495354332476016 0.6021122511638404 2.143199861469722 0.8840810210970064
Ni 5.969000756802423 7.589655910411836 11.479326319514094 0.13850249908499374 -2.0490681751906195 1.6723149158857005
Ni 1.1794171520021859 4.428411962253913 8.69862773849905 -0.12838520814533372 -0.02213745532898768 -2.136076877271695
Ni 7.426852757457214 7.37647864583814 1.8841056882070986 0.7608436757011994 0.12448767286314044 -0.26448938220148
Ni 1.5310835404932346 1.580197132173741 0.11585298697608754 0.9642336194881975 -0.9130789509912534 0.12868911253899773
Ni 5.04067917656301 7.46204460670509 2.0477277122625535 0.2923642542348771 -0.8122680529197625 0.06395670535761888
Ni 8.17722627110973 6.874829059026943 5.382784287890401 -0.40563548955690787 1.4698755089374298 -0.062406073041047366
P 9.284915170015022 0.16447544273978898 0.26913407894291846 0.16429374911648478 -0.7841095882076754 -0.5101482619600182
P 7.398915900744652 6.406830685983151 12.786525645703586 -0.8654767757322579 -0.27292722855618806 1.5648700574374599
P 9.548765336119157 4.7496391285247235 10.590659762823561 -0.40367322362421454 0.39408917948020517 -0.4510684250787264
P 0.3175109667482174 5.108849962277721 2.2234852753117633 0.6449524862578183 -2.5064057211075093 -0.9138168575985424
P 2.769362305034187 3.4344032874380033 12.417422998447487 1.7156457174628517 -2.718494735330402 1.5104904542453146
P 0.34766633855265916 5.556633330380771 5.937648357915578 0.8844633441370896 -2.3715724433439864 -0.5571927649433307
P 3.4865794757099944 7.946355041472428 6.545630738152018 1.4585397722096365 0.27710192875916795 -1.3711358915726708
P 2.934649149127025 3.065154980100112 4.424025352867695 0.05645731165678019 -0.2232087782851382 3.065432196825469
Ni 6.124343499157668 3.166164644510705 7.805341142804046 1.5227685002817193 -0.015743378877185788 1.1979929195956722
Ni 4.375955658440017 4.005334784946797 1.2289173031305198 1.2006704664278356 -0.6213978388663298 -1.4878665461982117
Ni 2.5803029886184277 8.701313112827437 8.36602601378999 0.5229580121301768 1.365148049420352 -1.9605926587560298
Ni 2.4946716674583658 3.69552699560094 10.474621899589817 0.6999869494251428 0.5687974390617946 -2.3517955178273753
Ni 2.5681553112845226 5.490955572989007 12.71658359604557 -0.836176998326876 0.14203236661512314 -0.797841078861155
Ni 2.3636522913251206 3.2572115328142446 2.5253788668803585 -0.6144584314340192 -0.770722368267492 -1.0955614552016228
Ni 0.2621648042603462 2.2667883369347077 9.386473860887747 0.46924303910522414 -0.23289129568022474 -0.5708404376337524
Ni 8.088784457345897 4.0010490171556645 1.069187017670585 0.02470907271090583 -0.9151304342036433 1.378939703887806
Ni 1.341398632700556 9.12336319981424 2.3120400690108305 -1.1781422034183322 2.0793755679249095 -1.4394655291870049
Ni 1.7457640918084827 8.03200503700195 4.616851289603591 0.6736136016379367 1.0460332665645082 -1.6372607524950449
Ni 0.5264258064926076 6.72440701302448 0.3323122719824263 -0.5911081867438529 0.5663618330371084 -0.6561835790869474
Ni 6.166724980647748 8.661966216374651 6.121495657814977 1.1894008070512871 -1.0823675822191683 0.9340357557485784
Ni 5.925956335196504 8.910960921573142 0.152313759628789 0.23598818943799357 -0.45156799042296425 -0.3289451386827045
Ni 3.985502604579991 9.231562496467035 12.204986172622888 0.7508302573292552 0.9333482427632507 0.16701731869523495
Ni 3.444095285187883 5.785805192397188 7.048235518961106 0.39337672679421287 -0.07390301793705337 0.22504351750103177
Ni 0.729649632143981 7.1028244357673636 2.6280234723371976 0.5710111588836617 -3.919565265410134 0.018760054216322528
Ni 4.43381819221266 3.588634904810362 6.379959202048298 -1.313787435560189 1.0041764784297222 0.4548798284050166
Ni 1.4729502283634182 7.155178030549227 6.630099579813177 -0.9730872132240853 0.21948376402506717 2.0361717788439253
Ni 9.005023720544516 6.705405842098656 9.225981661153833 -1.1957424329985988 -2.6935020699408065 1.1377882250813178
Ni 8.564775460518684 7.66849909827309 11.682018859354322 0.6775928980006588 0.15390520679330913 -0.24430416550285666
Ni 3.8517754448750074 7.094094168044688 11.6308678939657 -2.3876073853196624 -0.41405225286569336 -2.0765093021207077
Ni 3.5966555464935475 9.085510252918274 1.19124549761832 -0.6734107415985112 0.09847247974630137 -0.9710236458268372
Ni 5.615457594180619 1.9439458377055834 0.9982365520617136 1.6737164242189175 -0.5378819804298607 -2.715407868874962
Ni 6.81818035926922 5.173061781666854 11.079120576203442 1.570280944040386 1.532476728708419 -2.175632785187447
P 2.9328937583977597 7.253479911388081 2.5379924697322966 0.015676530194992357 3.1820006148415327 2.6103587643524078
P 7.825429162032457 7.993246383187162 7.519491635757242 -0.0026621202131954153 -0.5688241785346719 -0.3098523837173115
P 8.743395804406152 8.305565875225424 3.48245710865164 -0.6824728518007794 2.2663495322477294 1.816670788427678
P 5.733638341309928 0.34812105944901667 2.3129289689971393 -1.9675441503731985 -1.3826228091663477 0.26955137010541963
P 6.142177521992225 7.555117664095069 3.9861281959569097 1.1633686446535836 -0.864661221809498 0.7060393262668099
P 1.1680071122619617 1.211210266008293 7.43075850182983 -1.4846130722579205 -0.42578059704621507 0.0755976320306569
P 4.225692344577967 3.57875616336588 9.039769252362293 0.9130059316614727 1.230657242597913 0.4691342814415017
P 8.181194574620035 2.2036222822353486 4.125534231414761 2.00260654129397 1.220204679806021 -0.522166883687449
