# total energy = -381163.6539618277 ev
CRYSTAL
PRIMVEC
9.28937194511004 0.00000000000000 0.00000000000000
0.00000000000000 9.28937194511004 0.00000000000000
0.00000000000000 0.00000000000000 13.59593482578222
PRIMCOORD
 96 1
Ni 2.3989245780751762 8.035371789885048 2.234995030711859 -0.35330351292241086 0.5468890690244775 2.072133284540199
Ni 3.4017401516294488 0.6346777619144308 9.759665017151951 -1.0264304047319162 -0.335780416436983 0.6060408967942853
Ni 0.6956996464630587 0.23316509461827786 11.211696969940657 -0.44685233011484976 1.135274971741161 0.04292739549114542
Ni 7.963286263306062 5.7730845842905785 8.867010248055779 0.040041846413234265 -0.36898724220625484 -0.5123936063507691
Ni 7.354200721201568 6.224427300771652 2.1665397907033723 0.4831136264397292 1.3202005381753843 1.8092984072230065
Ni 9.159906004517213 4.66778865903278 1.3507917322447547 -0.14420494878640971 -0.9047652889192355 0.4304206669213878
Ni 4.755108755661962 8.46084360539673 2.7241222677290184 0.020899726267144654 1.0131205749968875 2.4087901900448645
Ni 2.4197606394304167 2.6012378104674077 11.125132099253598 2.3353214314317525 0.2854485009516503 -0.8981842932676081
Ni 3.77673351979188 0.6184789550525194 12.562752520349697 -0.47912353144372966 -0.999749295896304 -1.662430566892453
Ni 6.120293440855362 7.569147499489085 7.037731325461851 0.5837052094115625 -0.5473266707825284 -0.18784633962544423
Ni 2.3763049572994257 5.767752484773009 1.3924824336991983 0.5832701787566729 0.20637165212314137 0.21386821761050265
Ni 6.514608702739994 5.645820188139536 0.25903227983887595 0.15943256436944153 0.6741391351241035 0.5888353315492763
Ni 1.368203731087493 8.766724046014362 0.35117448946382557 -0.1787978562699308 -0.1881070494859986 -1.7098262825675974
Ni 3.492385843428126 5.009145211249011 10.854871755500286 1.349222379329031 -0.12805225028594722 0.1928455926122485
Ni 8.073151665735143 8.18966825850321 3.782796692884419 -2.0322763004442614 -1.4353083124855215 -1.2198984614195119
Ni 6.921752587331531 2.3638757775877397 10.15474943903668 -0.2570352399162799 -0.9584452949411945 1.049292396931754
Ni 7.1091935351808555 3.1196683714012434 12.91534921266394 2.314338144311866 -0.0140518501073758 -1.4694093679342888
Ni 2.3089662998031546 4.16859638747331 13.212080550816667 0.282676594633468 0.5314524227544332 -0.5456030032232023
Ni 2.270303933614787 1.4282688103219925 5.945923568321668 0.865589132940406 -0.2397689966366645 1.3231747903123598
Ni 4.412386665764402 3.2047125718948783 6.048015624276354 -1.690263015723689 0.042490565064042946 0.12402487429410898
Ni 8.418697724715178 0.873221402910187 4.676743613623262 -0.09810558332518587 1.4146217306704476 0.3898789980535995
Ni 6.957498090717606 0.41613413879555017 6.738770538033484 0.9496454372613775 1.544777914673275 1.8751605571334546
Ni 9.117843728183495 1.5906191644483993 0.26833094119268575 -1.103817267452512 0.7687516176943664 -2.4649690512292777
Ni 3.8943183903378578 8.41749010635754 0.6469657431719928 -0.1629531759281903 -0.4568554640741487 -0.8315811514260775
P 3.601796066630096 3.4089579936593295 3.5442967119369775 -0.06330878736097484 -0.263195860201037 -0.33758404530462505
Ni 5.313297828678023 7.7085623941923584 12.423162985453164 0.8834742407509429 -0.2143382152683857 1.1904768137242852
P 2.2237641799858285 8.987541707394394 4.782573712863435 -1.5943793797504864 -2.759941946731595 -0.660505860611385
Ni 2.4625381974067344 6.7418917670193785 12.78898867240673 0.8388794848597037 1.166666855788881 -2.345346933988554
P 7.691247004818231 5.741166302161018 4.486481483503057 0.35115561334147266 1.954081082889757 0.9120276269086035
P 7.790318157004426 6.023396001712915 11.970255009793153 0.0325319111894343 -1.3431548329787126 2.4007043277129365
P 7.898957362331904 0.8208219134350921 11.608643910907741 -0.7512732584039449 0.3393719904429833 0.22221196158950762
Ni 1.2567870035374484 2.681962452989492 4.286267649178719 -0.22571457542612738 0.7923980534687127 -0.7961248675009968
Ni 1.8953755910562289 1.8139170881475797 13.139355915445334 0.6291715692744777 0.1109382163134799 1.2054792006703885
Ni 5.782308930668534 4.773297346002382 12.021063229847758 -1.543192572464026 0.021884972998549405 -2.6807275438839575
Ni 8.47908793196904 6.717637216774826 6.775697649535648 0.7877405000920433 1.8927741564501595 -0.5871903397466854
Ni 3.989265061364121 3.1283539342042523 8.655511684647918 -1.8412250807282742 -1.1271790821069039 -0.25443122663452955
Ni 5.757348388153362 9.619887836941386 10.946195571453638 0.3361606825945372 0.02352790791861109 0.894315297230505
Ni 4.711978201550336 4.2011556362696165 1.6698119895306809 -0.07223360065443044 -3.236492061021194 -0.4718370250846454
Ni 0.2871279853979146 7.044158641936078 1.9774202533369316 -0.07588508136408867 -0.09765564027196084 0.3248439720301374
Ni 6.74530096653671 3.023541950133288 5.8840619245458825 -0.4652061500316892 -1.2755710723914677 0.09904609286158425
Ni 3.6230315709805545 1.6173539770121004 1.5788820429493597 0.7353031082279337 -0.6029694569578131 -0.08310859569572138
Ni 1.384878153794874 5.201351606925014 3.436957089749757 -0.6838869585394867 -0.828245145074309 -0.8515439677012497
Ni 7.445589562758792 4.122242421283988 3.176065077640119 -0.22616117604524275 -0.6830420940406882 -0.6971775050008058
Ni 1.9435038272940794 3.370054103799434 1.8745125905222417 0.2832473795352735 0.29402621531833234 0.26974883082820644
Ni 0.4399325808757952 6.161203835063332 13.362968748854698 -1.6584371294623437 -0.3550140678556144 -0.8856100561470233
Ni 1.3762854847116834 5.215833737844683 5.702311645972626 0.04251344788217839 -2.8505923593303164 0.3795655319427334
Ni 1.5515852233807585 1.693025201176071 8.257001342376292 1.429492734245009 -0.09898670037855854 1.9839704142500219
Ni 4.337291382663305 8.77834505036363 5.371278372839799 -1.4199860803061546 -0.4552315553174805 1.079223894383864
Ni 8.091553911631143 4.292275086039367 10.640627253734596 -0.2526702780793649 1.3725587400621264 1.1626955298459587
Ni 5.465448452368382 9.680082967383631 8.800159282588556 3.35105399013019 -2.6074325918445482 1.517407235969806
Ni 4.33736569763916 7.586565071955012 10.466939221104369 -0.8000437429394286 -0.4569264265214002 -1.6983419360770815
Ni 7.904140831897764 8.155864233861339 8.875508165544757 0.8948248898770718 1.4039133431140078 -2.163890299939538
Ni 5.431941687629929 4.521518207806917 4.268851934587188 -1.2052100061694018 -0.14935383997720084 -0.5030941833267143
Ni 1.8762766422615906 7.0263602052188965 6.673700345175177 0.43353118752591147 2.293875248471824 1.8154903949663312
Ni 6.084928801720543 0.7957229592773911 13.182917496416918 0.9890877024173997 -0.01536594093310902 0.24156516930513883
Ni 6.0160109509873605 5.0762144769578095 6.562159140040576 0.27227005458816333 0.8256987245033716 1.433523195560641
P 5.749703235012317 6.4860345945238915 8.851565738198794 -0.767533171906233 1.7216168474446223 -0.4100798984815066
Ni 0.08628990527639799 6.97012234724091 10.820392393515334 2.0409324334573626 -0.14637444563390276 -1.9345946920303718
P 6.172908443760435 2.4566394461982735 0.9442470121460455 -0.634546717543462 -0.3621007994990667 3.5967552930908893
Ni 1.411984541237848 1.0869587049656702 2.121849551035996 0.1846419737555336 -0.410686421717254 0.47529798705005244
P 4.289023805845727 6.16932274617545 -0.00024059473432934384 1.271493045667352 -0.9848554095036071 1.2111590246639852
P 8.439951807809601 3.0787486878212915 4.778073941075438 1.8440648641699144 -0.4969844708845505 -1.2823230464033206
P 2.1863558790150077 3.475664973860836 6.961050346563456 0.37229213820977175 0.2537172312866405 0.28733800466487935
Ni 5.71836089394563 6.764269864123602 4.740181663824363 0.8004677178507247 1.1746750708053384 -1.1669674177484355
Ni 1.302825131079388 8.606324460004139 8.79162049186286 0.08256866403185135 -0.8242136553174126 0.8201505409916328
Ni 4.287388876376926 1.1481477982099706 7.36407532361825 -2.876124956383782 0.5056619440538904 -2.955929170296619
Ni 0.5828542135022091 7.161446252578638 4.600347818444709 1.051077513856635 0.47248622863287015 0.15945750407010603
Ni 8.452250936313542 8.074749437716015 12.567144535422706 -1.202471009971684 1.5438327771511864 1.639169025261351
Ni 0.14694114388295085 2.254512001245679 6.668724028604511 -1.3210060647958153 1.119095533767821 -2.0376679037734777
Ni 4.373166937257125 2.712422303717906 13.381920925572024 0.00322082093014284 1.2257988860643472 -2.5428606215004335
Ni 8.3874018305084 4.555535888004371 6.529189301002671 1.293117051695031 0.28551637807510827 -2.2686069608233383
Ni 3.347211538096119 1.1890396136739774 3.799588161678771 0.773393744452068 0.33229528610186 -0.07226599655426263
Ni 8.67041183730677 2.3726542341105668 2.2899221583032094 -0.1458867073642068 -0.04082603287742646 1.2084166860321575
Ni 8.695140145522396 9.25019870018058 1.6212471528096843 -0.7330382234531568 -1.8509752181365025 0.9525075893005209
Ni 0.08781800696740868 9.100463313205495 6.744236404507592 0.47982415705518006 -0.42779042838739234 -0.48632082052311726
Ni 3.9310671458979694 5.899104204596056 5.889922589329218 -0.2462157807032727 -0.7854900134949697 1.9034882004335538
Ni 5.615899120986067 4.51238675514878 9.368456121258042 2.336704170711892 -0.030391724917979916 -0.4132670379602366
Ni 6.234840686763282 8.292408712622228 1.0280129950549808 1.212637923202357 -2.0974815334970005 -0.35389049577413245
Ni 6.18538407033203 2.3091520872427913 7.92542371204533 -1.5472130064773288 0.29747097933382316 0.009635723317551147
Ni 6.9661093385447606 7.255157437131318 10.595991821361913 -2.570279894053651 0.867858645700873 0.2875341798360854
Ni 0.2596843937520003 2.5970390143316213 10.522982002270735 -1.1817813428328163 -2.0864921243650323 0.4821306937011696
Ni 4.8073521836877635 6.169489954871122 2.320254744635472 0.21508589206768763 2.6596195582607485 0.12106399189357214
Ni 7.938892372481782 3.436538139073377 8.271358995711404 1.3754903118866246 0.5622282704847091 2.1922102299301534
Ni 1.1471724141518789 4.09308308263303 9.145278030457428 0.5351902925303105 -0.5951679586355234 -5.855594118783871
Ni 6.693289772810455 0.6497191130274067 2.465595329725954 0.28660241205043546 0.5257371175372108 -0.24982252421792456
Ni 1.3051010272149357 4.867017819927044 10.956787313387318 -1.1154054865107437 1.4552341048751711 4.68542130672426
Ni 5.894292309909469 2.1201040780406104 3.8847122507714493 -1.2554115667244572 0.44409662174658354 0.3214195197296207
Ni 4.058164333353339 7.9950373367399505 7.891080903828512 -1.5015941801969495 -0.2677418277005066 0.38982680465942543
P 0.9048730800638695 6.331125027354928 8.599564584012963 -0.379564760611785 0.3710754921938513 -0.38145760675912366
Ni 8.476403303466293 1.1827692875862434 8.496303925062962 -0.2822078825271656 -0.4884790045167007 1.2949543620140858
P 0.23975683297658298 3.6564547313711713 12.78616098757546 -0.1890231335423648 -0.20864836397246 -0.10682676524826765
Ni 3.622622838613354 5.454756385217298 8.395082283262974 -0.6405499863147485 0.8569121739916983 -0.5040583470121964
P 6.34815244619762 8.898558813180465 5.052629690433147 1.3155473556740893 -0.2578785617531817 -3.518340503326412
P 2.294168330236103 8.24374169280943 11.06150268798967 1.2497438269157186 -0.4347971987225286 -0.3439770933151624
P 4.871792557125704 3.1000306390316594 10.714833543937033 -1.3026555873130856 -1.0103388984866923 1.690142945206057
Ni 3.099482566084731 6.621269271835343 4.03343788301211 -0.23730536558752033 1.155416222575726 -0.583558399421053
