# total energy = -340860.81123767234 ev
CRYSTAL
PRIMVEC
9.39622676407855 0.00000000000000 0.00000000000000
0.00000000000000 9.39622676407855 0.00000000000000
0.00000000000000 0.00000000000000 13.75232765438632
PRIMCOORD
 96 1
Ni 5.195464980560778 0.7337616725115246 13.761816864390136 -0.9318027526530017 0.8747941964784417 -0.5376739781841128
Ni 6.079753263882848 5.330441775939868 12.771924390099352 2.9796020884335266 0.7094092711803073 -0.6110414353326702
Ni 3.214364560252576 3.0153336880131136 12.675368765364542 0.7726190710695726 -1.286782881946887 -1.4974873571174276
Ni 9.355898014154048 4.500397908888142 4.128462372522796 -2.3502284304505716 -2.136583898815101 -0.2893270100704501
Ni 8.477989768706143 4.072634692067184 8.441013737715835 0.7616913684134753 0.31544916107879867 -0.11667074792188294
Ni 2.911542968781827 0.8316271312369944 11.680127019259674 -0.08665054741070884 0.2694187011822973 0.031077181020778735
Ni 3.540451208831479 3.2177284093821075 1.1397979945218275 -0.45479369644911344 0.18748844206539322 2.4771560802137724
Ni 4.20944375163694 7.42432510435355 7.648026709203339 -0.5251542484505471 2.8857858765123137 2.0820739406926787
Ni 2.175724462263447 5.852308202348127 7.155198381537825 0.7999918066555707 -0.6100163365022656 0.904638533533384
Ni 7.1257506073145 4.835523727474332 3.4583253693151645 -0.27722457037996123 1.0500588427841335 -0.15182415589456433
Ni 5.561964799827148 1.6681872814488599 5.602203200699506 -0.47780584107357066 -1.3174592279848214 0.43310052774639607
Ni 8.864259248778474 6.114754208037885 1.96853578607354 -1.3043129204108503 -0.09520177941482959 0.47444720901398285
Ni 6.868613469664366 8.855849625954646 6.513776246877253 -3.580414904059653 0.9813494532328777 -0.37716952090673106
Ni 2.446420354924512 7.882936133164035 6.111148875884251 -0.8729373457753612 1.2484338498550434 -0.05685711819836015
Ni 4.656675950012056 5.7896447670273385 3.7556097644394533 -0.8124886535710008 -1.0606517878086312 0.3326161597763885
Ni 9.042449290377434 3.1435170115468094 12.615147409341978 -1.406813033259306 -0.24641735519111757 1.7306092807512194
Ni 1.6532848660314399 0.6615930143431543 9.555254935457182 0.2986739985029888 3.047541175477661 -0.5941875970001251
Ni 0.5344902568706205 1.549240448681446 6.912387670613378 -0.4175425254071389 -1.0121029323656505 0.6948902516285259
Ni 1.1518740249723116 3.430947583815961 10.995535800644339 2.4566170797201563 -0.22995946674541043 -0.43335995205536976
Ni 4.863862746956639 4.775190556355005 9.029544512739172 -1.1946895662540522 -0.24061231847356626 -2.857451805454311
Ni 0.6330435193845866 8.166673988371999 3.521448280117614 0.11123157918418264 0.34072464781613576 0.40128441167706375
Ni 4.463198247704305 6.2878514948094555 10.96621581510303 0.7389371054360951 2.0279342214254816 1.3182626977227232
Ni 0.16810413194633808 8.456829466360603 0.5298043586558239 -0.006275291485750483 -0.1801127184266124 0.7106014917161956
Ni 6.687059578935874 2.629214547566685 3.48595403406509 0.40072699651169696 -2.0865044656602065 0.7063411737779449
P 6.179381454722005 6.529090217020576 7.773751040230895 1.3664564838191307 0.7920334710404424 0.7893011597109438
P 4.283222923047773 9.426952279845429 10.194944405929247 -0.009137957745526198 0.4668598835850283 -1.7296962820186468
P 3.063348406035191 4.5493052684390065 5.844327047458117 -0.4393701628051917 -1.5869679177777636 -2.6920285707190734
P 5.315454794482879 3.7117162314123817 2.416751769375645 -1.5163857366838271 0.46508633662437326 -0.3335067899114578
P 9.28175238990508 0.9897045497584088 1.7959026728969396 0.761764901963888 0.167881209357427 -0.25537713548756663
P 6.193992587114242 9.072893064622352 1.4849758963448119 0.4549168522905391 -0.7078547822089939 0.5146484638232168
P 2.9774481022861043 0.4892023238133188 0.015438000334691596 0.7192383414555872 -0.5349079854032014 1.30218841786868
P 8.624260828481033 4.263575413187858 10.925921976493623 -1.2775382234201675 2.301591900389791 -0.9006960039458681
Ni 0.7340679894992975 8.06870892964437 11.981440516358104 -1.3748436794415613 1.952341217380515 0.37351778308675676
Ni 7.439960425447237 9.133968537644565 12.941764944724843 -0.2654882557796395 -0.3417880560836436 0.2914751667617045
Ni 1.7947356615508845 0.4830214859434709 4.962183922673121 0.33612108760585335 0.7507250992099587 -0.44128589177066585
Ni 4.050948201030988 3.2089523337201467 7.148390815352503 0.29085810200299583 -0.973447938997614 0.7354128943329206
Ni 9.19996763341503 8.828158946109037 10.028568240058107 -0.5870928949368727 0.4463360526000636 -0.2230516838819836
Ni 3.8059134032658712 2.202109066609043 9.32061236433246 -3.42350613455333 0.15508585736497163 1.4755831008451683
Ni 8.893697626775179 6.281612400334571 10.205271798605972 -1.478631143642873 0.291338384073524 0.8447454567221774
Ni 5.15960897978343 8.6563771310641 11.90398742033932 0.6996038550541113 -0.342612608867468 -0.41577772019723236
Ni 2.2760949550054894 8.974307854937882 1.9885318959410128 0.44258327042585066 0.5139956607305664 -0.8474929375603275
Ni 5.959594317881609 7.7533527718641375 9.66083093774604 -1.0984817141722114 -1.0278270279691268 0.4978283069420846
Ni 7.308262913158108 1.7808010574752011 1.1533783608539818 -0.07062588984767837 -0.036118085878795864 -0.27292748566650415
Ni 6.815759694933605 0.4349203226365 10.127818702587188 0.794280100982774 -0.18855185033290106 0.5012000516277949
Ni 1.5360481465086482 5.935323864525244 4.585616986207366 2.186826082800105 1.1036138931924542 1.1562670006117957
Ni 1.0336976827876396 3.605623436659489 6.070249920280592 0.48946373702747314 1.209328913433782 0.1258236180657446
Ni 0.013004377640421892 3.477552867845219 1.2311687814083814 -1.0124986251421724 -0.7128990295011206 0.8143933267928812
Ni 1.6853072063483168 6.138442095343885 11.27740380675516 0.20945260504131025 -1.5118371980811962 0.36687250985609715
Ni 4.586410967356655 7.992740437431355 5.043666120666047 -0.04304823733972586 -0.19653795386217118 -0.29439156907755104
Ni 4.783008216901848 7.390752386644571 0.02995798932872624 0.046379101485171735 -0.5846799146200059 0.855887846492242
Ni 2.44698412852164 7.616111485869917 13.414212856854176 0.5449820818097517 0.6475899238806653 -0.11107731299450548
Ni 3.438737055682948 2.2964377856351956 4.253360775230558 -0.5633965797611974 0.5814292688931921 0.44838007961328585
Ni 5.428980004491245 3.1572261061836415 13.587876736090859 1.5148831839963717 -0.08294070265928942 0.05686765972132141
Ni 8.53715780772474 2.302864804642456 10.19043327752956 0.16195121702623722 -1.7240475683733016 -0.5139396106816504
Ni 1.14663093051902 1.6525801490350298 13.634635178614005 0.1771916881250755 -0.8813193991914694 0.3206782706882219
Ni 6.784855505584365 5.360660040745936 5.747180400068987 1.7851462354568353 1.4107766458927447 1.0056234952888938
P 8.789878718864037 6.55572851948488 4.162911758175309 -1.3755859569242244 0.6292193917932776 0.5025683927302312
P 1.6049130913978475 2.981347536332907 8.95185745067758 0.48508077746842915 -1.135924946620334 -1.0902508416219867
P 1.1169670430834624 6.198333643812129 0.7621937146373573 0.2218386374104889 0.3085264658170364 -1.1730809868453411
P 2.8779232699397537 6.287917268395787 9.457737137116608 -0.13432728466138155 -0.6511169631973174 -1.5632176094357013
P 5.4815518924234405 3.0679055759453107 11.299503731762583 -1.0510808562907448 1.1896545749333058 1.0950194666552238
P 4.128016051758403 5.078951770487634 12.891967762513179 -3.269963196195446 0.33186822586677034 0.7952725468030303
P 6.487605876498565 3.5600329451050623 7.728546733590501 -0.46162126089390826 0.6142046635520002 -1.1689037155392
P 1.2066352337066895 2.790998777489217 3.767408606204683 0.9836649887399317 -1.202507005415942 0.48395797671789553
Ni 5.169832074344686 3.9339557834002856 5.166543395028106 -0.3282126313920541 -1.294886227780312 -1.8439630484847276
Ni 7.637976505211869 1.6622112813193017 7.896902684410223 0.09473846662516588 -1.0185990816129553 -0.17964991985758091
Ni 4.66612855399057 5.660625179324568 6.5673413159630565 -0.21875691316137164 -0.8349454399126202 -1.2137774361234388
Ni 9.120165480741544 6.162665567567156 12.753055827426135 -0.6295896306485029 -1.2815627711985282 0.472079994333387
Ni 6.569710104693657 5.2021832825932215 10.204736213688701 2.579511439954248 0.11381168120653302 1.5215168872628055
Ni 5.954727072493069 2.4055561653593425 9.390804056420235 1.8058521005456187 1.5852691899191023 0.4249208201490811
Ni 4.799724104056697 7.72447816746456 2.57411977278734 -0.8581262489044575 1.6103307608734203 -0.21690109089955548
Ni 7.766225602331897 8.073454024086864 8.367397121025506 1.3334018673570067 -0.6797593095243583 -0.3352101457558098
Ni 5.877771976485082 5.770654993030739 1.650829632015947 -0.6830852885737978 -0.9652630891939764 -0.10136162836863832
Ni 3.0751500666684066 6.062454810677634 1.3924503132068073 2.2618984384549115 0.04490225982932912 -0.044037083615556416
Ni 5.105871959750502 0.6248528286409769 8.263498345188104 0.03517989033524263 -1.7338640402430912 -1.8411893423943322
Ni 8.111217458867829 8.694272113017727 2.606643871605661 -0.794819775536328 -0.12376185044070943 -1.6813410306437107
Ni 1.5914201099732477 4.351655641512507 13.354004655548879 -0.13440750308001367 1.1965739277609586 0.37561246083225636
Ni 3.371544639131895 4.401145567113737 10.718921224836091 -1.1243439266509538 -1.9636553568417539 -0.023199578044914883
Ni 6.348626288579865 0.09891501723878995 3.7605324475650437 -0.6791101059761337 0.9526734254544238 0.9072859984585602
Ni 4.41877288825061 1.0563331927123334 2.4297476904121096 0.1529865516337817 0.0273591087392432 -0.6190213682143533
Ni 1.6981894330426943 4.591118476892675 2.486984804860542 0.17740817501125578 -0.4692625794892498 -0.05113821343671193
Ni 6.647059842219634 7.228094307646491 4.214964974398148 1.0077870785991159 -0.5927328668314695 -0.3271533368896043
Ni 2.465870544025432 8.185419460476508 10.491802212365045 1.3537153821033783 -0.9088343167822864 -0.46784872986085885
Ni 7.075696908116142 1.904051362034026 12.195109770046997 -0.7064316766092221 0.11634550337198026 0.30978476370416974
Ni 0.7716481978611959 6.97406732100718 8.476192270553966 -0.24598540986002157 1.5835547783311568 0.15179973041453212
Ni 7.483868992436898 3.0749527459094117 5.836583617101563 1.261161838944673 0.29361226770936527 -0.1983474962670842
Ni 8.768408341040075 8.37426482306119 5.6481629639600515 2.1174944862838174 -0.4265663261723041 -0.7690033286938562
Ni 7.212665703538417 7.082753474306862 0.2538071149364306 0.6484003355971026 0.7460287221755539 0.36233862654148563
P 9.378204656147084 5.63952125433874 6.897960704262869 -0.23431877215537064 -0.5055655276853421 0.26589346163785815
P 9.041039856384613 0.7846525755016178 11.946344670314218 0.5839576917420007 0.511789397107867 -0.440990472017434
P 3.9702534068287174 0.27322347762152294 6.2034414326021095 -0.22147688319569597 0.35096226638374395 0.44048679290813814
P 1.260024593354722 9.049534045248011 7.780557666793555 -0.7560236286047366 -0.7927292115558864 -1.14372670205294
P 2.609181792415399 7.653085637614902 3.734609197946431 3.0085167145853475 -0.2165935869614657 0.32474601299969236
P 7.163814721347267 7.331358838187123 11.656486113086768 -0.25907206784065057 -0.6070963346419932 -0.1431885917067534
P 7.546335106998693 4.568746061313307 0.7651234580970998 -0.14409284868857763 0.06736007461221304 -0.5060499235209285
P 7.836744283106005 0.9970899838807873 5.261777910300312 -0.24517319837137128 -0.126478220930608 0.4897735549584081
