# total energy = -340856.1663885986 ev
CRYSTAL
PRIMVEC
9.49479428679260 0.00000000000000 0.00000000000000

0.00000000000000 9.49479428679260 0.00000000000000

0.00000000000000 0.00000000000000 13.89659118723171

PRIMCOORD
 96 1
Ni 5.16133222442342 8.65828396968938 2.0479407366590068 -0.6123681245638938 1.1145999598903127 0.041060003265103485
Ni 6.01721197588218 7.343653734865692 6.197712763695926 -0.17580894884493592 -0.12105499303250765 -0.09013156398077381
Ni 5.676567239321133 5.025955446713818 7.125449118725053 -0.613452101656692 -0.055019550768989116 -0.1963968002986166
Ni 2.1400696756261866 2.9227255731295205 8.256395910671994 0.3939403126071667 0.18084882526168852 -0.3656136977483316
Ni 6.226733602598255 1.569261629452397 13.014519350185239 -0.7042338976269549 0.14062957273032553 1.7931868463731246
Ni 1.8956072057363604 4.5202437105398205 10.12269363575807 0.5098551561996316 0.05133798815234384 0.6058840595014469
Ni 3.110133823826122 5.818647341835264 13.269187774511874 0.5993966520048902 -1.0408548076873623 0.27789202876063107
Ni 7.007708921503287 8.765869484363774 3.956928956059706 0.46189739737343033 -0.9765659158013053 -1.1077014329982666
Ni 9.604554163271539 0.18630115767647612 3.555678947222015 -1.0295938900615622 0.2521105489211529 0.5346156509737632
Ni 3.8754237424803284 6.972169906286073 3.6598900119877262 -0.22463779742218087 0.47674526101954023 1.8257760931630556
Ni 3.2114717638243393 1.588877874560269 6.629855035400498 -0.03844416290881121 -1.6632731173984063 -0.3714601292267796
Ni 1.4332012265502645 6.781875238109902 9.27124985221528 -0.8620402392468831 0.1863756686171887 0.5510429432918509
Ni 5.388656590528295 8.937848694256749 12.208627791971358 0.26224995134799994 -0.18304454736142672 0.4958367304333525
Ni 2.0581106108773235 9.081618870163524 9.030922365260826 1.023910980744172 0.579171326096951 -2.002026243310468
Ni 8.586332418175608 6.952961937334851 3.9721320207580244 -0.7797927059998764 -1.1058438109642372 -0.8049586637425428
Ni 2.2213451151825194 8.051129850779418 6.357148400785412 -0.9254981505912124 0.05802928412959039 1.2058247569352654
Ni 2.2646413773760803 0.25979561327061124 2.6061112115653335 1.1191307578811307 0.3255402267662135 1.6511207983065888
Ni 0.5491076937081352 3.989589149632822 2.2008306625300182 -1.8023800828366185 0.12539887182350015 0.3292457006422588
Ni 4.902665542199917 6.421614256440981 11.370218462099475 0.2200059550771243 1.0641960535164638 0.8259386084283195
Ni 7.944816638546677 6.49171432305832 9.741121588191465 0.29673307272653415 0.5030381332777982 0.5268966850629507
Ni 1.5618367002779752 0.7354506284797103 12.431571259967438 1.3104154337641625 -1.4320877486656949 -2.0434163762214808
Ni 5.413817795531132 0.3950622513658618 5.069684671529314 -2.8634666441898236 -1.6571094117898557 0.7686024937110119
Ni 9.093715238153568 6.501522445612255 11.874456606191796 0.7163777320783404 2.854518176747284 -1.2139697546399029
Ni 7.5834352711455555 0.056889959251131 11.839464491128606 1.0355963875019003 0.8523731484707643 -2.5138107553223286
P 1.197293566361403 6.0828399943650515 1.840700709023 0.13367859533378912 0.9037820990703597 -0.1096125555235209
P 3.7319384104037736 3.665674240700077 0.17764950107323652 0.23499754338995013 0.45353976943735436 0.03745737351550968
P 7.633605764441778 7.4263344039844466 7.812010101665099 -0.7873836309732569 0.3187363164705027 -0.521115045384167
P 6.845167537184961 7.377160864093997 11.823609134059083 0.8369557854744296 -0.562295890497851 -0.500726454425486
P 8.61678222362621 0.7711548531184528 13.62815081779442 0.7082365910284447 -0.30668272774007826 -0.4343045753568262
P 1.1368307159998694 5.244848435444157 12.344953099635596 0.7101903723207058 -0.5676892935992804 -0.16245463902521698
P 0.8769335084298127 5.875112883779367 5.639416957504303 -1.9945857278720232 0.7173879185104096 -2.950442179040119
P 3.567725942281486 6.7984626438230915 9.25304548302587 0.09688919441958152 1.060094629753581 0.12215516807522188
Ni 5.631001721280146 6.956161683027664 -0.012189416974581835 -1.6750168881978957 -0.0492862478296377 -2.760629459716923
Ni 9.25675984657195 1.736987171480741 1.4563352929613633 0.6810050090060014 1.6785367284256965 1.1281913254215021
Ni 9.366832997363606 8.045394994997638 1.9720649866442261 0.22248089898017812 -0.6176823376879556 -1.1753312163320984
Ni -0.06972976963805032 8.692617146025327 8.08437017628675 -1.1066675924171134 -1.1066020292865006 0.521129186451554
Ni 9.536856279622397 2.20723585079225 11.990104150740873 -1.76886421046736 0.881218869057863 1.0949032527923337
Ni 6.434365765240533 0.11568647320587318 7.010371261836417 0.7024189559054032 -0.7396179335532036 1.2110551520962691
Ni 4.9239338815230695 3.8238954935933864 12.125081197608733 0.1942915810301557 0.08724730045444329 0.5218658075072625
Ni 2.045435060432498 5.722920825292397 7.210107553504974 1.8138608297827086 -0.9288349282739294 2.26222059768102
Ni 6.927819721920695 7.119975369787643 1.7129074235533093 0.03670198340672389 2.251008788125601 3.355202465080925
Ni 4.608497823936563 8.682400747314741 10.12205463609894 -0.5294834719535204 -0.24561234279131897 -0.34663741375614493
Ni 1.318646532829802 9.586988793741257 0.5847036776913938 -1.174220756876739 -2.584132483666027 0.7203724550600303
Ni 7.987828056910016 5.0866176877565055 2.0246917832363858 -0.5115317725711062 -0.7720148618266705 -0.10906799587396054
Ni 8.146457585959975 1.759917099813515 7.2999349543239695 0.751591303864996 0.7036592560704075 -0.33905728741604185
Ni 4.529472650638975 5.9471308988535245 1.7395479175144262 0.0025055400306731044 -1.2737849270253223 -0.8768706193914962
Ni 5.895479217640154 2.511904811596411 4.700411231072208 1.204316804931171 1.839129117431194 0.3744037852361358
Ni 1.1050326497528882 7.189458274772835 13.594131919151152 0.23713387300666258 -0.35850665438990514 1.0688988583087722
Ni 3.2384844537236113 8.073556555012134 12.400206156342392 -0.8394453846655028 0.6298626818042313 0.5593162390442367
Ni 4.174281889147985 4.837208430015179 9.933047462035365 0.7632191179119114 -1.3622398746346216 -0.9764689852121249
Ni 2.6957620092095924 4.289434754911911 2.053651855454934 2.398796569167262 0.04626957249050096 -0.5439382139262697
Ni 2.2935530261434907 3.390970850835143 12.2798064672258 0.14866324166807945 0.38463291916331177 -0.023060995584521574
Ni 4.134793039485042 8.954246204083127 7.870556902528682 0.2737857199017414 -0.3268782288513467 -1.5107879308810757
Ni 8.275330429546205 2.3394983359581047 4.5624319302338225 1.2976722751658814 -0.7324463555054289 0.027911124587971282
Ni 5.716056088984075 6.785217405717825 8.88884321222613 -0.03976236749960249 0.08286074135097342 -0.6983339872027522
Ni 2.454309389125766 4.804270988447315 4.3830961536856785 -0.17841064813384114 0.20052907729943528 -0.086644890983754
P 4.059100539001037 5.852258913801319 5.754370432587074 -0.30400543801823127 0.6287288253101043 0.1999215256224234
P 7.059949279965781 3.6241440102538847 6.114708322090153 1.3384324878023788 0.5189059535479902 0.2619013097593296
P 5.365688683018159 0.974621649483468 8.859160586158254 -0.6413015197687922 -0.4110479188217308 -1.0504244536536684
P 6.044841827413597 3.7784534078788297 9.48096327377704 -0.643570261198311 0.6923160631434464 -0.7085060426397476
P 0.8808596058896894 0.9663706732014056 7.675100864148909 1.2755463898011192 2.261662411184705 -0.3130431227404673
P 4.473928103745919 0.025945475015378035 0.11445974577705563 -0.6542146282860346 -0.7422024064509283 0.311416899990954
P 5.18337913688251 1.2041772922584055 3.132750423945653 0.12333684708814888 -0.6446588662767995 -1.5534569305045116
P 7.438905511691524 3.179778140315106 12.326846526827897 0.4083053230795871 -0.8488548509048607 -0.4372060652743373
Ni 1.805026867726148 1.787670383671361 10.118219688664736 -0.8468133949947997 -0.7236287572137988 1.530853591282699
Ni 1.8337201362237228 2.158090795284822 0.2076625459841675 0.786500199927039 2.4548805566450236 1.9749021334001666
Ni 2.981023610381377 7.637356208206352 1.2890607536642023 -0.8353311053868129 0.5571922507226984 -0.31179356660408236
Ni 6.18953299837142 4.430954664559942 0.5076676638081801 -0.38159721766078153 -0.7605284584536257 -0.7950774000730888
Ni 8.699434408361945 2.0871456919711626 9.81178564559264 -0.8558665063360034 1.8970990090777584 -1.3352422629998553
Ni 9.133593374384478 7.810664689307023 5.986596011530615 -0.32013088282518415 0.01168386409583149 -0.11069807527821579
Ni 3.461013948686436 3.863773629824298 6.3483381811166835 1.2180493240259151 0.0530292598118377 0.10355915024058938
Ni 8.210689869674766 6.5835004999498 0.28537363974500446 4.311947232391244 -3.9869168553819145 -2.9417305101987337
Ni 9.141625970396705 4.352090902766145 10.631754185896028 -0.830436239188357 0.14720105530025618 0.5239741120995169
Ni 1.4384803322036899 7.172510066874697 3.8543861266596546 0.22559373357754695 0.388732286043666 -0.19661020186100334
Ni 5.445596872189432 2.5535679691633724 7.187053243366337 0.15167066103583557 -0.5128857154958393 0.8302979138382798
Ni 7.351733804849621 0.551651349112007 1.7925772933866313 -1.379941662789759 -0.3020976794725571 0.25949090054562407
Ni 6.068379422584176 2.009763118094514 10.646053346173112 -0.2733221500017616 -0.600113989786889 0.468341096116245
Ni 7.4669056602022295 5.194545015027165 12.358960769726421 -2.7886531986233587 0.552660424290616 0.09351102197596799
Ni 7.906875440361267 4.570281276715273 4.247646266059653 -0.7403910642738023 0.719213915975555 1.0416104549064642
Ni 7.640584438282188 4.537182423643618 8.382924489535505 1.4865611971232269 -0.7241694602086174 -0.5368694800049464
Ni 9.138521172647298 4.207551648517774 13.795104433042868 0.37093510996124507 -0.4639406530557042 -0.12975586324061525
Ni 3.7435030699107377 2.5059420807504553 4.1722148724200165 -2.5202122879732984 -0.04751655752372462 -0.4265534706564976
Ni 1.1379416069377304 3.484456595913607 6.273435647521823 -1.0887670579876088 1.2976720180555652 -0.5855026676316174
Ni 7.28171919138135 9.678993350902573 9.341775285619082 -0.1532189793595619 -0.9009690551015969 -0.3762372389004488
Ni 7.4815371382812375 8.442704664183942 13.769326066407885 -0.727975721328585 2.534651860437396 0.44193818064268403
Ni 1.0865842643489214 1.3148581098878653 5.456732366992196 0.015696584799650387 -0.7195545871444252 -0.1601049078461178
Ni 5.4526515043845665 3.928214799014582 2.780402403880267 -0.040764326401555605 0.3134313593178215 0.223250430156351
Ni -0.11424516342495597 9.594109889496774 10.238522530879052 1.4400589397966295 -1.6419995527316107 1.478317726167512
P 0.4443041537755645 4.301645060434042 8.56403864106366 -0.5591146645563919 0.44619824147061865 -0.6083358634760492
P 3.6127692466337344 2.6940054722565643 10.706294967826508 0.504605477764918 0.8308519865695368 -0.6873970285752743
P 1.409796558500456 2.4576990307053936 3.3959242850426827 0.40174798157704356 -1.1998605689320303 0.252842541991171
P 1.669260803448577 8.65691671930432 10.958254527327746 0.4191612919574845 -1.1793858460174462 2.044629165582659
P 3.118175914632689 8.866447840814736 4.7123205516137405 0.5248814544051348 1.065465407147191 -1.2953330855097434
P 6.983250331281662 2.7538321713972715 1.8282767706282033 0.8711005496769385 0.4944002550971421 0.035300989294139204
P 8.108478408597204 0.3554110407196932 5.436291024256119 0.40881774393963144 -0.2805415505683362 0.2273361701899504
P 5.951982738761618 6.480728846006138 3.296701785223571 0.14086919954495739 -1.409350454969179 2.653447625122082
