# total energy = -340896.319256422 ev
CRYSTAL
PRIMVEC
9.00592894031038 0.00000000000000 0.00000000000000
0.00000000000000 9.00592894031038 0.00000000000000
0.00000000000000 0.00000000000000 13.18108733739845
PRIMCOORD
 96 1
Ni 6.162405842317956 2.0116993442966553 11.277698647940532 1.442437467331135 0.12752954501325778 0.02575191215312339
Ni 4.5658077679813305 0.24626802345708548 5.8093797377543845 0.11593438397649067 0.012761413430726407 -0.19065269872598778
Ni 2.763523285924989 1.694465502537955 4.547066430161604 0.2971699031536366 -0.8154634199286085 1.416959891885321
Ni 3.251851762906735 4.438427911122989 5.038668562259867 0.6001792958071858 -0.22832218825230358 -0.9697944014054267
Ni 5.261020441212357 4.5605843292809745 2.702162290681874 -1.3272736429720817 -0.20787857568597104 1.0857233860652784
Ni 7.278816799302358 6.271071379142953 2.697206328066691 -0.013852846722692273 -0.5035518396894231 -1.080837775838203
Ni 5.091772021392022 4.60071474798578 11.56979153887869 -0.4919052565894303 -0.11304986333984403 -0.6879706416905572
Ni 5.539483759514102 7.786327904614722 12.504541204386374 -0.16681163044233208 0.11466400190449931 -0.03682025415214304
Ni 1.8853371573920044 6.225438337945186 0.4466859628324756 -0.07811114248112999 0.7127167382869855 -0.3082307889534885
Ni 2.5623578544597208 1.6024339161949555 0.3347954029064495 0.6200379824043257 0.08922267901325924 0.1261437204093247
Ni 0.5288956832330468 8.905215492017396 4.588033499651346 0.4836566434273929 0.18651193708473685 0.4052007160123344
Ni 8.721296414192096 2.4412191062554256 1.4375290558318317 -0.38275832784841823 0.06468664154510795 -0.011356819773715925
Ni 7.013691261544107 0.4051902453225426 4.5905245395556875 -0.7942970702636385 0.5711983351938034 0.8679496627527826
Ni 0.8962475187287852 7.297666208267608 2.511023159742651 -0.9559423260136828 -0.5714716434598481 0.83055425282346
Ni 7.568492498952282 3.985195538650361 3.733161018986658 0.7123804379934893 -0.7370627712315178 -0.45028500994548254
Ni 7.292271656920171 4.005521919937781 12.587569563714295 1.687757475693016 -1.022812862583987 -0.1564644828800531
Ni 7.805942817527439 8.750664747988408 6.88918789834248 0.43607555121431996 0.4393994733812304 0.5352440285863815
Ni 6.941220552541061 0.7469391258506215 0.19774497970941474 -0.7393492532728493 -0.09759419090640611 0.8145283097088487
Ni 1.9203432026131846 6.537007450492637 9.112889508221883 0.3310189904925977 -0.07941726288706322 0.11154628221112402
Ni 8.963303732736874 4.852754671206759 1.3627132029709026 -0.23959930382801958 0.24348758313883226 0.8534990345450915
Ni 6.426045401825244 2.0166706169907873 6.877574753162981 -0.40972765734841055 -0.8002049511076412 0.5208538213029804
Ni 3.5297116839793024 4.216251647781978 0.4043905188456605 -0.7357995882483779 0.2849993292293737 -0.037955653308166894
Ni 6.085378133345291 5.545697850381767 4.915833997663715 -0.25695862104207357 0.14086071490452515 -0.8845654169325928
Ni 5.193016672890995 2.9627614486284024 9.076839675853511 0.5988958011090718 -0.7860047483478592 0.06881377633960406
P 0.11255339628524369 5.66298206106235 12.523983203466253 -0.4525938605843173 0.18157927566980986 -1.7043007247636779
P 3.8604364070709916 6.244602954418217 12.688734062447004 -0.09659068934255623 -1.2151223801871074 -1.2028767300505347
P 2.1482742544533817 8.454126530597671 1.3151285770035372 1.2496109008822802 0.5043329408298217 -0.2595310097549401
P 6.333851708763957 7.628192800925835 5.8377322027827665 -0.9036957100041404 0.04350255126832508 -0.25840666634250975
P 4.731057555417253 0.8811499796989971 12.526632747717365 -0.3945074979645464 0.5349876896012012 0.2795619602638863
P 4.008277734148659 6.179057804657541 8.236268610113248 -0.3421094439788044 -0.06670598596798188 0.26784929981264843
P 4.774159930623985 1.1314148343547343 3.6889247973447965 0.15392963227334133 -0.48849725934914584 0.5825695531452225
P 0.2585854322682529 5.482043945667772 3.6290695933959913 0.008296949901469581 0.07974225032664978 -0.6175273001673299
Ni 1.4202709944844307 1.1162938799100828 2.6219816060385273 0.2121810597160668 0.512930966911478 -0.364898673959178
Ni 1.6664210402743185 6.542329954409724 5.024577886069216 1.2592947038289473 -0.30240261230748566 -1.1680873902854916
Ni 6.120204059990597 5.689999847443503 9.11626402974089 -0.36869362222523594 0.3050135675677714 0.5612558792691108
Ni 8.428684781755418 2.3810054663406306 10.173479016764185 0.7392253261004752 0.1206824401844373 -0.3236712918782748
Ni 2.3920017053977594 5.102236910650322 7.099887006028777 -0.5844081490158581 0.7078714943795422 0.06468818420700473
Ni 0.619812335591384 -0.10692919375356709 9.177358449491711 0.1530719122587364 1.2554848431645538 -0.5710952339570359
Ni 1.4200638581221752 1.2009856342862024 11.293964255934863 0.20576975687308435 0.07182016726609566 -0.0024654308213570447
Ni 4.0308195739193335 6.866300230906126 1.6251090437117774 0.14203442349765216 0.16237956281290744 0.15634081281799528
Ni 5.391480325718148 7.883790066020333 7.93303718644302 0.9341653393479072 0.1992566383449149 0.4948897931390509
Ni 5.106064430387652 2.9381662570927594 4.9709043516444185 0.6639192571683082 -0.1290585800632745 -0.7339836180855618
Ni 0.7010701293184592 7.357654699962561 7.0574573737029365 0.2896124025213529 0.15641511769935643 -0.08463351698068006
Ni 5.185397657131509 4.707597110909619 7.11384619565904 0.3864892556457602 -1.443756700363191 -0.1873146354916903
Ni 8.251529156454202 7.087864091089164 9.319793517514508 -0.9389823011205763 -0.4458146328789548 -0.7285182240956164
Ni 4.666521069681473 0.2599381227730693 10.333788151663876 -0.6022873432891241 -0.1303356470034852 -0.24608773976584067
Ni 8.165900785483535 7.029775850369687 4.751109255876465 0.12656872376188524 0.37360751458708563 0.32256186086418
Ni 7.498579473726653 6.093690605621892 6.923339280921136 -0.9528955687675589 -0.13950008711157266 1.0303302540069545
Ni 2.3586707629322112 5.201302127381215 2.646103085719621 -0.28450799141525196 -0.15813210039046313 0.0384773301395918
Ni 2.1681143155859415 5.298413057563871 11.188343623635024 0.5303072534063963 -0.3829125940380954 1.425397738240029
Ni 1.1828657055532426 3.4135622203267273 3.943345888138835 -1.0157742105696506 -0.24623429264603403 -0.7971743918114335
Ni 3.667709530885436 2.5280812894708315 2.362038079708182 0.571803315767654 0.7205989692485396 0.461934678369269
Ni 1.1966808003228053 3.2189170813081103 8.193178843206827 -1.2909989769107635 -0.13268666373416504 0.3212254014409435
Ni 3.7117034930427466 2.77401519296967 7.013695764508505 -0.272055367474196 -0.4965851785636028 -0.02066678432073215
Ni 4.28849720856518 6.573904740760498 6.015255269978767 -1.1416492506986209 1.632554348158311 -0.4452636454714912
Ni 0.8500254897879093 7.437159039353499 11.076516105210555 0.042814524062364974 -0.5391767879818843 1.7504941926006043
P 0.3220033816478531 5.433727137689478 7.963419587821504 -0.05143337607962755 -0.0915919505763842 1.2705538216825343
P 8.38844629190509 1.595625434026905 8.04850400069303 0.6165443674287705 0.027544742387488046 -0.4824155719314401
P 1.849511572650596 3.1923135676514685 10.394499819440963 -0.25766336041858207 0.07588225315061126 0.28573183652002404
P 3.9321055884113956 6.12253659554817 3.796653717575246 0.6285365067936401 0.28557088546212755 0.310709075290652
P 6.799593316331061 3.9162821715208342 10.303656115105854 -0.1923794516091074 0.8105245878660944 -0.07394441269795007
P 6.299737250493355 7.779762582524102 10.283225265044427 0.09498529252864932 -0.9064578461303098 -0.8071099057575907
P 2.4312495430807806 8.449920761851006 5.547326122307671 0.016172753105120535 1.0239482617400106 0.807868124079854
P 6.834004970251855 3.777113553871517 1.5430308098715944 1.2182796948691665 0.45630550510794965 0.2704831378910697
Ni 5.337714930819654 2.725554290130676 0.43852659134536753 -0.40797005122735547 -0.42365326629056715 -0.1613457222317544
Ni 1.2366130885941489 0.8524561899693337 6.93682385810397 0.7429148591369206 0.5208895596369223 0.06320722878610405
Ni 6.858014776415906 0.6579551458114159 9.197076930585556 -0.9016264861799375 -0.35195008421831 -0.26021286631331314
Ni 2.776005503233082 1.486869837913972 9.047115607869847 0.13451960317784573 -0.10706947738669302 0.5674003016039518
Ni 6.525155648200105 1.8743048946197005 2.614258121505035 -0.14914300951797543 0.13815180061379434 -0.16756882032333076
Ni 4.191107094589919 6.70426556004956 10.46847181677392 -0.1568743167239621 0.6821170111232575 -0.036033496584789555
Ni 8.137216902275545 7.4120505098766145 0.43588245065153197 -0.44681144957458535 -1.3793256264723146 -0.6308898375171651
Ni 7.559612653161677 3.843442219437246 8.156350898590677 0.8018897950092319 -0.10165833367345073 -0.025962485502032707
Ni 2.964238420950572 8.370758647754228 12.453135362831837 0.5034687930573135 -0.3266182903217407 -0.26589089053469694
Ni -0.04722168703697854 4.831959981622065 10.236195404290754 0.012466250787810787 -0.11746470457808801 -0.23863976812822768
Ni 8.692486447980993 2.2044172145534167 5.831800898079225 -0.34349295458989226 0.8665864638566688 -0.5109015951862749
Ni 3.8309960258443287 2.600155737606953 11.489848610755496 -1.4414468212830918 0.0029701383719174653 -0.6236259568659002
Ni 1.036798546447938 3.47934152423604 12.61564464613583 -0.1316664499997668 0.19013719254214995 -0.4734467927739266
Ni 2.9180920418115632 8.273989942865732 7.7342006881638055 0.6818179918256 0.14940063405473622 -0.05232117800121957
Ni 5.575102207893256 7.765578244673997 3.6738191529790942 -1.009662698355274 0.022106087870419993 0.08321709624912764
Ni 3.138223959316401 8.375261612151087 3.322226792279482 -0.3593898283258069 0.010242246553298489 1.4360307924738431
Ni 3.3126237704067414 4.289460842946108 9.2222133784417 0.5227212135290223 0.16626861345466848 0.22502629110985117
Ni 7.116007618569532 6.069617757956284 11.43194409098341 0.6115463999935468 0.7121418396201219 0.1742241208563193
Ni 0.45740571987563755 0.3507836282939363 0.3323782116182157 0.07538500179921856 -0.5844099487880708 -0.5839908589727814
Ni 4.574876738276604 0.32707281896583673 1.5490945017284046 0.1562657366056857 0.22004246474201458 -0.5352944222083426
Ni 5.737623198904682 5.476118044521505 0.5513042352575748 0.7020808558396942 1.2021527074003169 -0.052022415813878155
Ni 7.918264761442685 8.742937661083399 11.355243297225956 0.1075836980189502 0.6171290362876468 0.2379422278405709
Ni 0.13186300821185346 4.812426122068492 5.771193699076143 0.01583053927435338 -1.0216437819765503 0.2067820001876826
Ni 8.10392198352517 8.859321278884611 2.3069668251345994 -0.7586224996801645 0.18953478307146068 0.8155510945464084
P 8.514295140868498 1.6354586570815177 3.668731703803523 0.35406250257562244 0.5724180665335173 -0.7292625584608086
P 1.8265824779417912 3.349800244467207 1.6113876106016694 -0.5406860255375592 -0.7660208490267646 -0.4522282497147825
P 4.693403767130721 0.9808357049237773 8.050230437242787 0.25450758839841975 0.5855869998153076 -0.2400011672521286
P 8.493275303063962 1.8498898216599322 12.271855922735975 -0.7368640249571503 -0.3371546710766903 0.5347825155689306
P 6.133667923537204 7.740613810057812 1.5121215616586765 1.5939991135929321 -0.23514538182172406 -0.31657196182933217
P 1.7593892432118647 3.1442219078930167 6.081081404717808 0.4575267791095604 -0.807906433516957 -0.5680212230174024
P 7.0439872060061735 3.878079021577884 5.8911814895806005 -0.8105711248333136 0.02414574400826809 0.48516330987990636
P 2.552577415789743 8.538512083394805 10.19845786086644 -0.36730445518719324 -0.26476988955637626 -0.3758801126713462
