# total energy = -340868.6727238882 ev
CRYSTAL
PRIMVEC
9.30684807242826 0.00000000000000 0.00000000000000

0.00000000000000 9.30684807242826 0.00000000000000

0.00000000000000 0.00000000000000 13.62151290461422

PRIMCOORD
 96 1
Ni 2.0933986407890295 2.695542403366929 11.574512776406102 0.4921060597463267 0.22534099413679257 0.4838610461287151
Ni 4.800174409763333 2.6933646009210914 3.440003694410685 1.9159238550937456 -0.4200611780639346 -0.7158743100793606
Ni 3.6145750355102755 0.5532018406893321 10.518982187888277 0.40322122368846036 -0.6709836202142573 0.6984278324681391
Ni 8.63059386546104 7.393211188606962 7.123179506964836 -1.6288902690431624 -0.21315422226261355 0.576094229833524
Ni 1.487252933545703 8.124980730952476 12.021870626173325 0.2009599941892668 -1.1706572078951967 -0.25261448514076495
Ni 5.122033136192358 4.277808948748329 7.4389394558607105 0.4339333080603366 0.2587697061088834 0.2470894415574777
Ni 0.6246207313255132 3.636371673664767 3.2141590659837136 -1.301453082364552 -0.6147533369666187 -0.9676873823647527
Ni 7.956219655096204 5.173890893577851 7.572662110143956 -0.4113299688385238 -0.07460852864451022 0.6363619163753299
Ni 6.355860597087847 7.783400793486147 13.402533159582573 -1.5002183828953453 -1.2582660054541168 -0.7519564005138984
Ni 7.475790851435656 2.926119564031969 6.532972707707581 1.7682864835870191 1.6949671060675777 1.6090773480822935
Ni 4.242238175466319 4.57478116346723 12.181201072891279 0.3491743212453857 0.034447383044592286 0.9696979850368783
Ni 3.703837015245428 3.7427582538287254 5.039265475032869 0.9542924491150856 1.811102550311281 1.3957588323276737
Ni 3.4601837330573044 0.19962909881400273 2.8228814905664152 -0.879263287993389 -1.2587239189271417 1.6640318499413018
Ni 7.3702791149892555 0.42472359528740744 13.64698496933417 0.8910831634464524 1.9165175228136868 -0.20839279631822819
Ni 1.7930015059843671 7.833462329196228 3.175896752243003 -0.7223180088221753 -0.9866618665847265 -0.5283506439006578
Ni 5.283097448703727 8.460446069243956 2.0259416753716217 1.458830563977178 0.3503212903656354 -0.36880289410959066
Ni 0.3189149703879209 2.0857297979883036 9.896179083988711 -2.0745277529143045 0.748312376003408 -1.3425287693589396
Ni 8.919068927901952 6.869654451040389 11.081127909562435 0.5040241513401513 -2.14717941494276 0.4640504391606911
Ni 3.936415148243182 1.8596199243916471 1.5649213726535924 -0.3291104606159751 1.3911470445872751 -1.7715425286304716
Ni 6.590886431125154 4.262145523464807 11.472746115618698 0.7907407203709479 0.7280579966297461 0.45327725980458705
Ni 2.7973127868935572 4.879915483933992 7.924124058879475 0.8569885357555886 -0.8584280964155926 -0.7224653330333171
Ni 3.1293997393395703 4.1900453715506965 1.4097175823650592 3.085127104151235 -0.4665078995622482 1.8435246753957282
Ni 4.8250143872331615 6.272890046640669 1.3866431139720488 -0.2196639983566733 -0.44249816691121213 1.1075911326726475
Ni 7.457819327833469 6.809336768769142 1.6667690030191116 -0.9106371743189802 -0.6147633642689477 0.8490664526950344
P 3.888633790307589 2.6334657268125063 13.107681975536348 -0.6676008197849534 0.16127244579165775 0.2719820910340993
P 1.4548185680596217 5.307323174201653 6.4779962255374715 -2.168437295880272 0.9053116483410086 -1.813943876414818
P 3.6054357107162063 8.387806120142416 0.830589655037398 -1.640266629200904 -0.9069406993039993 -0.9753394995933717
P 4.512490429407447 6.641813503704733 7.940729337186581 -3.315199442325426 -0.2582734831987552 1.6691390892608804
P 7.288323010980523 5.366561262098041 9.708828509819124 1.1605735984069496 -0.011834016520450586 -0.3111705883081028
P 1.7498084241419274 3.956880907125217 9.828507130381137 0.21868183694906207 0.3865576469898504 0.20189793262250388
P 5.676590984643905 2.8051677666554657 5.550098820617801 -2.871077880878178 -1.2886968111401482 0.973992241536858
P 7.925032407250046 0.39417758927252433 8.392322733505514 -2.9071309178469935 -0.3327696546351172 1.1313010746950776
Ni 9.281710262526103 1.3970416553085188 7.2399702125741 1.0358326718824225 0.9433680888930978 -0.31340359140367957
Ni 8.8407611083324 8.868020866297602 5.366154552837855 -0.46493669842038643 1.638061136909153 -1.1983790992904975
Ni 0.7093735431760154 1.2490441574721727 13.205688669707863 -1.9141173980126258 -0.463514364151563 -0.36451223715403674
Ni 2.162539215020335 5.329547927366865 3.543568438243114 1.1215069714227912 0.2439673509887282 0.1724678002868449
Ni 2.767270281358673 0.5491319560330729 12.835946210014596 0.8024412966373278 0.3508180274963958 0.397034121041142
Ni 5.965317331982415 1.3120422119844495 9.523739499727906 0.06754905069456753 -1.6114396776668831 -1.5793463966767638
Ni 9.276880008383412 0.9370972242261254 2.8659386924271923 0.2517253976675923 -0.781261577235919 1.5987137454597822
Ni 2.5171115123772148 6.299972974492748 0.8719148524743698 -0.7450301057077103 1.6391821378874738 -0.7626992408526994
Ni 7.483766820222334 7.608432049974432 9.388464463188397 0.3864103227787087 0.6696006238238016 -1.9121119375468232
Ni 1.1128384361267494 6.536971860318591 8.902884319127118 0.25006266525318865 -1.3131613719404158 -0.04288162985487453
Ni 8.557013924705528 9.089011973461735 11.18285362021838 -0.28576140420637886 0.2616210595147494 0.546016436611537
Ni 9.095163800028823 4.282127326247767 10.860581669735529 -0.12550737237690643 0.3826007192246314 -0.001856850703080673
Ni 2.0952693172489156 5.527169539054513 11.713506829430042 -0.6173694344332271 0.15398285410877996 -0.5112890604326807
Ni 4.895904648899584 0.09451476477972762 7.42157194669756 0.20487732696580202 0.05354399466472714 -0.14144975463877577
Ni 1.3242341829419149 3.7585519749850755 14.043916454947393 -2.473833957819075 -0.10964006632734667 -1.7239470382396955
Ni 1.630438790935477 3.18173214597608 5.647261383670352 -0.6767616603486151 0.26128373077998873 1.0571026370047922
Ni 6.070186895912735 6.618248564419007 6.809544311480861 2.8075068409947517 0.42915311306287374 -1.2920086491222007
Ni 4.982895757708308 8.153897107872206 9.417205871364613 0.11272204768678006 -0.49430666694207137 1.1192819387470143
Ni 0.3090329591187327 5.69965335413444 1.7285432070116125 0.843990580834024 0.8153140388349379 1.4129597695869924
Ni 4.210371527711845 0.8991895013964675 5.237539496769462 0.3172779867574213 0.03616719394917642 -0.6803658327601056
Ni 7.067694870890697 8.56730729865893 3.3020315333036376 1.8659614071326893 0.7433761150440553 1.0540995885124103
Ni 7.414477336422082 3.1283945997491838 8.99646467636171 0.03266252323002762 0.5849089999116764 0.09341717671058106
Ni 5.35334553785407 6.738148687964827 4.350656440561587 -0.167817188888711 0.9463081453580283 -1.0628927613240082
Ni 3.549175814198742 6.070726693100164 5.951579493562327 0.0494256016209794 1.14817033964659 -0.5473968618988314
P 7.9336598554008635 5.077974517480419 3.1799284788222195 0.7653999276133141 -0.4383820878603095 0.26634134780855423
P 0.6541048259768492 6.017780034491752 13.182246580816518 -0.032768966900904854 0.845180487377067 -0.3481307104722198
P 9.183820834640132 2.107628811471445 5.181569043226637 -1.6355270576333896 -0.6317102765359315 -2.0277635001755723
P 3.327058578419454 8.214484688737167 4.820094787349103 0.8828954854293376 -1.5756260104023831 -0.3562587388959929
P 4.547353882236963 4.917347626827828 3.3173971394492674 -0.7440497440723122 0.6559722344070895 -0.542481426875085
P 8.849984194759001 3.0945642070542325 12.737817596133505 -1.1886472167147142 -0.04637755882327496 -0.43406134899776855
P 2.9351658203454476 7.218056308134064 10.144648660047437 -0.7619194252638813 0.9770248577155948 0.7714903567817681
P 6.430696962331342 1.1420712458804887 1.8960329674230083 -0.13017186773211128 1.028651837863267 0.5785203227765133
Ni 8.043694720004002 5.0558614464919165 0.0909800238868686 -0.5816123314382757 -1.146371852985271 -1.034388226126412
Ni 0.655826592867789 3.8140394031136315 8.03039988755153 -1.1172445966020113 -0.2655437916079233 -0.6029769131569809
Ni 6.363585280976928 6.762858369561829 11.132385375248115 -0.9674127885471274 -0.1351605791959543 1.4975722035217498
Ni 7.434468446053102 1.7701252734550164 11.461753797376055 2.521791716645276 1.8707490583293203 0.12142908854247474
Ni 2.576182077008538 2.3859780232240193 3.610668020695051 -1.4428876674946762 -0.8129583941185677 -1.5599155416456618
Ni 3.535792566689708 2.344264730222982 6.97930866555791 0.7142100350030602 0.2215092790955282 0.5762155859027366
Ni 7.000964770306708 2.1122915423490713 4.083947303676571 2.2837978096311637 -0.34180065448913394 -1.9435716987180012
Ni -0.10791848735449214 6.554236063468284 4.335836215712223 -0.09393268289441886 0.8944507943671048 -0.9170001404225303
Ni 1.282772174838474 7.550506227654383 6.092794160533177 2.804247196406874 -0.7648923918492763 -0.13512895462707053
Ni 6.454987835765682 2.8012961178628664 0.024309487130457545 -0.6995737731471242 0.18547578251073865 -0.369481408233854
Ni 8.826828756787878 4.436909516319222 5.218455804824208 0.2505766287751297 0.13755401912879536 0.7069222430923954
Ni 4.096772140302058 7.913184789670768 11.962371946531281 0.3458707107934495 -0.38232226875226416 0.24717583062369686
Ni 4.93666864339859 0.6504034925037316 13.476457453716272 2.031688032040959 -0.7002893111569101 -0.7723647889669215
Ni 6.331271904515615 4.13994660844838 2.0471091705973157 -0.1462525753440578 0.6108822840469865 0.23553696083318787
Ni 8.824604420101744 8.005825155251387 13.538339617146258 0.7630301418295569 -1.0800271070114495 0.19991432653357183
Ni 5.30853306444934 2.357005805215936 11.455937948023902 -3.1309279645354335 -0.06368648241536774 0.011290742422470877
Ni 6.796809751281549 0.870645398399104 6.072034305252473 -0.41797858450329306 -1.3560126627779872 0.7783035230488596
Ni 0.40025868379436236 8.659147275306463 8.976508932753314 0.41195963200272284 1.4306774985817297 0.34787668547988476
Ni 1.76417819754523 0.34519750930691484 4.745176521842688 -0.7762939488179985 1.1466708722829284 -0.07519551149623178
Ni 2.8089649606635927 8.502354806054235 8.171490773443193 -0.06192039165388045 -0.5128906005918458 0.30559052311716406
Ni 2.52941516551139 1.7311202732391866 9.018272482733872 -0.6598350597966055 1.0977726039203288 -0.7978565054801227
Ni 6.28416063964028 4.789862422113813 5.376970040967375 0.666555923460207 0.36013236291878625 -1.3735288172848796
Ni 3.6302105402496205 5.172224967775267 9.899188918651035 2.1659543815574183 0.03207631170925443 1.3298506596706388
Ni 8.492098659493069 2.3447673000181752 1.1599059588162068 -0.5063047198442119 0.8030822726554363 0.6885452832471044
P 1.4349763679975482 1.9090020601934112 1.5584512518828826 0.6163073117172998 0.24992433990311153 0.9423897841402286
P 1.2610499914684554 0.6170700854951379 10.853648998616281 2.024056226527314 -1.4099065845829652 1.1844833151450116
P 5.885520416723401 5.476056329513749 13.427883152326041 0.8776944008443723 -0.394418794905482 -1.524411435201781
P 6.771495124560704 8.17653136235202 5.45376735909693 -0.03277590887944033 -0.7668747123866276 0.045611112970895644
P 2.0223036284653064 0.7502957540920268 6.814788720362183 1.0292311074055047 -0.12980959929668612 1.4263819565301692
P 4.7515740491985365 3.2615383680831522 9.33072291645992 0.34757638063064655 -1.1139456141357653 0.1973231687676279
P 6.160565697414984 9.369762352013568 11.49974435115344 -0.9355185109416921 -1.7574875931993024 0.03840585347170805
P 9.112614140139698 8.126544281426412 2.1535748589697774 -0.05492647683455056 0.13423961004358173 0.4852394145334805
