# total energy = -340897.36009117455 ev
CRYSTAL
PRIMVEC
8.99769917244096 0.00000000000000 0.00000000000000
0.00000000000000 8.99769917244096 0.00000000000000
0.00000000000000 0.00000000000000 13.16904224024382
PRIMCOORD
 96 1
Ni 6.437358782356105 1.898208573515138 11.267063588036411 -0.6163499920297771 0.7319642736626878 1.2411879669259076
Ni 4.439302742707573 0.3221158257260755 5.962692368199642 0.24741854276212225 -0.683367595700907 -0.3484140460405935
Ni 2.5814668447390274 1.500303329321477 4.721970856347316 0.4649770647400186 0.36018275654074744 0.31212369624999153
Ni 3.423426531450057 4.278594840336794 5.1821104854202105 -0.501540208576033 0.682139893941393 -0.7653970993998367
Ni 5.320942282139902 4.480161294001773 2.8873256278581088 -0.9637235126209984 -0.07785171817215625 -1.41086792005497
Ni 7.149796591533549 6.070891498572471 2.5057260138462025 0.5985039649872917 0.04189715445441817 0.4972876039472661
Ni 5.231802077851939 4.663894308189742 11.344405109586633 -0.933896659067553 -1.0285564499359836 0.5686454868649626
Ni 5.559786202885233 7.843978069379583 12.355339784536998 -0.04016705913718889 0.5410539503999391 0.27101098537008167
Ni 1.8606611754638944 6.372827284914572 0.41702445486202644 0.44869118309580147 0.3667984620850522 -0.6780466977086258
Ni 2.8433268796025177 1.6347469482243484 0.3623697316454749 -0.4973583092842015 -0.8217464247238428 0.5313110120805623
Ni 0.5033411811944469 8.967682705809901 4.643772753849461 0.5086791336136594 0.027670212221758795 0.32933748902511667
Ni 8.739150148152692 2.3388168973041035 1.4663199198559262 -0.7011416318548764 0.5149839927857647 -0.5309392305634405
Ni 6.695637733005745 0.7237299214598094 4.657402468339761 -0.4171856562883525 -0.500876606850105 0.28503635311489617
Ni 0.8344736011182582 7.476700992683269 2.2782443874356697 0.3092841699186673 -0.8919185148635543 1.193091625639313
Ni 7.639694310607612 3.9689210328290883 3.6870681107214422 0.2479656735148439 -0.9066905309664063 -0.09558770199933861
Ni 7.627862336383459 3.839210203615878 12.61156995911756 0.6896835106166058 -0.700446919780697 -0.45330554193936123
Ni 7.929591175647875 8.789069382369874 6.723717752137862 -0.804341341873518 0.14081623481983488 0.267502715106507
Ni 6.99221988842513 0.6067148455776086 0.2913122030976468 -0.7881706456509264 0.2033331224071337 0.5329922564377273
Ni 1.92392399734223 6.514828971002452 9.239887395247921 -0.3601570455091346 -0.1883893566131078 0.3632814500707292
Ni 9.05546425754437 4.920670643101411 1.4474355491322382 -0.07917995006527655 -0.7072850257484529 -0.00045534236986373195
Ni 6.202959724931482 1.9805195242395035 6.800217089058896 0.6409935016100703 -0.14913966708386575 0.8390229524161033
Ni 3.2685131472544513 4.285523068589719 0.38977762266006716 0.03623018597662793 0.2664593614436572 0.22796171958909128
Ni 6.010381972597246 5.592087942402118 4.816168667259916 -0.23283164608688287 0.745593177300032 0.30399695337779903
Ni 5.33928859046161 2.7861914907634575 9.247577728608668 -0.043462184948692896 0.15166706149140977 -0.3332432518374261
P 0.2389977813987394 5.470439051519585 12.420277078204775 0.31228901818326216 0.23840271241675717 -0.028623063053331354
P 4.083074840419822 6.170487029133031 12.586088475465242 -0.48497947600387437 -0.6811011682642335 0.49008157311713024
P 2.553708943232177 8.403419004254763 1.3497349339873488 -0.28007592378582735 0.8081620011711889 0.11511600184025336
P 6.168102638890141 7.646316617093524 5.739410867696208 0.09049151842335384 0.5416275635152221 0.38619075056873486
P 4.746475189885001 1.2160300261748214 12.595938256593135 0.9303289963209526 -1.0475137077647767 -0.09502488751733311
P 3.9445462661574324 6.069253917349052 8.232455524529847 0.38504455277943367 0.7920648384990101 -0.5031152663726368
P 4.547841986103728 1.0872009714665285 3.715921931970119 0.6114430416464631 -0.29880101099915635 0.42503240602628095
P 0.27418778230418245 5.778934160454389 3.5612775789755036 -0.382861943305818 -1.3919060342404868 -0.37113128513245114
Ni 1.4007347918580064 1.0257736801902666 2.5525293448893738 0.6594491372120965 -0.010296753940317751 -0.23755759080764244
Ni 1.8228348487427277 6.3189670585223485 4.951494060667705 0.0411024264672647 0.354975244197879 -0.8374982882414609
Ni 5.923860098726947 5.5939234730041925 9.294907425045082 0.5685876370438336 0.12413234640625073 -1.2506542545451298
Ni 8.600855514065078 2.344017567343312 10.271707529186195 0.5418985577884216 0.6237324005367774 -0.8904213614927374
Ni 2.1766783607875895 5.285941232914085 7.145126785737096 0.45373748727045726 -0.9856617074549863 -0.8643755722482791
Ni 0.5709237983769766 0.1725461749842522 9.2756019620068 -1.7379526084901684 0.2561304687138234 -0.9276612196808024
Ni 1.5040283767198028 1.1565192447919015 11.416518968000558 0.24980941159180203 -0.32425364674430607 -0.24992665389595664
Ni 3.9570890586049368 6.7016931844527825 1.7562500763826 0.9679509204387846 0.3734288229173762 -0.535199291391375
Ni 5.55077950615643 7.753038325285665 8.04303236547545 0.10504267676465134 0.20665678746372798 -0.25654441632279046
Ni 5.231118252725676 2.9845367681757784 4.7084860048113955 0.5953697902336842 -1.2182776379866374 0.01697905105649979
Ni 0.8248325666078562 7.4475754409238935 7.015517630522923 -0.31813313566886503 -0.259206793646302 0.4837648868704829
Ni 5.10479955604669 4.552322840220555 6.955953762715726 0.14193363625372976 0.311380904546696 0.7941710862087356
Ni 8.169217896208796 7.258713738288953 9.177123045895836 -0.23930671228826525 -0.537214522049191 -0.3737116442651177
Ni 4.520848889014408 0.337766423418463 10.510001690520808 -0.15539361841337754 0.06305553369958819 -0.6201541962672159
Ni 7.9980006813712405 7.2178641846937825 4.539922211417721 -0.3028098750482333 -0.020405560239545505 0.6813863036048201
Ni 7.210711013965113 6.131562983130232 7.039222068616859 0.7403848936262153 -0.0908627857198435 -0.3278493345153644
Ni 2.3146400800111024 5.067576075160519 2.510071902477583 -0.28415755005436866 0.7424692869590697 1.1592222265853778
Ni 2.4479139980401037 5.142778843651363 11.458528325000666 -0.23246757787924482 0.5222111066618231 -0.9679717463743911
Ni 1.088217711456893 3.29634303035354 3.8201287832834376 -0.22289664636135806 -0.06657408837580793 0.07166847217957979
Ni 3.7017163647419133 2.7121944139426026 2.469906174008675 0.43437116692870353 -0.19600496417683663 0.5363002377650377
Ni 0.9824317639638491 3.337714450492437 8.188049180508207 0.074692089497252 -0.13063183808766535 -0.35016573862437755
Ni 3.763926455833765 2.6180065004989364 6.998239349076048 -0.8428238142194323 0.043280407955189976 -0.009163925887455186
Ni 4.00140272632657 6.762733574670764 5.9443082695420095 0.584465998836987 0.32267730339612166 0.5120729897865568
Ni 0.6153517368762879 7.36317702402462 11.354084834202864 0.8476945120481723 -0.02500526379508597 -0.18749744092645776
P 0.22679960082407583 5.499042736735233 8.02956011071817 -0.8684592553993494 0.9254675544635932 -0.22801828385863954
P 8.487898400445303 1.6028501051638022 7.91893969953643 -1.5433339831378967 -0.01110973675991635 0.8873720331434524
P 1.8849819559413714 3.2729580105751594 10.196670318357498 -1.5088958560646852 0.33244003920984033 1.1416734190683369
P 3.873563418511552 5.9290877618632445 3.8243684990662667 0.3442766268334522 0.76533976379934 0.22750637721922753
P 6.995809970338009 3.9026619771738384 10.302865661156398 -0.0616249719006487 0.33786840931426326 0.03186368147781609
P 6.314171284939479 7.696937671835029 10.246818094130036 -0.674068172676852 0.054324067363861285 -0.6612486523146806
P 2.358413885790949 8.397732458467946 5.8441971708270435 -0.08335747848173386 0.1488766432304662 0.04985549006954639
P 6.953700738878672 3.843969986402628 1.5808246377088202 -0.46556533314332077 0.24207296217949278 -0.5406279186061141
Ni 5.24564953665876 3.2089573773763824 0.17848285680409656 1.0475131935441442 -1.1888233372812622 0.652885882172282
Ni 1.3312275668530082 1.1038377169725793 6.917117894163419 1.0077114881661742 -0.27857105710552665 0.2551423937689412
Ni 6.70297085771501 0.7611234588576439 9.154749367488401 0.5476331462793536 -0.5912490831970914 -0.8697818308655149
Ni 2.6528185980451293 1.589731459978393 9.128385209561262 0.6233169102659136 -0.4285422189517523 -0.2518801780779017
Ni 6.304507756181502 1.8292232150538668 2.427212092112401 0.5815315987990114 0.9811566204957813 0.27723382635134186
Ni 4.123339543578057 6.776545042681466 10.457470424275282 -0.011589761720128428 0.8403642969353463 -0.602549081590943
Ni 8.18293038953017 7.154862296087311 0.33008868683635756 -0.15888929027146184 -0.2246552809236776 0.0321416177295511
Ni 7.571644712845436 3.895382838658752 8.089347121461305 -0.047579549551176124 -0.5594098271993075 0.13693849703198352
Ni 3.035472742383325 8.21191197810507 12.289994895103172 -0.08018910805608126 0.37794008052416844 0.14665058211342485
Ni 0.1918921276681676 5.016217209098572 10.215028323687944 -0.23686673538820496 -1.4641445199909235 -0.21722942077325172
Ni 8.459672618588906 2.151898697659594 5.70874041101342 0.2914628254665303 1.0781931391265043 0.03889719128582979
Ni 3.5208896073405604 2.6886924240768346 11.432150670524981 1.079066285760077 0.4844403156709528 -0.2119342338125834
Ni 1.1627546502195343 3.3750369060679364 12.424661656941982 -0.7974685260130847 -0.052887849137966986 0.651204123594485
Ni 3.1605767496932917 8.287591624644492 8.126234088403763 -0.09742501231839351 0.04803951990673017 -0.9144832875379477
Ni 5.6040008959175385 7.832110104359312 3.4892429003130423 -0.43823810608327757 -0.17667721038250217 0.29047320785975134
Ni 3.007543884594909 8.288410415256202 3.7480806080724314 0.6096250146011178 -0.5739558433342824 -0.8370630004762551
Ni 3.5335853606715704 4.228990525585654 9.236410684342816 -0.09653001130794989 0.36197764365764107 -0.16236824995899776
Ni 7.297475825709217 6.067967246387794 11.430188272366587 0.04518610961833508 0.03546116902108731 -0.6176319440659944
Ni 0.6588259192784431 -0.088717312433564 0.25945674945263775 0.36454848970861087 1.032960235430634 -0.11707261134599192
Ni 4.641813954770679 0.24686356989056712 1.6869938871805326 -0.3821883142775611 -0.38895622912901395 -1.4454556853321687
Ni 6.134280288237223 5.5536677675449875 0.3261836854574359 -0.9779694810170512 0.5135464890082897 0.4422387426022384
Ni 7.794535713210979 8.909629551669804 11.271356390243515 0.9517043766729352 -0.3427455349009065 -0.1093094224608053
Ni -0.037665267908533695 4.713903519397221 5.562734748857289 0.5119158953834022 0.3671494176665677 1.5364881638606571
Ni 7.965977870524278 8.72173960053008 2.46159679895468 -0.9592405371489802 0.8433999984378765 0.19079385228954238
P 8.408043821556067 1.6375452326226076 3.589156949419256 -0.07332734793924145 -0.29220098918413545 -0.6046478731015006
P 1.8005565459450095 3.1853204220251685 1.6426928162375412 -0.7508384848593714 -0.5427799319521103 -0.6212687694876332
P 4.589861240572769 0.985212052964049 8.10067252523008 1.2917733931829432 -0.1987547590078319 0.8255141192963912
P 8.59434117996752 1.7059187475498547 12.420053035498933 -0.27062866232999844 -0.4137887147916615 0.13359426315009895
P 6.2824004096653505 7.581299243904383 1.282981904655364 -0.4565114504711686 1.0870870991820245 0.6741730736858325
P 1.840767262909066 3.141312676070547 6.074774005703818 -1.0706202118752528 0.19940087723226305 -0.5067178961222306
P 6.9012261581370336 3.9004575409115443 5.891065285303229 0.171972091597349 -0.0021160179017382912 0.06973654526418958
P 2.2888616722908024 8.497813864776115 10.109900107993978 1.5770180056539034 -0.4850995465215065 1.8916385001838196
