# total energy = -381166.6110654982 ev
CRYSTAL
PRIMVEC
9.26642943288069 0.00000000000000 0.00000000000000

0.00000000000000 9.26642943288069 0.00000000000000

0.00000000000000 0.00000000000000 13.56235614006797

PRIMCOORD
 96 1
Ni 8.438687155659563 5.53854491451676 6.019082489090156 1.428720631965675 -0.4736864195885584 0.31977941302303636
Ni 8.154837887094267 1.6672623284999633 11.053510472517743 0.21500927319348132 -0.9153016696741849 0.3383571760252237
Ni 8.286967905391231 7.844023308672449 7.510222425223107 0.5873407492816207 0.8609894293848656 0.393073079510865
Ni 2.9654705691457206 4.43491316059515 0.4819942572914183 1.378984441082812 1.0833980803662115 0.397040034578413
Ni 4.049438959659927 7.608915459297982 11.433052305284532 -0.4748223329652145 0.7942505332964193 1.239942781664897
Ni 7.3491218417249655 3.1280964069402146 0.3493184462966726 -1.430181018561285 -0.2976409292527842 -0.7189568056594263
Ni 2.0001495420002144 8.27386517407263 1.8902802673006143 -0.8949513881526071 -1.3064708472941176 0.29126922139848543
Ni 7.002835371161988 0.7423086482025573 0.3240924452580429 -0.38384101938963566 -1.3692361034467968 -0.2926108230280444
Ni 2.0818516509366276 6.33470727106748 12.768659855408272 1.0693457160382036 -0.5129641341422585 -0.0716576735463024
Ni 6.011188417795733 0.9822971259967603 2.8849434434704095 -1.07463704634413 -0.08701950071435335 -1.4884100774065077
Ni 4.8975489200098465 2.29001272331358 0.5812395705647283 0.6773980083810334 1.3504583086186612 -0.2581361862899425
Ni 4.145587432193015 3.6703771279414448 6.31015771938264 -0.264213502832274 -0.6655544787788861 1.2944864212387317
Ni 5.201154216277584 4.975405460702116 4.220252614564121 1.2954377294084078 -0.6947465269618099 -0.5285558179329285
Ni 7.183734607938291 4.721282897985523 9.840221645132175 -1.098851181696488 1.8536363099084334 -0.9792902567110036
Ni 7.7529806387960445 5.161039842954943 13.130110837854478 -0.9097339457784204 0.9497071437372483 -0.38796738285318344
Ni 9.343989518907923 4.351746955797111 8.29300127764126 1.4108185548742735 -0.43285832982860295 -0.9972121312967471
Ni -0.17501134746948677 4.10219274282597 1.622193195321554 0.6275949688159772 1.0473481287211899 0.23595013711120655
Ni 2.0639952412824973 4.684606370008851 10.656160415530247 -0.9094040732428273 -0.7470556207781716 0.1393645899749729
Ni 5.988430066934007 1.241321629920948 6.89116840913862 -3.0557846464333758 2.2452598014569656 2.2515944854257417
Ni 6.551004268548909 4.437062972240069 6.466545396835069 -1.29743393390283 -1.596429834521612 0.6950082652636289
Ni 9.022101557228872 6.188455214206483 11.324960331763792 -0.005825091322209323 0.9726732656151185 1.2767746057812657
Ni 4.793894639578553 4.016969390678053 9.765574995620076 1.6204063999418674 1.4996385991324754 -2.757012946010258
Ni 2.6122713421727894 2.1887955138418276 13.161182102624206 -0.2743174240354953 -0.6715194381130694 -0.4587765923562615
Ni 8.60173924921124 4.148515623916266 4.081726906623525 -1.0783291504837365 -0.7050324822688503 -0.25766130353605304
P 1.2546096898296266 2.4563266000506503 11.286768742563222 1.0230959410420444 0.2479055097008698 0.08690714350620517
Ni 8.401565839066702 1.8283962711443198 1.854950151530867 1.4921525751680753 -0.6224741026496441 1.3409375136124198
P 1.6650939839960366 7.683102493906683 4.408579821230798 -1.4131919402024566 1.2879133960069045 0.1453413763836981
Ni 1.2075825600970305 0.48214344680643206 5.528518637793476 -0.1537108313943159 -1.6202778447838029 0.1366811296055388
P 0.28951661684991775 9.571387698935096 0.4753455941223272 0.572529138190085 -0.07084931871239411 1.9671001208572445
P 7.26765139352615 1.8697338131614845 4.3661562536757685 0.902937234571561 1.5334959140015525 0.13626795332752015
P 1.5241423248113044 6.073829481242501 1.5203264091415738 0.5213557006400633 -1.0273526594358693 -0.37765983027958827
Ni 8.993588753645188 8.682477649479242 12.282639334497382 -0.9321804477073945 -0.07748662152325365 -1.187283246487652
Ni 4.648374630648368 5.692543706443067 7.509165125616706 0.8011292626941235 -0.5699585492494313 -0.6898835424425539
Ni 3.9719808754363277 3.723751761884253 2.5257173307481025 1.3846953754246605 -0.3663953131093625 0.2701728057395025
Ni 3.7980407272174985 1.8462434143689463 8.70356062988665 0.7741581334219184 1.1263486157858085 0.551769022824598
Ni 6.417206292941234 7.377328853135019 13.546176302511123 0.3443784425186392 -0.16131409766287058 0.03301090770838185
Ni 4.825187372013424 6.476400244612529 9.536113181742373 -0.8797636246685753 0.5538513592749236 -0.3378182728026182
Ni 0.7711791359650944 2.422531931649709 4.178046808102435 -0.45630164845320764 2.8161064097383046 1.9194190127311976
Ni 1.384219239301512 2.3091293673802493 7.016919417365057 0.27864356221467496 0.6285079675485499 -1.4360575319467204
Ni 2.694594301885968 4.11667617214066 4.500179403520391 -0.2391719864826139 -2.646537785376126 -0.5569361688478344
Ni 5.931839981953325 7.688792081622115 3.4246712631432987 -0.4679186638668457 0.8153927145916732 1.5283889317922903
Ni 6.01076216203855 1.7645969040095566 9.919805448283984 -0.2934124929937334 3.2729155939555503 0.6732737018000147
Ni 0.9424422127002294 7.007487118772976 6.432421770186736 3.3218102627737243 -0.8888007951701788 1.6173856108376725
Ni 4.288716702311177 0.40445833505998524 12.778709298205316 1.1092435806744059 -0.15802951337432783 0.04413812796979495
Ni 2.814149775346057 4.071872985489014 8.508642211913807 0.34710175498707313 -2.734850036759974 -0.6248937678347303
Ni 2.9553608945569003 0.6318676348025629 10.705392028841834 -2.07698932708092 -0.734813827296341 0.6229854950684239
Ni 3.0513981699359394 1.5667493676705115 4.3292258255306875 -0.1690250931538831 0.7135340919819582 -0.37904822598668264
Ni 8.864007003461813 3.924944479274228 11.040477239420424 0.6482221581480256 -0.5665703495034887 0.32792981004431265
Ni 7.917209568894723 7.212367875105527 2.1883942774443064 0.5109033949584879 -0.331959500028996 -0.09036759125097985
Ni 5.927595957240511 8.071319557975078 7.525900297300857 -1.3782683888523939 0.4421179007536579 2.0502645094915657
Ni -0.005014065004592636 8.875256448879622 9.870330127876441 -0.16060010231498148 -0.3793583010279338 0.6198950290685582
Ni 8.660414280830313 7.781919698136911 5.195630497650273 -0.253062371311461 -0.8506065434886447 -3.0271114468683997
Ni 1.2018003080865596 0.7482002440811748 3.1360914823162314 0.07038806280525942 -2.987393559453487 -2.451914017817532
Ni 3.387908557372239 0.8703095455125552 6.843388845330303 0.33890147856446795 -0.32984913855421255 -2.3261963292020327
Ni 6.526448230363417 8.923312152287156 11.37512785445528 1.1121386428340136 0.4931005624491121 0.35992024690798013
Ni 4.8852060359105725 9.271804033072076 9.669200422207094 0.0863237601989094 -2.9810411348728985 -0.7677514585646261
P 7.233189542200925 6.107772412515505 8.019014269997028 -0.906572260220987 -1.246361540707047 0.14424377244414513
Ni 1.146896713275598 5.697278851919591 4.280537224988032 -1.7135548963720941 -0.1929093559706484 0.05575437205248462
P 5.214803666936917 5.209132612080493 13.519065509711389 0.8347572351612139 0.07367418975569892 0.16751996936326632
Ni 3.949963838934919 7.126922128649514 0.8409896359190762 -0.7240131371364111 -0.9722127810389322 -0.946869160067821
P 9.010425856053883 0.6603878515298505 7.302840659567438 -1.9549310895948782 2.01447115394204 -0.24769699323448954
P 3.154403800301956 8.230767010449714 9.131439865517894 0.00879317281159776 -1.1589939126246553 0.20610014362930956
P 6.100952320400591 1.6159911740545538 12.092142856683829 -0.5081039778364798 -0.6353507015019961 1.447675575801623
Ni 5.098686038822798 2.3955202896456664 4.670672439963747 1.279488662278319 0.5236761212431239 -0.444123361219461
Ni 0.043498473377487995 6.8739022710438915 0.13688184334659306 -0.7144607175612856 0.008376654099469446 1.0800260785701852
Ni 6.341138173143228 6.609855362328558 5.893426925087611 -0.16321260023716405 0.7715839449368389 -2.4280063579619995
Ni 3.713262163685771 2.7915211544973872 11.072742020310264 -1.3830408705403732 -1.6536808457242809 1.7820933075631242
Ni 8.36917966795036 2.9419431046351665 6.417828997003901 -0.09675292595203337 -1.1531788486047754 -0.6464609524825446
Ni 3.549857945812944 8.452132744869811 4.216441332109142 0.5731202348068646 0.5761387099182143 -1.0858555407677688
Ni 6.023568367613023 3.6287337937506496 11.797649240547333 1.2601010017803267 1.0866338136946898 0.40801967351836826
Ni 5.910026806901004 5.816936256104224 1.9259226617446452 -0.43200626624095273 -0.40243266634889396 -0.5209204128748577
Ni 7.381183687808666 0.21217899620986944 5.797975288053221 1.62507835149624 -0.8961094130164502 -1.0696647899405192
Ni 1.4450811482835197 9.120566637137948 8.069561716298177 1.4962637691229717 -0.8502409326191098 -0.15273329797239502
Ni 9.226278064919121 6.397042542340618 9.13364990895459 0.22252409351328775 0.7880449187063396 -0.2113109984062877
Ni 2.200962335780527 8.623413427821003 13.127994385355775 -0.34817004835058746 0.7760262969789087 -0.4032073397313895
Ni 3.150558232057813 6.103889778553347 3.1497891184089846 0.4499703069185411 0.5048543605509305 -1.6712142266223542
Ni 7.193130767455306 0.15766829800987564 9.026060175912964 1.4615009117204896 -0.23114525952339549 -0.7421669252273024
Ni 6.1492118852572135 6.7594803995289965 11.228925836313604 1.7983059127672447 -2.107941295377744 1.0543772676538292
Ni 0.9139414554749002 4.27100855552911 13.01390795858892 0.3924344174856016 2.1017464794209415 -0.2609970527775053
Ni 1.967300049408677 7.013732692258645 10.62095261662995 -0.8086538532059429 1.3010213941437723 -1.114608444530745
Ni 2.084779842659879 2.719372734379556 1.8234183452147927 -1.3088182644803716 -0.6780454121570452 0.7529745573657677
Ni 9.440545714339184 2.2814968745994415 13.112398057857659 -1.3364031160771759 -2.2836977937181895 0.7359034608160939
Ni 3.6613886913226037 0.681244731057363 1.706767897404195 -0.36738647337803826 0.1758112628377811 0.5302391191726222
Ni 2.4552331613691827 6.107624149643441 8.36615603200322 -1.6270069359775206 2.7049756177980444 0.14247768168265787
Ni 3.6603323183591523 5.926734179296644 5.408260768976987 -1.1150198210365507 1.820378576296568 1.5119516121718735
Ni 8.096931969124023 -0.00058749163055105 3.5146167877664345 0.5810641722442896 0.2126384589684596 -0.5051304970304527
Ni 1.4798580582118808 2.120566793404172 9.203198168953609 -0.8888571023294111 -0.11582125543739409 1.7295841819208149
Ni 6.554293851022814 3.6453485018512493 2.6316798787688334 0.23628000964679952 -1.1200062185075483 0.3466613250155449
P 7.28463675880691 5.803953988369176 3.8793629125442495 -0.45571569404275064 0.5619295082973678 -0.0782479251693104
Ni 4.205105708896948 4.99956304241894 11.66869853421318 -1.4755507049453362 2.5903370698148422 1.216921381069059
P 1.8616164209160155 4.39536403947225 6.5280235233790895 -0.31825012086270354 0.9335840129231405 0.15390340702109623
Ni 3.310237345270048 7.763006915519329 6.915445527796044 0.7407731302035693 0.7317189904211011 -0.06192861918399657
P 5.090123857961139 8.554915980927731 5.6253398531085494 0.4897969519971758 0.25182927023530827 0.44123678370028524
P 5.322016256297732 8.552136052076543 1.4778759689409837 1.2857472415935212 1.1030770468523778 0.15382627392625767
P 5.695851821775982 3.195917404479696 8.013982598776376 0.03486364464640447 -0.6368650812639935 -0.2399608009324964
Ni 7.916727714560518 2.7154993668469016 8.902534037410428 -0.04962537633661131 -1.2846498947642844 -1.0856447103085434
