# total energy = -381173.2632469302 ev
CRYSTAL
PRIMVEC
9.12934438142777 0.00000000000000 0.00000000000000
0.00000000000000 9.12934438142777 0.00000000000000
0.00000000000000 0.00000000000000 13.36171831049009
PRIMCOORD
 96 1
Ni 2.645894028587982 3.5126887772391058 2.423401859367042 -0.7958870404585776 1.3572051404241916 0.7764273890720693
Ni 7.145537987584882 2.1700999781229746 3.9570459297096727 -0.3412152142993091 -0.03125021626353327 0.004112479506476789
Ni 6.0623686435028805 0.43439155994821155 2.8490119027824083 -0.22847568311103233 -0.7600983128947425 -1.4816771295580482
Ni 7.857855096926023 9.04535459064661 4.214673294406555 0.576980231982903 -0.6229512993963787 1.5810726353392512
Ni 8.73439085622331 0.1853174781701601 6.570290683345566 0.3406925090266197 0.3532155811942949 0.19820942802732316
Ni 6.48109516111955 8.792718238621012 7.250028813687734 0.7305460531589224 0.7561604112929171 0.6090202911375834
Ni 4.730735057859475 4.423605648151629 7.238296692992901 1.208402030744138 0.928422523326859 -1.6720007270793915
Ni 1.7017098260966173 7.528970459130258 2.7424797552358062 -0.35425970618809316 0.2670383738755788 -0.7837028396875599
Ni 0.5453770017714764 2.4361929840309045 11.942302855847839 0.5610378497210338 1.0410517541895168 -0.7532681773467865
Ni 0.1729472162905414 2.4365398991242073 3.250665633136293 0.2076888282726681 1.246613251706537 -0.714307736923189
Ni 8.254424695294107 6.320336532751872 10.748407343328092 0.4466641253634437 0.13298953968656452 -2.694806904795159
Ni 7.65849759975611 7.751014377533274 8.944695350455845 0.7246839379511907 0.34695597343782825 0.32260736939013474
Ni 8.957064699401007 6.674902016796617 4.564576422184198 -0.18999655319922765 1.2197825046669382 0.43464550363601273
Ni 0.4299903029355442 6.362778855614121 12.471667900194472 2.8976188645915 0.20829046641240898 3.1198848193473943
Ni 7.042997189480177 6.157003429218103 2.1935395702823257 -0.3874050825918102 -1.2091005994730595 2.26567204656473
Ni 1.54082338690509 8.257063075872122 11.018954556447142 0.6416257358774305 -0.7228805661938648 -0.8045532007740079
Ni 2.1231203710141053 4.468567670112605 8.753421887894346 -1.1365278703116555 -0.5463964456587751 -0.7612545379863729
Ni 1.0795176062577612 6.895649568272026 9.113814632572126 -1.218712925751843 -0.2988650314678724 -1.4881773925704112
Ni 7.382745747303062 5.631792236646546 0.013184599414424542 0.1724361757179611 -0.82338036078284 -0.6215734452122456
Ni 3.0507622011616555 6.000754697063362 7.188591063598236 -1.4053901847698507 0.3631413249484391 0.28374385955571774
Ni 8.642923953070618 6.914638604958082 7.026406431610191 0.6584698040179627 -0.4236730637849091 0.41739211587220376
Ni 6.300032870449089 3.000623840834818 7.964853753979672 0.8921843669304312 -1.4279683271806827 0.08873108408882138
Ni 0.28029187550303736 3.6174753941057203 0.9115970070822884 -0.7511542163275774 -0.2041489334402097 -0.16887082696420594
Ni 4.226941307627094 5.194770512530424 9.283574794676559 0.426172176057679 0.3462854297333649 1.6096486472047309
P 7.68493618160362 3.910417802366387 2.616077589253049 -0.2554434699491278 0.2852641528549862 0.23032482050462913
Ni 8.282442653750602 1.2596395744384814 13.380959747775208 -1.5166680438109363 -0.1293408871903837 -0.6264161180165276
P 7.3492410527656435 8.487706836851226 0.6409174184671111 -2.0627050492477634 -0.3216735447219557 2.6765340746279
Ni 0.8919177919474501 1.9501192915906564 5.38979613570633 0.7259697466421497 -0.0893995709107557 -1.2496849486533252
P 2.0708366147155255 5.774483892128789 1.4484773278712104 -0.5794150666766409 -1.6002646348866698 0.06674789494951086
P 4.234326947376623 6.202111520692048 11.288620787816091 0.0073554119238066875 -0.5638660631984482 0.4145106805593507
P 1.8983924253102733 4.069122328207929 4.730288632910461 -1.8020296414757353 0.015115001264567517 -1.1836407646390583
Ni 2.94475225212392 0.792005332141742 9.663287971247946 0.725116654613235 -0.6160908248311197 0.43411637060542013
Ni 5.426591958957846 0.5919037933901394 9.056586423259523 -0.8861684997536544 0.3895223860451292 1.2228886543960875
Ni 5.155797340601204 7.408152713215223 1.5060798403107984 0.3437930023288143 3.126531892350267 -0.35925510252015547
Ni 1.7248070678349454 5.416157118125075 10.779071898772706 0.6115296878229983 0.1611346346622128 1.179095568470537
Ni 8.949222592423448 6.93379196984623 1.480518588475563 1.0739310214160407 0.9561104761604309 -1.3770813105228283
Ni 1.2823168663270221 8.661575204007933 13.199026517633664 -0.7653364213652304 -0.2698958979290319 1.8461708547693239
Ni 4.104745030683407 2.3513813730628916 1.0285877317575187 0.4787720616415818 1.3445640546214135 -2.1141098860823013
Ni 3.3134408322039195 7.319789787213135 9.298820800092768 0.012437711542720517 1.2516811531477476 0.12345383228198736
Ni 6.4653470417525085 5.245675737800352 11.212178959941241 -2.7489720779836526 -1.033278538002001 1.5822509719180686
Ni 4.436258919712626 6.9216225535469444 5.687548795615979 -0.04439600961687193 0.17014146614651346 -2.547340768758974
Ni 5.703968834742682 0.8390378894490625 13.065075296633744 -0.6246621114398984 0.27577652507952505 0.9691984196926404
Ni 6.658432679209287 5.079859452546099 8.990552961118217 -0.918478781850586 1.3048896188499268 0.08650476586146393
Ni 6.40885465761149 5.422474624561012 4.663186124521109 0.388508342958318 -1.3393796822069963 -1.1070550576635192
Ni 4.151222523841443 8.41644317321115 11.720805785184004 -2.558653879778948 1.3426848353208294 -1.0901978768968643
Ni 9.016405439044934 2.646797833699482 7.338509508234654 -0.5670141219091268 -0.03846755994757891 0.45426122098441124
Ni 6.659108250706772 2.9128908396074116 0.9983979022300568 -0.2166889748887494 0.2641901057935063 -0.35744633144619087
Ni 5.071442196861222 5.34823479459418 1.0849139618275343 0.8847726478473924 -2.9990211163900864 -1.816775689436658
Ni 7.134400187220946 2.9068106961300493 11.74648754436744 0.18657698599471736 0.21378182854428346 0.9877283601760279
Ni 4.913979261879922 1.374687574591215 6.827771065595022 -1.373761502120976 0.2643867951853447 1.1884399857999144
Ni 5.5087012839359195 6.8050316941634685 7.629741990259119 -0.11427139445177094 -1.2083320967381512 1.7427801117857984
Ni 3.740885873875967 8.230113250729218 3.4798194850831066 0.7972466398102657 0.3924326177133886 -0.09728540141673568
Ni 6.856375127972306 7.2891060601449436 5.67922465924562 0.5114914062514739 0.17853663218874413 -0.9512153528516585
Ni 6.16239887185342 3.3952306301223723 5.57775564619233 -0.5899352494816743 -0.8716384244582795 0.5817311164043271
Ni 2.829339078188762 3.3586036997452284 6.54086863169565 -0.6624020491928334 0.36474723598297826 -1.19443734103393
Ni 0.7105989666948346 9.267380250360505 8.893145593459938 0.3508612220295054 -0.6408834583947672 -0.2580240861921105
P 7.118679455887585 1.5953255739318968 6.494423091243577 0.4658530395870687 0.5187228910029066 -0.7477184511731509
Ni 5.317185893743565 3.712265378678473 3.110941927570702 0.8502157358081294 -0.26238801958776103 -1.2878946269538272
P 8.745583432654612 5.292098454891025 8.713564082477205 1.369454647215506 0.1802441017981541 -0.7228628255820518
Ni 8.598920512288506 4.3090232445714856 5.125461441560772 0.2109541292875012 -1.5696852194379158 -2.5361950365548
P 9.078329783199512 0.5682286641411247 10.95842608907588 -0.49064670159198076 0.6319617304251052 -0.84935364491815
P 8.90770233336182 4.5092023827518535 11.946913174850943 -1.100392815151995 -1.900094858481289 0.06514841167287491
P 4.07728396224511 1.1260407461386 2.5715163455182837 0.49573337208626883 -0.7727041745842111 2.1461810555852328
Ni 7.427835580087884 4.884281504024275 6.885587204697328 -0.3271325109539979 0.5945398381332213 0.2855575157256889
Ni 6.8570141820915484 0.38756167409013637 11.12367087736064 -0.0009173696079468071 0.3374562614775091 -1.5583577102402386
Ni 3.0185538735518445 3.450371871268421 10.615270459862977 1.1123618145884133 -1.0396821275354997 1.1828177545171308
Ni 1.5160554751121706 8.001596627032736 6.496454370408312 0.7144190656900729 -0.45780163003750185 0.14314334029111478
Ni 2.776361491703576 6.735886038461453 13.04444480379569 0.964952757042409 -0.2585714740551482 -0.6350779074565838
Ni 8.7003749183905 0.2536086272213035 2.1244066956626946 0.6390528329439317 -0.20142536386145954 -0.1460854536385742
Ni 3.45201515328933 8.988926111917516 0.7102858301764058 0.5368501967312367 -0.204949317854318 1.0342684127190962
Ni 2.0705353463450256 1.4064303056284357 7.27510803613017 -0.2737944616524897 -1.6289023532280205 1.58770402461284
Ni 3.964901730704072 4.495608788701114 4.770160132344444 0.4677016627600332 0.43583412462747523 1.0717309284409284
Ni 5.423095419991134 9.097729640390797 5.1681520825950695 1.1266833734174082 -0.5432941525843675 -1.9362916201168203
Ni 5.648918887042239 7.372968219278654 9.969498968892992 0.05134390168961479 -0.35484000417159534 0.4151367441791238
Ni 8.158867845778264 3.3148832686444947 9.569128824384329 0.1898903666386665 1.1779105470235005 0.920906417455472
Ni 5.909589062281169 7.467529970237392 12.36979810891497 2.1989184951882645 -1.5294114595195338 1.7532007928984903
Ni 2.323034758202216 3.9081354662262355 12.906231091820423 -0.5374068405656551 0.5764917223822589 0.6146355804418318
Ni 5.4146964229953785 3.261723095268097 10.064915226502604 0.2672366059293139 -0.35333488038097854 1.0390774040719655
Ni 7.788563371711038 1.1750379383953624 8.847675979941393 -0.4311243778566317 -0.9023003723185105 0.3201943890732679
Ni 3.860434640897079 5.771069517263122 2.8094882313761844 -1.5049535835874857 0.5751210672869773 0.9343041789186167
Ni 3.788933614298427 2.6345006065763483 8.378599301204078 0.1575890834027996 -0.2805076120066072 2.24469235898927
Ni 3.106451202981341 0.27738874393276525 5.447291834814559 -1.1819214679551064 -0.41825883474787323 0.1345705110204392
Ni 2.29076252518048 6.376144216050846 4.691286247078647 -0.41671771551299847 -0.6745836788606898 0.8118854727693631
Ni 4.354706484752749 2.061342096372497 4.761902640189376 -0.28898042536430874 0.9579770970555244 -2.4519096469421577
Ni 8.225849846819417 8.063877015625177 12.259537537049818 0.6672979438325539 0.5944681043550213 -1.3406670335598525
Ni 0.41163666863090564 5.090440362891838 2.979409069944886 0.7296628792230208 -0.45940342730698297 -0.4328277337009836
Ni 1.235821114479865 2.3887660390385657 9.699097825286914 -0.5819355191056494 -0.4526234282706721 -1.423819852229948
Ni 1.9391823368070527 1.1734494324418177 2.5005384303629548 0.5151917379211965 -1.1869759996598783 0.17234361600415482
P 3.839236302827356 8.30553989548893 7.341996917856804 -0.2539974815312206 0.5998910751428056 0.1480055534794225
Ni 4.585523703278504 4.050662793506388 12.680725325960028 1.1795439688618654 -0.014863547375393756 -1.5993907169221486
P 4.736322216730564 1.4470467595785639 11.055565966938532 -0.22528931496325072 0.0754294818839088 0.11860524594043444
Ni 2.78291636109809 1.243042426027303 12.30441922077866 0.1569175112570717 1.2954531560273752 -0.8498681226607234
P 5.587870959965478 7.018092337518849 3.651904891247127 -0.2780650640033856 1.776361804395986 -0.09160583453345514
P 0.9331011781947914 9.033312985171174 4.0843035152777585 -0.4730878667726111 0.3019156453687381 1.5380426528319704
P 1.2036036575254931 1.565472617218721 0.5230082817290841 0.6732179088614149 1.1227218176664988 0.47747391165544867
Ni 0.8898709928969626 4.709144157973645 6.807889179010938 0.13778233308951754 1.6377034964594182 0.22655326927733888
