# total energy = -340858.29479746515 ev
CRYSTAL
PRIMVEC
9.36264553377114 0.00000000000000 0.00000000000000

0.00000000000000 9.36264553377114 0.00000000000000

0.00000000000000 0.00000000000000 13.70317812938986

PRIMCOORD
 96 1
Ni 0.4290657032434443 2.9331857776423207 0.3107967645000029 -1.519180525820145 0.15883375444317804 -0.7846019544630617
Ni 8.076845359324604 3.6589312484068763 12.280514051839374 1.7797240359999995 -1.8382510857016148 0.6718907054095589
Ni 6.55696029196262 5.851316421220403 1.94110955494697 -0.6436221974821689 -0.14743322591572025 0.12522172281568755
Ni 2.789993476411938 2.491428072074572 11.414309236084081 -0.8590575024694754 -0.9935002296627988 -0.4450024213903046
Ni 0.6713747154549518 7.051233076489519 8.234514183123473 1.4113682567301564 0.007811011403986548 -1.436549126871158
Ni 7.860586972125743 3.885666435989992 0.8944416185067441 -1.337449297953503 0.28211249459988186 0.2940069320446227
Ni 7.4474134234598095 9.356035534570026 6.788746626826618 0.5838928999423363 -0.02079919613353837 0.504147564291893
Ni 5.728890467847284 9.086101100362287 5.332016348840824 -0.0015850850989327539 -0.559288985350727 0.11912075212427227
Ni 7.040072802979212 3.5475438541517526 2.9143921392050416 -0.5764513560626265 0.04658864639281654 1.986356140873379
Ni 6.266231421960931 7.505312023617302 0.1154648263975215 -0.11043428009386787 1.539543148636897 0.056743475438631306
Ni 6.822419381591564 4.8134671606353425 7.850468761066526 -1.3426632380542747 -0.9291622297063611 0.11144086698151129
Ni 3.7177567504750395 3.0451630185678713 13.487818770721729 1.1954156457867993 -0.9436658226391749 -1.1547184251777534
Ni 6.052444773190527 6.08390326227998 9.672127811400088 -1.4117446662329687 -0.4952795723783019 1.4081885734505941
Ni 7.940534602582539 7.850306787298297 4.7028212879087565 -0.008095632523940896 1.3346995031225077 -0.887205168548285
Ni 7.825336611583544 0.6305554533322748 3.7059972676487445 -1.1791091953172919 0.8462017295527298 0.2451747410332681
Ni 7.764292162517107 6.700274307585315 6.537827725755985 -0.8725725062367747 1.0176508587670732 3.1542455562154514
Ni 1.5588149476101802 8.973964694462175 13.280914602704199 1.100682578478272 -1.2192898813012356 -1.1675094062948346
Ni 1.6160207119960595 5.452411544391472 9.973254835563308 -0.6372324919057414 0.8033620086793841 0.24265017483920143
Ni 8.20162133673387 2.6873882436942864 10.000648063949594 1.1920158760766308 -1.2204255375675757 -0.860952148389027
Ni 3.565005188125511 6.815799991178991 8.609583636879806 0.3517135427274717 0.06003114505096758 -0.7745031754661629
Ni 9.248421286476525 7.219133399358908 10.6343924343604 1.0106697994635496 -1.0930356034559756 -0.7966755977981441
Ni 4.746159101687701 3.008480173254635 6.990319704460953 0.8300325759920351 -0.5365866586572049 0.7575230959683985
Ni 5.809062801797576 6.495204281833447 4.618231657782154 0.19407098037891737 -0.03744426088938712 -1.0489931205237806
Ni 4.094612597004668 0.3743906619530647 1.8842146303937601 1.2424323808559699 -0.6681448652138816 -0.8156426258189502
P 3.4938678071428737 0.7404672946467742 13.410107876289775 -0.29236014046981906 1.3234573545497852 -0.9801716308746926
P 3.123481548696821 4.678111393740637 8.78561448115553 0.8393867635134254 -1.249620413963977 -0.6870974950569844
P 6.418243335311036 2.7565594691088324 8.42471351892868 -1.8204140575201941 -0.13859608724006453 1.6288452747378401
P 4.633844805521907 7.376041976338114 1.9107165349225113 0.9460186391420675 -0.8199438242974654 0.8920131314598896
P 4.957857880497705 4.13139843141909 3.6686281404157883 0.6047484032351068 1.2153450377208748 0.6373361073631411
P 0.6849374438165531 3.286503933228233 11.276276688823105 0.7667870377688278 0.34739331808556295 -0.9813031733759744
P 4.16986017938917 0.374888754696981 4.149212737130549 -1.191558219713922 -1.801931168224658 1.1473776685419659
P 1.0346472358027412 3.186239361901166 5.800048446650159 -0.28461726329960657 1.0886050784884478 0.20791405690959677
Ni 2.4800711830074578 1.2837404209887182 3.4252330613190503 -1.6561521900829093 -1.5210782570634902 -0.05343112323594669
Ni 5.4336956159123595 2.4342972088531916 1.152946135011982 1.6566268157264825 1.1648166899540198 0.7844461456114877
Ni 8.131907077876708 4.981723264036102 10.391832503247821 0.3706713147768971 1.5904170526686285 -0.6884396109071756
Ni 3.68198208178135 7.628927032976838 4.657614690075568 0.8632314313415068 -1.6008302775821528 -0.7840972469125013
Ni 8.210337959752405 2.2585041757747515 7.5326921442998005 -1.0463461698192367 0.6973523400157733 -0.5208401944562255
Ni 4.813345446243033 5.387977817631468 6.3641263076961705 -0.8147543096767258 -0.02362303873557867 0.7879425888005204
Ni 4.224725282384465 0.061741029896275355 7.628148060866051 0.9040932025528753 -1.2444535250510569 -0.01724721711622191
Ni 6.736957152898551 0.5484525418670287 9.15229781328168 -0.2277444613719626 2.31895353159669 -0.4607254885525162
Ni 6.814114714977769 8.179890636383686 2.7114343262920366 -1.8129174920328326 -0.9922126211996267 -1.041603770038245
Ni 1.7300483722997622 8.816073039698924 8.928524966754486 1.3777793650311174 0.5578445395947166 -1.0042181303009352
Ni 0.19003361697875482 1.4293389221286212 12.47915568514814 0.14380745623767494 -0.1609752262662131 -2.6170341194900537
Ni 5.16800246014436 1.968917548531667 3.4165314185334137 1.3341431163984054 1.1418703655704914 0.7743931322508598
Ni 4.510042543251124 7.190970561507398 11.691757193355597 0.18550946396215148 0.14446617286759636 -1.2911056776919572
Ni 2.052731951605708 6.402120859652691 0.3158310590188715 -0.36827324685836577 3.693159834564568 -0.14933429959317504
Ni 3.095824293705677 2.188078355854852 5.491068971653806 0.012219939104959601 -0.15321563692545226 0.32215356968216774
Ni 7.341624891250963 5.706148601776367 13.023815419297867 1.3771530443010283 1.5657259776798518 -0.21359773755793537
Ni 1.086057522585534 5.382182340028381 12.29932828809689 -1.765286520418431 -1.813233994831987 -1.0609585204157728
Ni 5.282666780346301 0.6262374011989248 11.059670947473881 -1.0939509161813934 -0.4614518251955795 -1.8281641337792578
Ni 2.0593045287904688 4.234930566047413 0.5177908139149312 0.15675990263328488 0.3316468538845837 -0.20188816243049104
Ni 8.984301055162996 0.1977109863398712 0.5195200945502949 -2.093687099451575 2.6746507415622585 1.4216081892906098
Ni 1.813741060981493 5.857102536177927 2.541090352930877 -0.6095684503315696 -0.17455913559823485 -1.967057183434451
Ni 3.6630227245176172 4.208855598156305 1.9533877283374186 1.5300562921923844 -0.2502840372353754 1.8827157437728932
Ni 1.841913261478565 1.4189838361366764 1.12706591014857 0.6599404750262182 -0.8746702693060678 -0.5977555168570415
Ni 8.955258128628627 2.0676560086320737 2.2344946074946943 0.37234690270710713 0.050721180503951364 0.4274978368476379
P 7.051897824324444 7.427377361956408 11.457227603341835 -0.47471537507370504 -0.47899163385155574 -0.29452578066257024
P 8.996107351217104 9.530798676636609 8.555223180480322 -1.1747676305191443 -0.781445411111951 0.4158391695627871
P 6.026763036413038 4.156031551893599 13.169686373423636 -2.343805557643363 -1.4978992478438653 0.5067677755235596
P 2.7903398942977446 1.5784390527088386 7.902225465735125 -0.05505220377913744 0.569306260377413 0.008756920257023628
P 1.8872846418736504 3.024321769546109 2.567235540663703 -1.3671445110250906 2.828832856166038 -0.28447328152257456
P 6.7686777960637485 1.831932681309114 5.530945415368355 0.16131152655970926 -0.8505047278034578 -0.049815637970546466
P 1.9540403047331134 7.275178195695058 11.706625074508587 0.08128799754721484 0.04332026005418991 0.1813990413382037
P 6.816268123457108 0.5837300540813585 1.5241909480561016 0.5200806905823817 0.9980500538170102 -0.4883427360491525
Ni 8.730264393120105 7.786519083082095 12.891580222169088 0.24676548255915567 -0.9798780108936738 0.07696314491961583
Ni 1.1172070443714293 1.6272465240253016 9.496658725858103 0.17132597337291786 0.38840961259692464 1.1219885390449
Ni 3.9250925364529934 8.00479980172242 13.741547401725619 -0.8820989576699712 1.191362044542716 -0.18553208966997078
Ni 8.398742476403314 -0.04243244595306768 10.932134862152836 0.053101507810669836 0.16752536867990503 -1.0518161917948723
Ni 6.279198686064768 3.4449854346619126 10.916458984687816 -2.7324555683858684 0.5193278715767572 0.10345090679749924
Ni 9.017678886592728 7.784131608463699 1.6687314702474607 0.031078209462043246 -2.514811171562385 1.4021030293781467
Ni 2.0588457591579146 8.373772300688561 1.8170554375105603 -0.061098152862901225 -0.34546216250112116 1.34524102608378
Ni 4.372243125864648 2.909442108496234 9.59180005753346 -0.6905713125381977 0.20719903312044313 -0.8027765684895595
Ni 0.6650755275206114 3.6485948877060563 8.470948135244612 0.7148306993061947 1.0837976297974754 -0.2898353171654363
Ni 3.538939582879965 4.688784809681701 11.543954725450318 0.48636478638717523 0.5945560360831373 -0.31599140673551385
Ni 2.555309402746398 -0.009871037216371937 10.986934426629196 -0.6863791288337212 0.6379212904426498 2.5432586282698004
Ni 0.30459213928584206 1.5230964547898642 4.7278570021424455 0.6541999729980154 -0.45397917096761814 -0.8321910170959345
Ni 5.723188616699821 0.9441198158605044 13.164725107540152 0.33335612326620656 -0.8117227219392537 1.7709128654662727
Ni 8.855901733921106 4.57777192124907 6.586885179708963 0.9043333435881392 -0.5003580153424737 -1.452934253097401
Ni 0.5316465930826338 6.888491571324976 4.039573348801913 0.47573198926367743 0.34013689363346583 1.3579024236015325
Ni 6.737706164543537 4.064193361572635 5.552239816435334 -1.5709144638593269 -1.7646627707915026 -0.4067773164708349
Ni 2.761765100041492 4.234041114718991 6.476039882631898 -0.6613237285269901 1.490984523001903 1.5608725062422926
Ni 4.24974227132703 5.68260154818709 0.13058643524525204 1.5258155146381593 -0.9313286412300605 -0.3023563324505825
Ni 7.273240128063653 7.782390156389104 8.991217241439895 1.5288339897495091 -0.6115433146697532 -0.5686298031356787
Ni 0.34182176309991913 8.602061687435025 6.391326665583873 -0.6778934599602132 -2.7650481576099093 -0.7208005437363844
Ni 2.477327927857693 9.246071262440378 5.573575413142788 -0.7362934971656611 1.128512970426979 0.8340167574507636
Ni 0.697600421939614 1.2599124880325703 6.966900919115879 3.182228671691939 1.7365714118719253 1.086984255055573
Ni 2.9362192748045177 5.251910489674024 4.292273961323058 1.3952561816596423 -0.6569795926256814 1.3808711165825636
Ni 0.2477693071034624 4.253487329551965 3.718727656819854 -0.2562420545910232 -0.542195263093234 0.518867644110887
P 8.620824429141948 5.723722287496874 8.406433889732773 -0.7983887238345089 -1.5684755154005312 1.4192666856416267
P 0.5709893660001303 9.061458617242216 3.3883713894755725 -0.48646968739615576 -0.421865578262525 -0.09950734876871896
P 5.420147867783658 7.350032546965942 6.948949918779211 0.5581340458106775 1.0005638213777994 -0.07114808089973554
P 2.024372498197389 7.130412970010202 6.162798531375569 -0.12840474852935949 -0.11832268170300912 -0.18547783939326767
P 7.261124864705989 1.5732146964850546 11.665693460639163 -0.6172107973681757 0.09017424429325115 0.7876690234241597
P 4.025432008944559 8.597118210578111 9.801444671907086 1.5269493711322863 -0.02165820169972399 -0.9639649392078431
P 0.11189110458637745 5.246264814399934 0.7159072028076515 -0.40852618084114156 1.5615965288925107 0.2267191054312418
P 7.758318794648336 5.6390746089677855 4.7492197505220295 2.842300294524853 0.01870914637372907 -2.5554829382501345
