# total energy = -340860.8297211409 ev
CRYSTAL
PRIMVEC
9.38782972479997 0.00000000000000 0.00000000000000

0.00000000000000 9.38782972479997 0.00000000000000

0.00000000000000 0.00000000000000 13.74003773861629

PRIMCOORD
 96 1
Ni 4.979577085389043 6.87159088216905 12.248157690808153 -0.8093915027029157 -1.2328293105485673 -1.5922168248815287
Ni 7.594585193668142 0.4635804151990113 3.925886148389417 0.5060671499121091 0.5643316899809572 -0.7454347973452968
Ni 1.513872019087855 9.251030181420612 8.144311149945517 0.8675498562112026 -1.0824218324958712 0.5055778689805164
Ni 0.6795249051578371 6.049874154229773 11.366528772922164 1.2947201345160928 -0.4730431295776047 1.3689041740286747
Ni 5.399860830312081 4.212910590428584 10.997622742024788 -1.0623710844925833 -0.10274873852415209 0.21631256538593716
Ni 7.455363680183171 4.123219266097133 9.791219041571935 0.9535571136109577 -0.31408236263825906 0.5823432960670294
Ni 5.953273387287067 3.5730267346869056 1.444600162995188 0.4181999564854798 -0.47887773398151073 -0.6079031468140046
Ni 2.346178218855254 0.9514659213226745 5.5784830647745585 0.4502981225716052 -0.28013223094505946 4.838391146187493
Ni 5.724961370567276 6.601465472255595 6.29391266315388 1.0421563001076053 0.3392825160529705 -0.06392019569272864
Ni 1.6247047357570095 3.0714913242741564 5.207185953669182 -2.2603058971568104 0.49866340124887026 0.591162437020556
Ni 5.925222552338106 8.025326980804413 3.1550702327303495 1.3881087719815837 0.8815765095075978 -0.36634286260487225
Ni 3.2997470140161376 1.9058608454914254 9.349792965528229 -0.2564220318123132 0.6247636700147692 -0.3102907568063108
Ni 4.056246489482043 6.888479587682163 3.6636023925699597 -1.661114676294507 -1.5227271055208227 -0.03317777230354932
Ni 1.5693447044002413 3.4877946294320137 9.592319095098158 0.6430226162249572 0.7399454920959514 0.7365539499158993
Ni 8.908186643155533 0.5759076743460356 6.704630209678997 -0.5399969698903345 -0.32950563917186476 -1.3145803637751297
Ni 6.279087402594509 7.813105704078773 10.167257006642915 -0.32544998104525236 1.581638020924418 0.04027581680091129
Ni 2.5189142841366743 1.0244656845633442 12.211609931256682 0.15361390080513546 1.9220178838066255 -1.9896862336878764
Ni 1.9705148281867046 5.900513784739154 4.8961803008277665 1.1535508872322133 -0.08580748268412318 0.5619127961268194
Ni 4.307136236473672 2.141373327541153 2.4391862633967003 1.135141274376774 -2.5332873759897017 -1.8657009543824514
Ni 3.197175587425659 5.174853329623762 12.291521953457497 0.3280079715804157 -0.07985280776258505 -0.9352955962976085
Ni 0.9124904690276272 4.268571032333667 12.591878991144092 -0.823202440444079 -1.2030937311573473 1.0151340058824905
Ni 1.0616133264284844 2.072795232058502 7.7317113435786124 0.9024579809422973 0.6508971338770274 -0.5000481974115388
Ni 3.029518337976698 0.6692630685839719 0.780226276085051 1.1078140473167306 1.6576382877101323 -0.5885378549135155
Ni 6.102455388014623 4.33234255904327 7.515663587493804 -0.12405932707647022 0.2900019246502876 0.39344537524861917
P 6.71428840880734 5.953808493576253 9.227300564452577 -0.13131523730793515 -0.0114195546908513 -1.3693458895517838
P 8.10755498057615 4.105466880257613 12.458229154547412 -0.4102120531839967 0.3941076914229664 0.14829197437158978
P 4.5018773744192035 0.8594473540247423 4.771969926928937 0.6629103562878197 0.5240057366684008 0.04384913597446642
P 2.0133327191513004 2.5310621356841825 1.5050972147281514 -0.4285111086035007 -0.5890191654253082 1.92996516367816
P 4.85024095650958 5.008801399042362 13.838141538660635 -0.5128656608911812 0.8706362084460103 -0.4908665309122708
P 3.685549260690335 4.333469098599453 8.476765177153698 1.3843693595438094 -1.2935428263785398 0.6109866708353348
P 8.789768560141411 0.25178159080693957 0.726323235887613 0.1165571051621541 -0.5372831705035973 1.3608766757385078
P 8.042450382058398 7.805510949904172 7.066378020479793 -1.7556505399905635 0.7527393014265101 -0.7213178496924352
Ni 1.4888628409405884 8.492897223598241 1.4007007940566565 -0.5805358105446453 -1.070376471295563 1.656584135414005
Ni 3.8635331227376417 8.22678041693887 5.539708512033696 -0.380728441902583 0.3251064816629046 0.6051186420903321
Ni 1.5713161486235618 8.002223532073025 3.818425540125104 -0.7329757456463377 -1.1724178993400456 0.11562019517018152
Ni 9.077280230538628 1.607149494339822 12.921859325243487 1.3999713277471244 0.6883671057980274 0.12475918135697224
Ni 0.334076244169084 1.7996751044915265 2.966721267983194 1.0662228541385057 -0.3904536396101469 -1.5710175650960945
Ni 8.558959380738749 8.837205263286359 8.85689717472844 2.299061677768769 0.12461802779341763 1.7138256335349773
Ni 1.2174231348782523 4.5728024273105685 1.3987772277644737 0.5133132899515611 0.34558506123223065 -2.953761987441971
Ni 3.534715001947043 2.8631847725062523 4.323398773750139 1.1056975151943602 1.3446992946476972 0.1329291187622743
Ni 8.347404639917183 2.441474077478716 8.489584258520098 -0.2870860365550733 -1.1181385691711905 0.631905423265873
Ni 3.591577086045388 5.828790766328825 6.778289937342996 1.2401556690066513 -0.5684781080491629 -0.6959811706998594
Ni 7.316067064061122 5.9988325245050405 11.276888142870742 -0.036250754801918215 -0.9786001726225148 2.2482996167245535
Ni 4.0500599097526715 2.9191362371300165 6.5122003553895675 0.10024782647916929 -0.3144662283402391 2.0908306038393865
Ni 2.8762244678690725 6.455259413522288 0.5951245616085936 0.15582093575878325 -0.21000076423529637 0.8762352998003425
Ni 3.161623876598445 8.349132000569998 12.78755046300644 1.3695001557414608 -1.7809123998811458 -0.9918189853056337
Ni 3.970704585849201 9.217571956601972 10.389337382051085 -0.2539118637959498 -0.8938165032172155 0.16340748985678955
Ni 6.562825165478512 9.336769229475788 8.132494688784119 -1.8167049840997227 -0.09368097189492898 0.019490247514127725
Ni 1.4227725203111754 8.04461897070405 10.689199681115921 -1.3364884767021306 2.9969130689081482 -0.9061099758725879
Ni 8.388635987673489 9.208550252322873 11.711801881496745 0.05987687886129042 -2.066401010042112 -0.3646243372518688
Ni 3.491446495159974 4.257146043668043 2.2856961876497066 -0.004153617157057363 1.2773021961499613 -0.3774016915221952
Ni 9.475605841945729 4.816313340209197 8.216144005962574 -1.5611545562590856 -0.6231227919772365 1.0829648494835349
Ni 1.9250589570947134 6.630192230938266 8.779196925189597 0.09313127003904606 -0.7794954864744317 0.3068727322636973
Ni 5.427845950453598 5.905780357164311 1.9986257452453289 0.9985928136943576 0.21530546427766145 0.13083058436203274
Ni 0.33375611917853526 6.541787039266792 6.7577493661019234 -0.2472938442587999 0.1592865257098805 -0.06454008866491466
Ni 2.044960317191143 4.195252082885412 7.321653761476828 -1.358867615728279 -0.031018302758385286 -1.6861325384950834
P 7.650668087906795 6.145076134556886 3.293762272623914 -0.4920039869508236 0.2155129523027772 0.3519200023113229
P 4.821561136975083 4.953150344966914 4.8906837265765555 -0.25100471745148384 -0.1814268092523456 0.1295460612226543
P 1.0550230700248129 0.8416208043311071 10.457020817369534 0.1385292385578711 0.35183052792131014 -0.05336581721565002
P 2.040970489596327 5.9121359178271105 2.720444700474136 0.4483080887247698 1.3312737652704105 1.336205655354389
P 2.214354315122553 7.392934613111354 6.791687309014905 0.6963665790637362 2.4633202027719445 -0.45268924851160103
P 0.7130939063661687 6.76113367868529 13.608160365831768 0.25935128964396625 -0.6004369203439466 -0.09897358775243599
P 5.152003352292513 1.8009424614922325 0.21478978691373804 0.0009119702913081067 0.4372047797227567 1.0898307233654327
P 0.5202012320757411 9.947250402801085 4.610840974208057 -1.3350026361852234 -1.597167998239217 0.8349348983896587
Ni 8.897062065038224 2.8886539543056267 1.0649122097621742 -0.9180434940853802 0.7924227360590611 -0.32964113630846453
Ni 8.667848816673487 7.912222409363624 2.3759686186355546 -0.5371564151177458 2.034174803018555 0.47021208788671276
Ni 5.986346711090677 2.3193384139291897 9.502514178028127 -0.7592855871854601 -1.1163118003750967 -0.5517535962056305
Ni 7.090984460735723 4.810577376302297 5.03597071678861 -0.46847247948778675 0.4035099585734728 0.008936383257681384
Ni 6.58971190955275 0.5748046043639395 1.4924020527129305 0.33922955132784804 0.38166483767392334 0.009941170373111912
Ni 8.444014794689526 2.6299065939096216 4.734638283602953 -0.03020763393163185 -0.3220568962033034 1.88544085601354
Ni 4.542714433330843 6.209626851126182 9.057831463884089 0.33813451849145637 -0.8558680489979001 1.6680617970363014
Ni 2.749714075709702 3.1760623585768593 -0.3616126260540547 1.1537935993706387 -0.7018450856798042 1.0581351920343647
Ni 4.994438019701027 7.970830629774054 0.5178852545048213 0.789653143733724 0.8356607208120899 1.6034229780099933
Ni 5.95629626842949 2.6523904458851106 4.963025402959822 -0.8690297831908388 0.015611738395327953 -2.552639298153752
Ni -0.06447749149814401 4.198941499931912 3.1060178841052433 -1.742875242602766 0.20270474479451545 0.03020326305625766
Ni 7.000382516929692 6.163006889159468 13.595011771645181 -2.5267480322092872 -0.7886820380697062 -0.44796844599716396
Ni 1.0804922518241875 8.883243179815711 13.000040231659636 -2.8255580420695083 0.10816219623023952 -0.5603151126223963
Ni 8.820485538706674 6.6602896127476265 9.763862906015952 -0.4024930872731842 0.6489922035448307 -3.035376000870037
Ni 8.458622257601368 7.745241083648373 4.936850256371906 0.0884929999360863 -0.2369073588181533 -0.604926580684184
Ni 7.030996229368969 2.1569946760535594 11.902801969332787 -0.912118643960513 0.8101666903060434 0.298220455905338
Ni 6.309363153166933 8.87626802239701 5.6369607943530635 -0.5115361434464804 0.36348431011015464 0.16587446334004335
Ni 5.259052773618819 0.46656105110807927 12.373219540854866 0.2608366159402411 -1.2466849854847368 -0.24247816803771147
Ni 4.09361943925842 8.176236342184785 8.113615763388417 -0.5306186139992282 0.3162454317278489 -1.2648328600383572
Ni 2.592965484296448 0.598614017883871 3.532219716830097 0.9184127044993409 1.0173734367359704 -3.979997759664578
Ni 8.470695006511798 5.935464674469737 1.2990230888474172 2.387978909726468 -1.639193193631067 0.8705410776290426
Ni 0.05691934985911839 4.84620418976659 5.193143638101359 -0.619696797014823 0.18141986727381015 1.3282270080242866
Ni 9.229569602875323 2.8876119052161577 10.981024120447392 -0.1403441802794228 -0.858415240899786 -1.2701786977313028
Ni 6.577244871797657 1.906752689306737 6.901277077040404 0.211119708331088 0.2172885561459613 0.9350284586791511
P 6.767367197562837 7.95998768654579 12.482741716506993 0.15045350079928282 0.6889456040093166 -0.3247084748935376
P 7.603231384761848 0.9677444179095214 10.193816115462896 -1.1115819989995952 1.293275431649766 -1.9195131151069007
P 3.738196209282629 8.658245066957026 2.2390217762711107 0.6539199798637513 -1.3856489975871813 0.3146942851906451
P 4.490987492042765 0.8180273108927776 8.009136729816134 1.3348445133408042 1.0260077153722007 -0.10002902560014384
P 7.408321265882889 2.641425460871594 2.843582984228665 -0.018690377320651683 -0.6420661658489587 -0.1423403847738452
P 8.434467371950873 3.6266781810501296 6.698955266664724 -0.9608500477279452 0.20395327248963585 -0.037109246147471575
P 3.1175386286331435 3.029537113635968 11.254354535398189 0.4485747121225952 0.9828985428875523 -0.3791631542979922
P 3.0246178909073014 6.839728588388337 10.813561199071874 2.1317317129291222 -0.678768920586631 0.2210217979361484
