# total energy = -381168.6764872221 ev
CRYSTAL
PRIMVEC
9.24558284605733 0.00000000000000 0.00000000000000
0.00000000000000 9.24558284605733 0.00000000000000
0.00000000000000 0.00000000000000 13.53184505303916
PRIMCOORD
 96 1
Ni 8.659320177210168 -0.30878581571712344 3.9873608851960656 0.46695681417420876 0.4942830127929875 -1.5071449348118495
Ni 7.345541385485709 1.93655198791137 7.396790574217484 2.2168812503142723 -0.08441857275639655 -0.08367629527373331
Ni 2.8920367183844533 8.092741631870567 12.557727463404563 0.05443205369663529 0.9405187923697608 -0.9165892781373569
Ni 3.953605263240894 9.028385342153072 8.033071566536005 0.15628064900402117 -0.09075968448307596 1.465059061385393
Ni 1.5345633034443984 3.7346236401216824 10.294837845829289 -0.8479441661651331 -1.1414206796275825 -0.5437042435385927
Ni 6.353490375956833 5.0615404046750365 3.897672262380252 -0.011624728723121916 -0.4409071682750084 1.5562548049646232
Ni 9.050611722646153 6.6581323215670505 9.073778378886379 -0.9875612384705446 0.47530981412459433 1.475322133874298
Ni 6.028914954330357 4.735652110323929 8.285778301187916 0.13204414505415968 0.6133274031533695 0.5920389260882384
Ni 9.240090691791398 0.29125619116850504 6.1896956351850365 -0.9373802467407791 -1.0591898585511244 1.5365429283579926
Ni 2.577594455252327 3.9677510045696844 3.511405691069887 -1.5383599269620731 -0.552238763372165 -0.3093682449920414
Ni 5.92555858680451 0.6554997848022832 1.8338492830730695 -0.8136888445266891 0.041252578891883794 0.5939060612039644
Ni 1.5033594622779496 1.0902668331470062 4.699636867989177 0.6421769803952101 1.1089831279241675 -1.1437578124011916
Ni 5.440452115052688 6.008981478314102 6.256665087956906 0.24042488505310852 0.8133378889451733 -0.016550705269829557
Ni 0.15697704818627206 5.085403253282623 5.006349824094592 1.3492884566802763 2.2387741937326218 -2.7321907447602563
Ni 7.653613442228596 7.180248860337925 4.9454972487496045 -0.715429252122142 -1.1543250463940766 0.47623541126265717
Ni 5.808176670523256 7.358272552681621 9.187486100655176 0.1323565340882559 1.28063820250173 -2.1280565780703804
Ni 7.104841888914648 1.4959075227282732 11.442879399884449 -0.032165014768318796 -0.29041844336241596 -1.897145803155294
Ni 1.7709728497039827 5.61618290291956 9.007675237201118 0.7531699612060254 -0.9769675221150982 -0.6365398367140909
Ni 9.399983796719564 2.517821763951263 11.761622708027133 -0.7300146061354847 -1.443882427307778 -0.3211477541254727
Ni 0.13752988981308437 6.95692181341183 6.799900386429232 1.2668835719197988 1.169283724586438 -1.3712171384325675
Ni 3.551422421539998 3.141195923005084 5.963172390365241 -1.911089666929896 -0.4969119657754023 -1.2508234331331425
Ni 6.045630967613006 0.5576593318364083 9.243170395344743 -0.17992837032994818 0.7806242007622363 0.4369643815771765
Ni 5.365581387418346 9.390460846674694 12.962586901258849 -0.4649822069463411 -0.09884040460868138 -0.025023775737847226
Ni 1.6786926900944048 7.637156305257847 4.367944196901982 0.3504094792040675 -0.7949457595912309 -1.3879395933935708
P 8.693464113633189 5.584942079422839 11.736751166361394 0.7833133175586252 -0.3614927336014226 0.652851943610553
Ni 4.733118820700341 7.560279286206284 0.9609313031637956 0.3993882230956154 -0.4797945893688253 0.011931718440579452
P 3.636712920728291 0.8459661821657734 6.291212131779884 2.668092885839082 2.3556683705192203 -1.744692498317163
Ni 0.34951075781193053 -0.411666960298983 10.624771082553824 2.1796226230731297 1.4089614470608767 -1.5418856807271444
P 0.46069905833099134 3.1071999159031485 8.43370854683156 0.4233084813566387 -0.47267109095016663 0.7215209668421767
P 4.137065358134477 1.9333899986731697 -0.02502594289462036 -1.2603871655621777 -1.6879078852279512 0.9409270835517731
P 3.205665370250609 4.552580329898194 7.537291994267872 0.4518749801404217 0.7627493773643443 1.0758979153344246
Ni 8.459088595538528 3.081340021460909 4.934333207798941 -2.530277128408468 0.10497325697929663 -1.382520736370845
Ni 3.4011447224823805 4.501017715917369 11.209360947293828 0.3471287515702667 0.24846601019003017 1.6743095777182264
Ni 5.225279671951425 3.571494581294772 13.133372227010183 0.4680629027541939 2.1503907227912062 -0.6220362437812772
Ni 3.208217151039332 0.06140731029905774 0.9582158755636219 1.098236945151257 -0.2519958777201596 0.5163515625572527
Ni 1.320065787870587 6.625356731364071 11.52248756402655 -0.3629142965392976 -0.49982811098093277 -0.8062480719779276
Ni 7.208327694596445 1.7033321676376896 13.640640360177112 -0.454934592902352 1.0822259144349813 -0.06406726279355418
Ni 4.862039224026256 7.203279606514406 11.62515328653458 -1.3741322551968334 -1.6879179125302801 0.2514086377581219
Ni 3.48008350644657 6.0788133634489725 2.5987363289101992 -1.1331867217535645 0.5547085650688963 0.5124010625499368
Ni 5.634563121064419 4.468084950810734 10.66049508903769 0.6426076401747255 -1.3959606639258344 0.27872583751583613
Ni 4.172845762672006 7.885640582351026 5.504105177357473 0.7669873267050921 0.16025120361599499 -0.6805118714196667
Ni 5.866266665796974 -0.1336051400130377 4.343411043558227 0.7741545338774926 2.9934816746290958 0.3966019185997299
Ni 2.9677580396150356 4.22898494002391 0.874871571505858 2.639885570166931 0.13828138421312314 -0.4058005543798624
Ni 5.2454535331144445 2.5731565756197656 7.242000106308506 0.2674080985101717 -0.734378025310503 -0.0020476265576480864
Ni 7.364541057662613 3.9385904371507277 12.237834929348697 1.264734901007912 -0.566138918393025 -0.3153188061485215
Ni 4.692669396966055 1.996389398290409 11.320105459849632 -0.22874024962632863 0.759099439316583 0.30495828884980386
Ni 8.650749522169782 1.428729119790372 9.411465885710562 -0.0669569256365234 0.9970102996985861 0.46266847121149995
Ni 6.054950514841385 9.275353343705126 6.7505502403568896 -0.35497807241135637 -0.20964415222682606 -0.41642101020818606
Ni 2.2024919248926245 8.739451641325608 6.1228759608507675 -1.97644068153188 -1.4585983933617137 3.0600902157872656
Ni 0.5999134932879355 2.5551831631078907 6.378058662514345 1.6774000437180918 -0.748430389638511 0.908427568262171
Ni 1.1536453016495267 9.404421676352126 8.313031504923128 -1.562261159059703 -1.2729356916511496 0.4284344897292944
Ni 2.380700528887677 1.8048394186499686 7.716723788836649 0.8344111646757049 1.5501759457603947 0.8525304999842349
Ni 2.286719182085617 7.867611696343744 9.51051843455108 0.4898100646232984 -0.19272989296999066 0.912686600648841
Ni 7.026272928253173 6.393764133622329 10.74237674193322 0.4921202008137137 -0.6273617697592486 0.12279151610764014
Ni 6.544004850349675 6.040712317686917 13.123616288284603 0.717474564686945 0.48343115768014805 0.14453584976326722
Ni 5.48732721867162 5.279421803468676 1.724403774868046 -0.8024253557977277 1.2393617123504461 -0.37521522539383767
P 7.425247552803029 6.548146871340066 7.476994153876954 -1.3664454280755371 -0.3477378459091753 -0.01168952052278632
Ni 8.234957182929032 8.051265948471253 11.97990444054596 -0.6548705167024786 -1.3806008936403127 2.183881398349484
P 9.135652591105114 0.605860251995568 13.050259987074872 -0.8155397816924987 0.8385367568083042 -0.460237236062188
Ni 8.343796180917606 4.689202303503118 2.7442442319210696 1.365473293970255 1.2553722288460896 0.6217847898921034
P 1.1451671024348204 4.364867267023405 1.835608717435729 -1.1626816458888878 1.2488202866601847 0.08921907946883345
P 6.342007362407578 8.545211197157927 11.18319040127731 0.47443743882197004 1.6655871102435638 -1.5771519601286064
P 7.533615026080643 1.162280675767886 5.194211740848723 -1.023293144654515 -0.7182988603604533 -0.1285523298508173
Ni 8.268287508086082 4.284042384215378 9.741696830193781 -0.13062232500596857 -0.44856699881311135 0.1883713588909788
Ni 7.404167624548362 8.29693956846381 0.7212700855151031 -0.26453154829332504 0.9604037042191459 -1.2153846327095583
Ni 7.883588063020965 8.650620084013832 8.313478066561155 0.6098322455159174 -0.4558774164315955 -0.4999430392922422
Ni 4.040689405447348 9.17703581867875 10.613431375534374 0.6828826856446885 -1.4952011321864123 -0.39433163450831443
Ni 3.2528270869291442 6.810554995780406 7.592623107703347 0.0724400602382817 0.012091383946895304 -0.7306614956908641
Ni 1.4354876406474606 0.27682383678011196 2.465610110074176 -0.9091027399523247 -1.1367443571978357 0.5638210688931258
Ni 6.913236435778801 4.248437645746638 6.231915587981064 0.3806145420325381 -0.24464689355425606 -0.4619822437777528
Ni 5.732538559535784 2.4950868764169525 4.859610409485685 -0.830148532744609 -0.5400213953703668 0.38860964442287266
Ni 2.5213998044050157 2.1518908514988544 1.617609899743478 -0.0319464709996095 0.6989037436632931 0.023784761124423556
Ni 3.0666210540129133 5.6050789582555876 5.481804832203851 -0.4738059758855582 -0.3450698121587089 -0.5394768357208064
Ni 0.4257461334332847 2.61207123264779 0.7007643079378981 -0.7985959547493086 0.5836391320603175 -0.8918349540108125
Ni 7.042027400948767 2.697750046303933 3.0475880977387644 0.9859242170877536 -0.9005715625528619 -1.0836654750949852
Ni 0.4932416598532629 2.706385420422292 3.1229192553849847 0.40025288508875584 -0.7342834087141676 -0.25234966151515253
Ni 8.875759265123223 5.83175290607124 0.5624919978446165 -0.12199010325226733 -0.5814765771913598 -1.0017796960627716
Ni 2.001881274335704 1.2190670438995392 12.85284368529514 0.20152769376727875 0.1356604016505083 -0.9422211197728484
Ni 7.091824108659135 4.008191182721402 1.0603582980983113 1.1057828758193151 -1.492999753659719 -1.084706771875306
Ni 1.4019816494216202 4.186251857395369 12.681422263463137 -0.5656678922938774 1.237251865096295 -0.21564793521874476
Ni 4.182220783395792 5.895316286225117 9.571046489947935 -1.2977748621820164 -0.19712725070673792 -0.4774327740048681
Ni 4.13034381960766 2.825431541565757 9.146701986831935 -0.7655441665006623 1.1578446295115608 1.1155795501947625
Ni 9.149622666365115 4.647051692576349 7.01995542168457 -0.6880734858170084 0.565707230172245 3.382096975478923
Ni 3.6335971594029304 1.2210455985690563 3.332325228638688 1.0457147068828248 -0.5936165549880034 1.3968263543602395
Ni 8.409439817149245 1.0856163051153844 1.8369206656021049 0.4920114431499914 -1.636319214517382 1.5765315529357882
Ni 5.543161291798786 7.227798891484309 3.4889287552892196 -0.048929121600535086 -1.8358018528301738 -1.3344089684652825
Ni 2.407078175953715 1.3557537365824368 10.306840461118853 -1.361626409420339 0.5900496635723516 -0.43459202469025804
Ni 0.532120259109273 6.952863002664549 2.4561648229228736 -0.5416622734078994 -0.3387670098691327 0.6751302953927791
P 7.445939166589848 7.051365439342281 2.264959703512213 0.3906606134146304 -2.183303414358827 2.2254134561549996
Ni 4.933840418248075 3.0135514100735303 2.0021309050650355 -0.6067412652954196 -0.7020271197836233 0.512313387932137
P 3.5824690878027936 8.284384067336687 2.978683544535448 -0.2952536599675302 -0.2547083915553162 0.22072277863849085
Ni 2.250753865896732 6.276363726175938 0.20096568092752548 0.229374797886534 0.15493519071972026 0.6700965896236136
P 4.425102237452862 4.163063936315234 4.28996048161705 1.7581897614726496 1.0961360967581704 -0.3641517684908245
P 4.443621139336239 5.719881357000416 13.217323965842654 -1.6048977627833068 -0.5387790383228334 0.2950554279137951
P 6.450476537093439 2.753935451568676 9.35026105366974 0.0028986617040337175 0.22182166812962442 0.634562658383062
Ni 0.7007763271952363 8.067131368157659 0.4054345130900043 0.2922015034047677 1.0072278636615362 -0.39633220987811096
