# total energy = -340885.7038163872 ev
CRYSTAL
PRIMVEC
9.14608241219875 0.00000000000000 0.00000000000000

0.00000000000000 9.14608241219875 0.00000000000000

0.00000000000000 0.00000000000000 13.38621611043536

PRIMCOORD
 96 1
Ni 6.709236815865056 2.142835653861182 11.60882152952745 -0.19266715805285528 0.6948360013518228 -0.3373158792449029
Ni 4.68300456697667 0.4702696082460741 6.046714725603989 0.5087855772845367 0.04198971416822446 0.9364461649622841
Ni 2.564698706208047 1.498137449050815 4.85507347427255 1.4922245660565914 2.251038612922272 0.6920268140378019
Ni 3.8100292906535564 4.6424233992094495 5.158364884706456 -1.5237473192552209 -0.26624184611621243 0.9184654121141472
Ni 3.8757073086243503 2.745626508951151 2.527719265704007 0.23360631946937832 0.40907562558670835 0.23537138178960107
Ni 5.040204816503104 4.954295664184533 3.039380384621105 0.7658586124172875 -0.5146093830551653 -0.5966316876652433
Ni 5.55121473435078 3.077089682503514 0.423498371886369 -0.0322298065679832 0.21931072878231264 0.5617731852251616
Ni 5.435800320094627 8.323931939476488 12.724067383489935 3.6877553757195454 0.5375978735305387 -0.2747858790314816
Ni 2.821685330486469 5.470235320465053 11.923196162656941 -0.09525628680184885 -1.0922218493054285 -0.3249676420921952
Ni 1.3102952079863182 7.493083518852229 11.80235903612466 0.1816085862458485 1.8902169372459443 -0.8095789361233735
Ni 0.5826274017522155 0.29948023788294814 5.093200876568551 -0.28563567726179195 0.13049582673043333 -0.2849296523337029
Ni 8.587275091047724 2.6541382463468004 1.703502669453878 1.2959213539130454 1.1201301456799226 -0.7842682252727268
Ni 1.6345055381671676 1.7414964105000375 2.6961983356438743 -0.4384453369980772 -1.883833145206788 -0.3538964093114034
Ni 1.9617889520464133 6.74208039789167 0.59156861194136 0.6882439499566018 0.20278547743377978 0.9667797829488189
Ni 7.548728284391054 4.353141957850555 3.7727846137588816 1.6233695963352492 -0.5055866107312648 0.3978013382244697
Ni 7.709626166599967 4.565669475409019 13.155972834351203 0.38267271011314746 -1.4664482284234357 -1.8278628004887552
Ni 7.8121446046217775 9.010162504627388 7.154437012154864 0.16527179675903794 0.7217305117498215 0.046081110628778704
Ni 7.195506580724151 1.149662562168042 0.3031706821457549 -0.7365025278526734 -1.3605429465481729 1.1551349438898815
Ni 1.9112477005067108 6.742519409848585 9.646401497792972 0.7536551283725601 0.14019299941353922 -1.0775213098704604
Ni 8.917595004295626 5.350805776019626 1.627388971423946 1.86702198718672 0.09998660239798264 0.032012034130222286
Ni 6.787527281514686 2.241814557980375 6.75649187998561 -0.5137771169618571 -0.8396045359511862 2.271218687414572
Ni 3.7172239921784644 4.752432478746102 0.8822210510573664 0.15058771238430194 -0.09625413193874391 -0.630865669147449
Ni 6.107150209122636 5.913829464679152 5.061194161084802 -0.33648309893096245 0.9394533272197241 0.6041567923976949
Ni 5.822231449085573 2.938407634530928 9.50338329213762 -0.29719381441303655 1.7037281400896593 0.7842530557640752
P 0.23883530907652303 6.120979085765422 12.801050873959502 -1.3949427641842815 -2.0481461775969825 0.8600954568156864
P 4.191512389046787 6.762402993063805 13.1660801700509 -1.4028689610098937 -2.7714725730790137 -0.2552894608697668
P 2.786783879911821 8.8534718203389 1.628540463202601 -3.518429977716424 0.06586317835171236 0.13778618974425946
P 6.343192304623295 7.857518319585307 5.952394835877543 -0.3304574615621728 0.8663851464791402 0.35175005239236196
P 4.8660908451746 1.2588393482030453 12.780035005738743 0.747158722014939 2.0212154146444092 0.5047692570362919
P 4.158522469701202 6.62412337271839 8.454908412996993 -1.2570290477232222 -0.5830552345323895 0.9455468417119715
P 4.770980733925711 1.4782447197531579 4.195133323083082 0.6050692769096354 0.666168458213801 -1.5949658483815756
P 0.42566599342363093 5.932899046557596 3.5988974652747827 -0.9548444649638136 0.623481717978552 1.6471031925067632
Ni 0.8269915176611218 7.969274300867179 2.648636877761724 1.1237649142190325 -0.5034788203596425 0.670247256268865
Ni 1.868334281718386 6.735175105652714 5.161751679032398 0.4676600108888204 1.2097022376128004 -1.0746745844502845
Ni 6.083992328395432 6.4171749654457075 9.508121877447557 1.0096457290744096 -1.3133462342577125 1.2791410491309132
Ni 8.763712167314898 2.7703575158572957 10.074747293370264 -0.2766260175640139 -0.697883787039211 1.4290078241887905
Ni 2.28285302986938 5.588924032233189 7.230323887340391 0.4018626527780369 -0.303163144622594 1.046607136790107
Ni 0.8147348525890343 0.7731448719291557 9.53019594740613 0.31292845153947396 -1.4739453081314293 -0.03627183784784076
Ni 1.624499723982507 1.6250576350110848 11.662593177383444 -1.04822076113413 -1.0641137782153027 -1.3748274814916452
Ni 4.030916327558254 7.06356519550668 2.0309571150746715 0.39244932988393705 0.3260667886936449 -0.8844659152402509
Ni 5.843596697655379 8.272320596291808 8.235186586994605 -1.85973522371732 0.571333318109771 -1.259073846067393
Ni 7.173318184735133 0.6582362360316965 4.9265693152806955 -1.2885512867012197 0.3127394754571195 -0.2742518609048825
Ni 0.7681840368160296 8.053500574017582 7.198906179565503 0.3529312171846567 -1.125120142695346 0.35722161702989447
Ni 5.360775005874544 4.9702281397875305 7.6311070488894455 0.3196261752746237 -0.29099257069833107 -1.2015186733607435
Ni 8.564263547639493 7.870350273242599 9.483959756868913 -0.09902603825692623 -0.371218959750251 0.03641401985265987
Ni 4.899803305032606 0.5539617501822307 10.64865482012828 -0.9482477855829025 -0.35823745988891853 -0.2056183188968846
Ni 8.31611203899396 7.688690783904639 4.95014242815048 0.38704255704606894 -1.7090863190777792 0.39489676298316506
Ni 7.649737618810975 6.4917338294615705 7.293921171557062 -0.4760798595213995 -0.22811238623434263 0.059683017682929475
Ni 2.3436196015722004 5.247720280886802 2.8152281962868617 -0.19711928028693795 0.17750870514486203 0.03822304803694063
Ni 3.7477627614312814 4.312597374413078 9.262552307873626 -0.4337936971586787 0.9580992244556855 0.054670394959686494
Ni 0.9932554064350613 3.5181046314707443 4.078486016914596 0.11128505812993737 0.9569260300831908 0.03803690016806353
Ni 1.0023100280464086 0.6907633636060356 0.5933310620267204 -0.33447223914852076 -0.49242127699390037 -0.37612333903040385
Ni 0.9351046143088527 3.679368356977084 8.247608796158778 0.486822185639568 0.711438385795194 0.2669057049524564
Ni 5.85881577882839 3.564054549627723 5.194119664772356 -1.730362711958052 -1.6191406458555664 -1.610536449126323
Ni 4.052244991798316 7.251105615850799 6.377341032613485 0.6040156388341404 -0.5475662975971601 -0.6589377447933169
Ni 8.58026004581954 7.87028625066555 0.7106890188004612 -0.5383838597669438 -0.511313485912713 -1.1479687651587456
P 0.20003031051831646 5.980083685843395 8.522174190878625 0.9423825850513771 -0.47191930038580665 -0.532271833331935
P 8.742877391526363 1.6650717456672914 8.013069402002307 -0.41865092797996933 0.976349428915125 0.19610215187633326
P 2.2186383850883 3.4551338539009193 10.53888719716793 -1.7312255741789797 1.1734905635789339 0.1745776475409961
P 3.758308194479649 6.475920252930237 4.073452013141984 0.9282379181198789 0.09115691992149462 0.6512953977567106
P 6.899008880323486 4.535542279865807 10.578163218971575 0.5272178158477953 0.3925205494415046 1.0329280966411178
P 6.695362208810093 8.288920735912612 10.629927301732932 -0.10829152271925221 -0.3123111296704492 0.40488524165444456
P 2.504855888831233 8.78821452216015 6.055147413609708 -0.6739190486934974 0.37838308159885803 -0.04353674694037018
P 6.911804249651038 4.623362963413442 1.7808757830352062 -1.4540894497477668 -1.7115301526325815 0.08123580415304074
Ni 2.8776136245808015 2.4127365465388184 -0.12141332972573222 1.227466503574757 -0.1370570248877188 3.7342128958511362
Ni 1.7205518817222745 1.5647026370178716 7.179161616803305 -0.0883652161089704 -1.1817692586479582 0.16772231518205952
Ni 6.963927773452116 0.8148757022585441 9.364032665538984 1.929417518704806 1.2318396929417883 0.05948067186413627
Ni 2.968992134195924 1.8752029896276 9.203464956906 0.45146308941398383 0.05432998090113224 0.980782524985814
Ni 6.592066353781247 2.1181503773672157 2.7552710528796016 -1.694799470141462 0.4039976968431687 1.0260133717991555
Ni 4.020123950284122 7.104905488116064 10.823946806874503 0.9509716122719687 1.006691531542092 -0.5057539895470645
Ni 7.370004687514956 6.723971154668976 11.931937988248988 0.49230686290322306 -0.23498185966066626 -0.7424188933371085
Ni 7.57839817581248 4.076692470148954 8.478240069290475 0.6695522870843694 1.2805597838553107 -1.067205529766749
Ni 3.2787608002107955 8.930692194343553 12.893750992486584 -2.015560530351477 0.3052624503537839 -0.1296460771356283
Ni 9.257024415649486 5.158308178995355 10.624371971261485 -0.37646606708180325 0.24941911813191886 0.11142852568633713
Ni 9.003083436822154 2.6885092241401773 6.031668505389011 -0.15483748879959142 0.20018249259329396 -0.11754620854830078
Ni 4.073582802120814 2.959452770215484 11.472830259007448 1.7024593006795645 0.4393349386918821 -1.0846658913350418
Ni 1.170296124142991 3.8923714708222037 12.549845488388689 -1.55897991720527 0.2318512844514846 0.7927194413638735
Ni 2.9229599012970233 8.775894749119256 8.224277139865297 1.1819795748865514 -0.7210982774824614 0.841477327493867
Ni 5.375399591689235 8.147000974757786 3.904960138686707 1.21678382704993 0.07910153141885733 0.22700809742657035
Ni 3.090671614920535 8.641447337314402 3.779451193246266 -0.7091004816906368 -0.20864784975182776 0.18445685432792103
Ni 4.122441174492347 2.821529847085062 7.029785054638649 -0.28081665860659377 0.31164624239294064 -0.31130222878996067
Ni 5.445421998816988 5.015876237224131 12.252162455704358 -0.5538796414096978 -0.22917810849469564 -0.8506073148195932
Ni 8.194551457341014 0.2911856557220079 2.463277798078521 -0.08836033101296395 0.014900571260916273 0.5221452864208943
Ni 4.695251171358078 0.457024251662687 1.8833201377892876 1.4256201386634804 0.9826617442863977 -0.19868045412647073
Ni 6.322101438526561 6.364392923709258 0.6947784937953098 -0.8428510679129421 0.4756646263608517 0.24341533514000013
Ni 8.666187490302981 9.21321468078246 11.801502048200433 -0.6866025576984368 0.2599781245946878 -0.43667384691995126
Ni 0.23624879696370585 5.267274605134338 5.86933377362945 -0.5604673219295444 -0.6762109300514677 -0.2342364968542095
Ni 7.3566422610763915 6.727858239704151 3.056715869269739 -0.011298969952586993 0.1653694986791668 -1.2648297747145638
P 8.58300387055025 1.8913000947144396 3.9246379350471248 0.784190835067572 0.9865338256472945 -0.7379521158150065
P 1.8005801030346877 3.5298573474006245 1.5619304594316097 0.34348446994946 -0.051457030228711384 -0.6048322211981648
P 4.991867770830407 1.4383220699213084 8.484344164708064 -0.7873031554443086 -2.5601420342887002 -2.359115448527556
P 8.652998839430698 2.269984491882344 12.556631881555983 0.9969622200694702 -0.35816675455198316 0.0668895627336977
P 6.475883668600494 8.258574034390945 1.654657101597755 0.5223417187024166 0.7252860903115639 0.41786262775071903
P 2.0196379234522435 3.477285665560195 6.199518324857302 0.4405001626445768 1.0709246304895492 -0.3926506472614657
P 7.386677995795245 4.487196088110674 6.231511321217396 0.01521835961165121 -0.130393239714298 0.8340509531228087
P 2.6296358915015485 8.86294716174229 10.703430707835713 -0.5304070122090543 0.9650869686274283 -1.599242878490375
