# total energy = -340874.4302389651 ev
CRYSTAL
PRIMVEC
9.14163102435299 0.00000000000000 0.00000000000000

0.00000000000000 9.14163102435299 0.00000000000000

0.00000000000000 0.00000000000000 13.37970105436521

PRIMCOORD
 96 1
Ni 2.600903718226351 8.606068545066853 0.8685381335597065 0.32917576663627185 0.8711573710568028 0.013490064066634833
Ni 5.546675465815573 5.31702855353924 9.073564240950054 0.6839828606874027 -0.03895092734190066 0.23838137226051848
Ni 0.23227238869867975 8.786835156402079 8.396364100810535 0.3679611149345856 -0.7789825513937553 1.325756177886291
Ni 3.4598879332310637 5.777227399560612 7.59585707096761 -0.4609262917094126 -1.0078387577726577 -0.8851714259477077
Ni 5.3216267939307444 3.825598881267158 11.01817015831159 2.4350005298916453 1.2651678747802726 0.46339095119982127
Ni 5.506040916033784 7.139805782929588 4.234595452074179 0.1195465268077812 0.2735383797776257 -1.0018167199482941
Ni 0.6540325047037501 8.026662830844238 10.75262314694683 0.3925305767438336 -0.4620223529870688 -0.3539658290967581
Ni 4.420581934708707 5.1507331440723085 3.4328835552658443 -0.903462768057728 0.11317610450506314 0.9934400658488245
Ni 3.9840873378626274 2.137551009511004 10.793832705318332 -1.5550916378944573 -1.7928490034177318 0.21655347775214964
Ni 6.593675605536156 1.607912334436209 10.17514266021219 -2.0974370534123103 0.8224917875302996 -1.7208699419762685
Ni 4.089261802483432 7.218021577740157 13.030424145051132 0.2449204589306169 -1.0532976614364054 0.7525937769875812
Ni 5.979915642026711 0.010586008694558101 12.248862231286447 -1.7083317002999416 -1.0615200493461976 0.7250575192405254
Ni 3.6780895234991187 8.7304861429364 4.353674337441461 0.708726900401302 1.397215105158226 -1.3973138355196193
Ni 7.601960937984325 3.87923283032672 8.892162286260534 -0.4386093733797672 0.11423282790435166 0.3181197659324263
Ni 3.229975913655817 0.9610322418245333 6.121574355956653 -1.3294444253711557 0.4136285350647134 1.0597385319657426
Ni 3.8098478510592795 2.2392699376149316 4.184768992324879 0.7570638969437928 0.6140871641375295 0.7405317036167246
Ni 8.071146007275775 1.868768774936395 3.487726942106313 0.7880996832036751 0.011811390812631271 -1.191973709984786
Ni 5.956741607449246 7.1086511044917176 10.888614963821714 -0.050677985970841756 0.22595600201297217 0.00027227982478017623
Ni 6.654778267120289 8.859629964031411 5.387377060713767 -2.6262083297901544 2.0163048647166697 -0.0070502219785620514
Ni 1.8715112642355032 1.303157781888296 8.166140351618289 0.606460243719891 -0.508014503446467 0.13483790574921295
Ni 7.643829607950712 5.971925856535309 4.683564718578801 -0.027062660544746944 0.49761361982811725 -0.41337785250648806
Ni 3.972468324865406 3.3565783613336535 0.14608234916940327 -0.8593714341654684 -0.9531565357384295 -1.5025331470714511
Ni 6.42671285700644 0.3655409136995493 3.04650429370857 -0.785278411704796 0.16477634517985815 -0.6770218559885373
Ni 5.507284177849381 1.3992454652980542 6.896045106556944 0.4562116598425626 1.0952580650285912 -1.345355440174457
P 6.0674193339302604 1.7768496752612812 4.539465189172653 -2.3552066003914534 0.47811180234976364 1.1198828055558068
P 2.4397093388557614 8.535751119437716 9.383023990972138 -0.18367626740815463 0.5363177212665344 0.4074720285450144
P 4.005414762978694 1.078995848210179 12.947831337319187 -0.24117256185241046 -0.10275645183363595 -0.23100204907731184
P 7.091400846800327 2.228830195016326 1.509645286196759 2.1313763864722324 -1.21524373625632 -1.063680033111994
P 4.230591417697481 5.732003751018316 11.286727508763672 0.06667590406099484 0.0408838826985554 -0.681732116980013
P 2.3806726858769567 0.8870371380452918 2.9412064170693064 -0.27084746320902386 -0.06900300953227471 0.4571084606252192
P 4.328324594686704 5.119733873361388 1.3662679456393763 1.6045650620342367 0.8902382989476538 -1.4881197998595983
P 4.1553375113299476 4.378886955731264 5.67992387922825 0.3771872615185439 0.1936585754318471 0.09019841266296724
Ni 7.757441797981772 2.473240841352859 5.55668372343112 0.15297163923544624 1.7897330834965692 2.8001596566010614
Ni 0.3596610166422611 0.4323589229830243 2.3152771143766184 -0.1426525166976253 -0.4055856101555789 -0.19222107165437216
Ni 0.9636741731826743 3.4408367742332584 8.066019380612643 0.09393885354200596 1.2833707709415445 -1.5223378405022039
Ni 0.27712031620699806 5.256364690242964 13.132751905779463 1.5718210348339963 0.1614598792121155 -0.5972832052063133
Ni 0.39016846760554197 4.5898940824046575 10.175463531460185 0.07780338143272407 -0.6861878387585214 0.11371809305146223
Ni 7.471838962372632 4.007169956130123 0.11326389389007378 0.6049638616800227 -0.47161565310245873 0.7147900758762464
Ni 4.33811528148452 1.1809341754580351 2.0866577214243516 -0.4121144124130322 -0.7117561741459291 -1.4233681094045099
Ni 5.381541043485265 6.23848667477764 6.236438949434306 -0.47682779343101755 0.2223783119640428 0.054805377875654
Ni 1.1236527156306595 0.07362761021316097 4.785450938529975 0.15621148632898257 0.7488777615885748 0.3790685377016568
Ni 4.297864680204607 7.347293381669127 9.070259541344628 -0.6844163486803955 0.009756565166131586 0.5891878297926886
Ni 7.956464246418062 7.659470938586627 12.249116368628165 -0.39638260350007215 -1.3969757354539103 0.34789494031232987
Ni 6.121098991144807 3.9260196977695077 7.001008399501717 -0.6381966555912235 0.14350509450590768 -0.0602625443354833
Ni 1.927787144653206 4.56799073453578 5.885623374944769 0.2162526586822792 -0.08188886435600735 -0.3035141002041095
Ni 7.683979651289657 5.303855463272523 11.338320131621598 -0.9810118673878008 0.6952329796799253 0.037613953698032
Ni 8.02346325999528 0.8903656058913096 11.701217285636806 1.2239129818955439 0.501528124391175 -0.4472382526993588
Ni 2.018472124143721 7.927896649552351 7.153283289508506 0.9867395139001973 0.2829077368076676 -0.30312354963391025
Ni 1.4869045649285528 0.946423915491283 11.514329438185971 1.5514797521734829 1.0409782206391038 -0.7945004445236962
Ni 3.4627126972091453 3.0907762984640756 7.259183599630474 0.5292857541204175 0.10923434624849575 0.5960922702220056
Ni 0.7716149050768198 6.747968053503989 5.210429822809099 0.2082621842776349 -0.6961385222133302 -0.2591705410917278
Ni 6.886418054953974 7.468054327139862 2.3459564280026437 2.342225614750753 -1.9629483034724 0.008587741669011014
Ni 4.474526699222168 0.5384448082142319 8.782368555496932 -0.8972388986352031 0.4668868801682217 0.656472828192592
Ni 2.4565847896762745 6.02183916177908 1.098129281886958 -1.338434801795224 -0.6844438594842213 0.19749568978975018
Ni 5.754729845676927 5.437122159947193 12.962134333177136 -0.6222658432935799 0.14246534038748368 0.2791305291534225
Ni 1.7636217352085823 1.6539404465062435 0.6192275730087664 0.758083596457559 -0.09618908302876338 0.336348116014995
P 8.308590730792574 4.077313690770317 3.614406179484525 -0.13630189188924913 0.39158055412573856 1.7515282902920737
P 1.6299253818770518 6.807937152844491 12.378979636082642 0.971386942703527 0.4862274894783626 -0.15143643353784242
P 1.2806328031116194 5.9004200188765585 7.51318381688289 -0.25522801150421204 -0.06819671158089545 0.0038196308564063253
P 0.22934341012723208 0.0938479838154866 13.01490348394438 3.3137146302497835 0.12871610912219125 1.227872223653608
P 8.275562018000313 8.215227253419929 4.368767170217554 1.6980159201962306 -1.0501575731455268 -2.1700941147574047
P 7.767461025554515 3.183472436773937 11.249104212232305 -1.1921688567147273 -0.055232181000427455 -0.9279293857405244
P 4.459241892195138 8.456154938346595 6.633401477196839 -0.028880944700408327 -0.7615255322595723 -0.009250829174306648
P 7.446845743226758 8.761933353566176 9.815027304509377 0.2147976714033075 0.06798202446692808 0.5008151574845504
Ni 3.123512479064432 6.773180671793792 5.1444016504437675 0.3232108073020885 -1.6587783148518467 0.2098686095328063
Ni 8.523812149355598 5.166996105616021 6.862408475303381 0.2357120529584715 -0.6319522173434085 -0.0005921250580441415
Ni 0.052994034889769705 3.158497500890057 1.8789251269740928 0.6676105899769663 0.21933643981392548 -1.5584124747375743
Ni 6.099085943703964 4.1176557083602 4.522981000158814 0.5240070222199814 -1.215353779471623 0.3586341811067049
Ni 7.764078622085615 1.0533992814185014 7.871626254113247 0.24055035488737928 2.549307405567042 -1.3222080555237166
Ni 8.273660558752931 7.847660554291439 6.489061522895469 1.9191927556530042 -1.429188572741029 1.449986740433303
Ni 1.912538904150164 6.214809850495338 9.579116546673879 0.10369104783276334 1.0379276067382384 -0.29078919643827333
Ni 7.647577676659494 0.22964599811323372 0.7369352137264954 -1.9278293482820799 0.04140761641250933 0.9808432030204204
Ni 5.464364220318335 3.2843320515641437 1.9153307582566559 -1.4931280517074672 0.7960662463489193 1.5124920580563759
Ni 3.466168233726022 4.376665539398986 9.584923310683191 0.25466339724999365 -0.40352050009643403 -1.7594562868898989
Ni 3.8083211986827754 8.638475626951315 11.335108676652343 -0.8552185883393594 1.4417723229433106 -1.7655940243565205
Ni 6.4889125143102175 8.456986826767325 7.68729349252608 -2.6117502453832957 -2.1787204229738353 1.728114539353824
Ni 6.924639214152547 5.111442414047084 2.3522047327891125 -1.0243046166381649 -0.14928930528785256 -0.26939041904752314
Ni 4.110534377813515 7.32652359604388 2.374066943318504 -0.18743187779584494 -0.32939353907403274 -0.2597061018802237
Ni 1.5910003170917077 7.600900508788669 3.0404571048040365 1.1464641555887611 -0.5248950812518896 0.3147696185132708
Ni 2.758478011722118 3.5047276332714854 2.471257107426504 -0.013852846722692273 0.13698426266825442 -0.9350989069057702
Ni 6.180876116234371 2.3118453461003345 12.709953300493131 -0.8768551927725287 -0.6206576182661956 0.3679055791063019
Ni 0.31148644961412436 2.8967726054451535 12.449584108925084 0.6270486093942039 -0.14948856578285222 0.03941321169029987
Ni 8.150010857887134 6.794846337256748 9.239941010932858 0.19762244517560157 -0.8907432636085304 0.29041818625209986
Ni 8.985839321576375 2.0262425104911945 9.538790069856692 0.7721701564576121 -0.4233128522320129 1.7689390295693537
Ni 0.5027842198579264 7.427163811690158 0.9060279622785172 -1.136171258303185 1.388545602408686 -1.3741911334592267
Ni 2.3668871063334387 4.219310645047148 11.523950090647242 -0.34719020093582137 0.9470910462706398 2.9166314011382606
Ni 0.11313499689301568 5.811371391334512 2.4341685963084627 -0.1250214338794234 -1.199913790767469 1.1738734008396494
Ni 1.0782188095754317 3.044455654202136 4.188381764894904 -0.3936916869314704 -0.6213114498001105 0.6452005977128824
P 7.693605788729528 6.186882167799419 0.6074915471347824 -0.5604938042921057 0.7635451337927625 -0.060701431645114816
P 5.469885765440541 8.45928137614758 1.2203848840257083 -0.6789193301215662 1.2625702892564254 -1.8442690097609207
P 2.1226867175098367 5.32225756646954 3.582923316493861 -0.9145606777431023 0.7271491116622316 0.8290136478092174
P 6.850857110375536 6.179751695621737 7.65567716172286 0.9049894891148995 -0.29606972811092236 0.3595196690354518
P 1.9489683036733192 2.831528785019367 9.98734430631405 -0.7943145537651352 -1.3189401834057222 -0.31855299681510296
P 5.218408638343305 2.831912733521242 8.806653298240535 0.16311335565513843 0.1995482014434047 -0.16751945514263408
P 0.479444721759415 1.7202812626516737 6.235650026679262 1.4028442784195452 -0.07094264975714878 1.1306858097085817
P 1.7892731517862421 3.8357735165668503 0.49013037423184075 -0.18858296068115266 0.06525177001995859 -0.679340733929701
