# total energy = -381163.63501903095 ev
CRYSTAL
PRIMVEC
9.30051489030125 0.00000000000000 0.00000000000000
0.00000000000000 9.30051489030125 0.00000000000000
0.00000000000000 0.00000000000000 13.61224365240921
PRIMCOORD
 96 1
Ni 2.7170431125272563 4.72246663057411 0.10293995864322868 -0.40748334139892406 0.35746021540326184 -0.32965502026553545
Ni 5.326200252605384 9.544560376396072 12.144476524903038 -1.98504642092302 -0.6038171496700891 -1.6472052653022666
Ni 9.017100276783358 0.21325801572989653 9.485637894512088 0.41328246457920437 -0.6079188305432885 2.97662192275928
Ni 5.2937507562368475 0.6041381944279581 7.6131373349344535 0.26248520728725766 0.752649055705549 1.2875678397420276
Ni 2.159626054530178 2.392315635970244 5.487380965392897 0.43286501469682226 0.7268372368487677 0.21266956931671113
Ni 1.450461795974479 2.5390963615902575 0.7658843785193419 -0.023124501832605334 -0.4522223361775115 0.3944493910331013
Ni 0.06570813753043951 1.165131300391131 5.787599725174224 0.3851702797240205 0.10462898626600044 -0.18243442458125353
Ni 8.067517708933694 6.745430919658813 9.533457421748677 -0.43117605703017353 1.3632554603833296 -0.7661280640285902
Ni 4.082581907257511 2.8727616329337886 1.0752920469885783 0.17508903995977587 0.07241872008204302 -1.0611138150467143
Ni 0.8134937141199534 6.456854544387125 12.455256949366541 0.4042648344616263 -0.5721699550784533 -0.7221406027040466
Ni 0.8111537045795912 1.3194919456271825 11.99154257864748 -0.9382078848483971 -0.5314395672386267 -0.21736671768206434
Ni 6.021237029079167 1.3263929276579802 0.31376216952964014 -1.4866429582037557 -0.46449575422822587 1.010652573072369
Ni 8.690512697253086 3.1426160717796066 12.753705821168813 -0.9934516358130503 0.13638545274199093 -0.9870156503797195
Ni 8.616954925175484 6.881720664509635 6.824307656188453 0.4017029872717211 0.09909468671133256 0.5189499194120483
Ni 1.1440749347338182 7.234684504200748 9.494825873148509 -0.12348957061592925 2.3307268700825343 0.1801713395786897
Ni 2.979373434846234 5.415234081420514 8.32750802171231 1.3973727137820127 -1.1216314128157971 1.33574337100599
Ni 8.139959419227338 6.1856980334600244 0.5442186973503065 -1.9517316088209742 1.49032992013704 -0.7879829551201526
Ni 4.337955444456493 3.1125103051573797 7.386425194398962 -1.000251175233387 -0.23096065431641513 -1.3453166165167219
Ni 7.327075818882615 2.6200945455609013 4.18595526989351 0.18923447822222247 1.1352983687799287 -0.916271746896938
Ni 8.659588485322622 1.9001788918197544 7.897156457921653 0.057242783672553026 0.8524420540354867 1.129023077294178
Ni 7.01242079992581 0.5231614016415069 2.409053772575132 0.22458868935180032 -1.3861950998986385 0.6681862599747783
Ni 2.0592827996376215 5.499282834267306 10.44071334644179 1.0030446788181242 -0.8641760546429633 0.8626423916072562
Ni 4.301060301981864 8.55606445434579 5.9658375822265395 -2.652157188445432 0.013797053784092368 0.26504911135969195
Ni 7.730913474892411 9.190229361019611 7.768548008298912 -1.4547872471457397 -2.0556741105429115 -0.694968413164629
P 0.7046283974554023 8.528497728282066 11.500739528328817 0.5579424986251617 -0.6863361914109276 -2.7329613043776932
Ni 7.101529032859871 8.691414847195116 0.4109832415815783 -0.058297450189312504 -2.464536848787865 -1.1242950756908896
P 7.08099349603507 4.85591971839071 12.663687997880826 0.08104374274689269 0.7810291495101387 0.18315356213546521
Ni 0.34938779172501855 8.611737336335487 2.311589957085183 0.37844324541283214 0.5721288174278728 0.5190589341860867
P 6.186097955599276 2.59712227384113 8.413278299860854 0.612046479558417 -0.013063003831545246 0.624487533535247
P 6.631927436230436 9.073526500477225 10.227232118355102 0.07494174361421288 -0.9246242326266915 -0.5574187649112078
P 7.79690062786884 7.558212214340008 2.1471140718805386 -0.3107684677736777 0.46416536747200055 0.03914453140994549
Ni 1.595819542819948 3.436307730227762 12.055002781734732 0.37733844238442754 1.2858400584176435 -0.497665299001659
Ni 4.868261501618296 7.540996961322478 8.115115883916467 0.33174712690787383 0.9539144969503764 0.7133659418352102
Ni 6.751597161015173 3.2759017503286123 0.7151379792543261 -1.6508732010721567 2.5003895968204164 -0.538532469529666
Ni 8.894938014014452 1.214228718370351 3.3794025300182797 1.923404736851823 0.02561152992051718 0.7498257273241409
Ni 3.4290812301766436 8.933200332174428 9.28435336162107 1.325704241602433 -1.8266515537894734 -1.4142016124138934
Ni 8.52883254681725 8.267860099668754 4.598964163612969 0.8854958991666622 -0.05717876320383701 0.14117233260767298
Ni 8.45012228950372 3.031186603166415 1.927643312219951 1.1906858444112978 0.21545458826101604 0.6382771311201718
Ni 6.64689196465032 5.104373672529161 10.552632952188436 -0.026178458167580722 0.5460094946330015 1.3634871167781615
Ni 0.41971084473211817 3.5093167719282503 3.5930195456220155 1.0297797808201232 0.2975463126564489 2.3439996759320407
Ni 8.431604964404906 5.5121175447828055 5.075134713892474 0.09953537379317696 -2.359840242508723 1.9760665860219129
Ni 4.581880047855055 1.7450928064241311 9.95049529850822 2.282572164754179 -1.2238330205872279 -0.4810024936339974
Ni 6.846322904928481 6.7199568094400055 3.811264497423224 -0.6442624021693292 -0.01555517412577966 -0.24934661302277056
Ni 4.049425571759137 -0.08252346840871759 2.445602935896734 0.6489958030892565 0.9080930677408877 0.21630639473835006
Ni 7.498316898601009 0.8151008430888507 11.802591458520668 2.030723868355477 0.5965098173753984 0.5383308950418213
Ni 6.313282496395987 2.9027371923478875 12.089332842209235 -2.009891762101474 -0.1689325334400768 -1.2165100045632533
Ni 2.728138626762757 4.979318949636834 4.206687047581989 -2.6439139746000335 0.7561768663531493 1.3189720650849222
Ni 7.676263649538007 2.8873727417887523 10.041193919484417 0.5925048099810635 -0.386882891539753 0.07034255427930466
Ni 6.899028922675828 2.9200082484546144 6.355842582475681 -0.05032137396237141 0.40742806268095644 1.6478436702172135
Ni 0.012205995710537695 6.041279638616053 3.2412517521427096 0.9425311948140993 0.9498120447462286 -1.7700669725262095
Ni 4.874278934736794 1.640136496157888 5.4693584276849725 -0.5811952985055151 0.5562005762333906 -1.7602206758597494
Ni 1.185955153176786 6.659894084433413 1.3204554789673317 0.7487008696910783 1.0064663029051635 -1.087393831789166
Ni 3.9644746689703134 5.1862368043823714 11.819170556321343 0.5859788359370877 -1.0220129923905108 0.6065869991057423
Ni 1.9187055174334327 5.204958740808242 6.348042240657312 -0.8406964834637844 -0.04012874970008573 -0.7033054722754146
Ni 1.9515363349114865 3.210919052957745 7.9079515655269725 -0.3212166596901952 -0.0019000452361902758 0.7231903841247997
Ni 7.121050813564242 0.6511811286732117 5.701202592323691 -0.35683620866601773 1.1506069741125409 -1.3480640973548719
P 1.0165555754019204 6.9352730291098155 5.153391106080531 0.822428795502848 0.4572627268148963 -0.040498988555310894
Ni 2.953908625142293 2.4017091559852113 3.104870862246197 -0.48900402378223523 0.0740606265608402 0.3646073679710043
P 2.088337608079956 0.6753671175830359 1.975585606252776 -0.8158794244201046 0.24812816723463718 0.3609512592756558
Ni 5.084191555269281 4.516943853058518 8.988218457917537 0.12131878821685559 0.1898435725611311 0.6075529625634375
P 6.542307674978729 4.293684993692885 2.575368369568844 -0.7611722626852117 -0.12066804200673414 1.4804206314431279
P 0.6822708897682935 3.0591346503396597 9.936720305939737 0.4640496678297428 -0.09062444445679231 -0.23526545233935608
P 6.753261953176241 6.621929382749158 7.716740420287651 -0.6546082641800275 0.06843736683679182 1.1828002710156338
Ni 9.143354766093438 5.037558773729631 10.764902323188045 -0.7860672261546785 -1.0534138752992954 0.1723184191931742
Ni 4.442874552663272 6.554593655117117 10.14532806423648 -0.26157092300310436 0.7995318363000166 -0.26856046694706004
Ni 9.251287241116898 3.6588039473743588 6.712088573863113 0.01851914185011004 0.705365697238553 -2.1157301952945438
Ni 1.7930834631342611 4.66524056260174 2.142812583754873 0.3004848264594825 -1.0890462797909244 1.2562073231528754
Ni 2.3906043412348437 7.684457403135221 3.314662576085422 -0.02925555443100768 -1.7112735565370853 -0.553062287714725
Ni 7.496745111588603 4.761221876022 8.172559583936708 0.12498132467010735 -1.5159638186550601 -0.08216140129110366
Ni 4.956169968134604 5.843392583805697 6.706534306384955 -0.6499401692803968 -2.15748002553782 0.5422050332852468
Ni 7.990407140177166 7.5303478718005605 11.873674363592345 -0.049320700611998926 0.2676140438733907 -0.4607458002674904
Ni 0.344096728817578 4.730576679537527 0.4568468705417844 0.6087099589860162 -2.0709274371575557 -0.628958424822407
Ni 5.464247794765938 1.9674030132734017 2.9023484308264758 -1.1466330770664575 1.6030558244785618 0.105257878099251
Ni 6.377911774201935 7.869277234558419 6.023091551743508 2.0011368987269793 -1.8931418242022233 0.8224267386203191
Ni 8.538467880218743 1.2505379284084028 0.42263120640013774 0.06030933841301872 -0.11578577421376832 0.8508037471011154
Ni 2.857248374136793 0.6395006120526202 -0.10771298287261602 0.8808293469289282 -0.2648547359606987 0.5229140462661188
Ni 4.537191073922464 6.607513584706387 4.667734030637396 -0.4675306843998077 0.2040419755487002 -2.2155141947634167
Ni 1.7898003813864558 0.9950806865756241 8.822067549985471 -0.3685918065400491 1.0618460652270487 -0.7968697160868212
Ni 2.8710131361389237 0.48622719700443956 11.149488843476078 -0.5144885412065849 0.413299690970385 1.2798686713255572
Ni 3.151804980467515 3.2986880117510577 10.291904178529435 -1.0129729936754297 1.0537360345254048 -0.313046465174577
Ni 4.075662324196982 4.954821393478989 2.570045684910858 2.1506393484669024 -0.493994277907975 -0.23717989575324958
Ni 0.4197192151954979 8.583659081954115 -0.09883006112380882 0.26701291995428206 0.06996871587965368 1.190314320004492
Ni 5.661279202208593 7.113908018146921 12.25070607565448 -0.4639578794468848 -0.8145676475872164 0.41306212103828216
Ni 0.834459864783063 8.46924414806884 7.327239507944261 -1.1043970512153818 2.4776219641065977 -0.032912948677936864
Ni 2.588063572361349 7.3068285980186705 7.308304589727952 1.411039155525512 0.15282277236240777 -0.8983722409086979
Ni 2.1516741143194875 -0.14680862716461254 4.989023106848337 -0.9313880337130861 0.7146062420002145 1.184199979576638
Ni 2.902486078446497 7.232824401227488 13.293431439787208 0.2791464699930225 -0.27990134588117604 -0.41157319519758145
Ni 4.889820095078388 5.253814345400938 0.5490800764709237 1.8727239226675036 0.12416911318145711 -1.6751143330077085
P 3.810923168527631 2.8529794378131594 12.460702400820763 -0.10814008474305246 0.018724572992696784 -0.12523946342750045
Ni 6.256149433572279 4.792732020389038 4.969898458128755 -1.2824708848350947 -1.4274271099652318 -0.5234604056878921
P 3.1522886072405627 0.9056701869084083 6.807605791591544 -1.050641454760481 0.48913309316093173 0.8038428049705447
Ni 0.5884975185772943 5.2517403305857515 8.324213779346666 -0.22090969783831632 -0.22821317347826503 0.7279772639904817
P 4.579359608326286 8.303369465428304 0.31936758983956165 0.9481521405453027 0.905298535714886 -0.32940228082478107
P 4.145351082090198 3.7655366559800663 5.017894695147804 1.2503050987358273 -0.8401382969674692 0.6936638354205924
P 5.545497092637972 8.739712420895835 4.2952893325073225 0.11674068192786992 0.8573670021409298 -2.8669003524617205
Ni 5.170202716752863 7.155267407757377 2.0466824620967525 0.36595385469656977 -0.11504581072395025 0.1324182405641268
