# total energy = -340879.0222997228 ev
CRYSTAL
PRIMVEC
9.16945191762995 0.00000000000000 0.00000000000000

0.00000000000000 9.16945191762995 0.00000000000000

0.00000000000000 0.00000000000000 13.42041974385263

PRIMCOORD
 96 1
Ni 4.046369116339007 2.9895989474494065 5.880183401803683 -1.31809223358313 -1.105096905495884 -1.00162902941752
Ni 1.0514518867530447 5.306526899144045 3.404666110687329 0.34108100271429 -0.02073620410608687 0.8940085646233636
Ni 2.9718285495517405 4.983276209212982 10.626140440124804 0.5814716920953534 -0.3661916817389887 1.3205535506394288
Ni 0.46839761278003417 -0.1499517156757907 5.150287690259571 -0.6606842951707783 0.45720899075882543 -1.2910447425470346
Ni 7.737962966909916 7.59584563098839 11.656574109096098 -0.42952232347683444 -0.8387851253736844 0.5907700866781438
Ni 2.679964893678319 4.790992801620597 1.573383510908693 -0.19394165388990472 2.340495262323208 0.026562323869560707
Ni 4.7347015360407365 3.55871932222464 11.73125837836168 0.3144094069603746 -0.41629091238822497 2.5401362805907346
Ni 3.4707292612205127 3.137126260027084 3.0098240076366514 0.17587631174776164 -1.8430981293812707 0.04751758596498914
Ni 1.7151826668472214 6.986663920601754 11.415825563171355 -0.47062115039967334 0.9477765023734387 -0.8826250053767704
Ni 0.5756591109676097 3.057920534000235 8.392499537524223 -0.8714581901266734 0.5512218920718764 0.4666822203565833
Ni 1.6241116699846758 4.447239217107913 6.688697077504035 0.9640898948214814 0.8260625356006934 0.06705385622570388
Ni 2.1414796579000415 9.316529969011361 6.629808106184027 1.2651210807027373 -0.3350875041350164 1.1373819907818346
Ni 2.3650125577706755 1.4814258280416563 1.2708612840774558 2.270775943450199 -1.0324856097870605 -0.5779081431138111
Ni 7.21124213799578 5.594319318347414 0.9665785224699791 0.6638853186065792 0.5041660762346543 -0.19201975427684348
Ni 8.092564013090783 4.146462853929779 2.740892234168942 -0.3788757049645604 -1.2480674676545602 -0.19296772001240958
Ni 5.9433728460927355 2.318404233460132 3.384508904444585 -0.18702127262098758 0.5288790056003021 -0.23225571897875483
Ni 7.5205919387561195 0.2281680578362015 10.30849320228624 1.3434911332722088 0.8291470880632883 -0.10325293185408024
Ni 0.9184856638871794 3.140408923828614 1.581019830500631 -1.5870743614486407 0.4231657851311873 -0.019437539899321364
Ni 1.4127558023163636 0.2610634667411937 10.891637336888454 2.1396951907505732 -2.3873047664775786 -0.5034708499398426
Ni 5.031470848712534 4.007875757012692 9.606054497689891 0.31306754822049954 0.9251837046745873 -1.9866435902068107
Ni 2.122398028372156 7.276528635947987 4.744735667320104 0.31141638577032177 -0.6652351477662543 0.3674466371920123
Ni 1.2845210166616416 5.665180843091046 9.322092158570042 -0.3341649923207471 0.75363918753296 -2.3475963921443634
Ni 7.730590727534414 7.797353507252113 5.934268497242067 -1.2103900077084446 0.7463472818572373 -0.6597550984882896
Ni 7.228223963024922 2.639931066422794 11.168365895357395 -0.3041535335603213 -0.6692442689256475 0.7696756721705325
P 4.8723533488579465 1.3454153471252104 10.594200488114 -0.17377649179593943 0.08214237512771014 0.011411841381367442
P 0.4150066448549894 5.3393810455152195 1.3350969628350955 -0.7010554998989733 0.2948109160031568 -0.5540485628873941
P 6.5181324338231095 3.7158837288118356 13.395457975368442 -1.5430524473417362 -0.23977876682867738 0.2535259412114408
P 9.012076655597435 5.58393949872917 11.134653488282803 -1.260568171224732 1.4624023404888362 0.9476921701897485
P 3.2095282526999256 3.533008178929978 13.482690639640708 -1.336517273057537 -0.56803664963637 -1.971182518456734
P 0.3433987267218477 6.207856518414852 5.756675468634124 1.4177034549195646 0.09709951065817471 -2.1086069539862007
P 7.270614339434058 8.050457889692392 8.080045877275564 0.15650973429569173 0.4089630112682441 -0.025821074828161983
P 9.244274687569872 1.6546092672022379 10.641963246426254 -2.7216829032503966 3.2914658461539124 -1.3397188107139701
Ni 6.512557407031685 0.7759694568054121 6.940491145259291 0.7924551319588934 0.47628709043619905 0.16244332617130733
Ni 1.5225874978882095 1.6801461909096675 3.8423332221700273 -0.6845816706136661 0.00437293225671505 -1.5392752396874911
Ni 6.357327754807961 3.430658756157149 6.085341636892515 0.3657229696326863 -0.2032459620099661 0.11562585159713636
Ni 3.406057116549597 6.153399143226908 12.850079145606953 0.5048566745437756 -0.4732385334178624 0.7513933289215768
Ni 2.737787457735428 2.2155688297334453 7.909417964376117 0.420501865145779 0.3228827345387084 -1.8167363515582904
Ni 4.20688954234341 6.983307901184547 9.1746015238002 -2.544187567841973 -0.675837862982765 -0.835645037082806
Ni 6.296506779960069 1.9499022981085428 9.08821428299861 0.06380912403616107 0.7811152814660418 -0.7363747440255576
Ni 1.3782328156885462 2.2786913370231923 12.399058561235519 -0.3933628428371419 0.8747589723651321 0.7005937297712063
Ni 5.102708320986508 7.907955436788564 7.08269375708404 -0.16985658791624297 0.2941683973231514 0.3169298593893832
Ni 4.11045441608451 7.900665722480698 3.2765413584561216 -1.36084530827994 -0.10419472694205927 -1.4210538594490365
Ni -0.1011959057163135 7.364729594347184 2.38476814201759 -0.2860478250985461 -0.13958081975083703 0.2144138057013275
Ni 4.40715954259259 8.90661878861031 0.7109653779735596 -1.597653422516068 0.06910199700398421 0.47707410511386866
Ni 0.1702840584509627 7.054572881814401 13.257066187778095 0.08878841968931807 -0.03952608311908031 1.0525654112560712
Ni 2.4825374235366082 6.6841545310032595 7.032769758944912 0.9830463813193263 0.46659814528320925 0.7611031000101731
Ni 8.554392630486973 3.7310316634490612 12.866398019259417 -0.43292132185605436 -0.6868666099931009 0.4712546702186142
Ni 0.3291438967054851 7.745821187239276 7.284362098757056 -0.03504876407401706 -0.5240368470166524 0.6967010795850196
Ni 6.3931161258062 6.492485476692165 9.841073053085097 -0.1937231101211954 -0.5194839375386472 -0.7038348624163234
Ni 5.751896350272792 7.253751717280391 13.127666881724505 -0.024560720058499637 -0.28935683486712105 -0.06200009585188033
Ni 6.6882807843850705 5.240167575312568 11.878735258953581 0.33110846488261036 -0.07128692047044496 -0.6780356419650323
Ni 5.897901533825179 6.533656315990678 2.976662684624831 0.6574051101988743 -1.0890588781964148 -0.0942684689672828
Ni 6.370595951793472 5.9547429665226135 6.09597086560406 -0.6133011779011244 -1.2218802677362313 0.055293373255666065
Ni 2.8868185604344774 2.6536393971023657 10.171859198636543 0.5464710076504523 -1.121000721210334 0.5982396555823116
Ni 8.820288398410867 3.955481508515653 5.196023999688759 -0.5409025124237394 1.4912344342291801 -0.3906804109089723
Ni 0.351748429676241 0.3805212529802061 1.3554889070480047 -0.3212238587790468 -0.8980269417541372 0.5156887321622733
P 6.350835782820578 4.454198831145233 4.106997532695749 -0.3768818144629832 0.05775366187070054 -0.4859176715474277
P 4.431311879054123 6.480565189144712 1.3701306879370616 -0.34483481332976745 0.6416954127731013 0.4077499647967494
P 2.199045477302283 3.7867269146515485 4.587246662133539 -0.5754735655303896 -0.4028111327342353 0.49325354308720853
P 4.428377654427058 6.677295780937494 5.535145177071463 -2.0699511892872158 0.002972452364762623 -1.473061362864579
P 2.947236079396148 4.350785751945094 8.56628082495257 -1.0774477763200476 -0.6618212369886989 0.4138463075024743
P 8.630040609153507 1.7063708235140655 2.8327013719142338 -0.06793291639654753 1.4479144312853063 0.4605714794731552
P 1.5220373307706347 7.997623507501294 9.006456698491409 1.0004041558714833 -0.27667821095818795 0.7733271528801907
P 4.333244590346418 0.8267920612365784 6.641390040954172 -0.875400462603873 0.4942537022169488 -0.1470539881994306
Ni 7.734652794752509 1.814607034444944 4.8526087679533845 0.6494022944990557 -1.6526351780685864 -0.6041585921699079
Ni 8.478863854695916 5.3504210656745546 7.299111162234039 -0.7294301943869244 -0.7358127008745006 1.9328355432474194
Ni 6.347635644086684 0.025696472171526156 2.228930555128945 -0.008337573331417897 0.05887723395218247 -0.26297140289505677
Ni 4.312411595494253 4.928727139505443 7.120083114394422 0.7727846501131594 1.1551868801737397 -0.13361688885791828
Ni 3.7172499771538132 5.284997025942953 3.867644577359252 0.2909347208772022 1.0082123390619926 0.6456826795556234
Ni 2.306052981670578 7.360915102331998 1.352496914873594 -0.36872961766949397 0.8437293567528372 0.058505452435060536
Ni 0.31312486413209933 0.7587675649292406 8.032456421605346 -0.617209254706279 0.3911084995853264 1.0512304944947315
Ni 8.57694031285558 7.010504495696661 9.45471269309703 0.8333171602805778 0.9273418886681707 -0.0238040443981332
Ni 7.321954100955745 2.053874713878217 1.1102473296630657 0.3816715225421427 -0.39170936639411896 -0.20159351400820766
Ni 8.747281221908693 0.80459648582322 12.659495754407875 -1.1792986856202787 -0.32931177799350386 -1.0050848491766045
Ni 0.8214646096480627 3.82224937154296 10.650203832902328 -0.5559563214330683 -2.1620758724386184 -0.04253016005272675
Ni 5.635976138599785 8.85725962871189 4.8653854823138625 0.3216635174196266 0.4392691184509531 -0.01312933829310642
Ni 1.013572880708021 2.3478840215101804 6.0089793579183315 0.8434154250568443 -2.2912280406569634 0.7059267119483454
Ni 7.897328041967411 6.05822940133843 4.179252814137237 1.0682254863908311 -0.38910509600205245 0.21332880016726485
Ni 5.592118649877115 8.76349281297323 9.233275929944355 -0.4597096456934922 1.2392804654905496 0.507572530813042
Ni 7.808540238642801 4.252727632689348 9.607128240514362 -0.4426529473215215 0.9532113002357648 -0.6160620284757131
Ni 5.840684153597402 0.9239965045148869 12.622387899272649 1.3663988911083176 -0.6477444471806587 -0.8937280572684673
Ni 5.1524617673191875 4.406847781225964 1.7890361837652644 1.1096603564968504 0.9204487610927631 0.5879117912937424
Ni 1.3377588547389614 4.7892689446521945 12.704883624662596 1.8716720843642216 0.9556980712133605 1.0594384842268207
Ni 3.455214548504904 1.4788858898488526 12.327460729499533 1.3225425560449997 -0.5873536047974272 -0.38049858527996405
Ni 4.070154674722157 8.243218108786676 11.551773691814477 -0.3472457367641052 1.2436827083233033 -0.3602835437846698
Ni 4.746337570577443 2.3495803701227027 0.8090528394755756 1.4136282564089266 -0.5993046065117161 0.25121426235912864
Ni 3.1623881001757264 0.3068456234301791 9.110787639832703 0.586023573132094 -1.0159655006448503 0.290504575318319
Ni 3.3642352461619542 0.4284077988939151 4.641935107510865 0.22078268534214882 1.1700432284602817 -0.10726590966821525
P 4.228181009793554 1.11373080446251 2.5558380225014883 0.33883385855132614 -1.4563417361170532 0.9172523656426527
P 8.191933363976748 2.396848894974336 6.9033163531247625 0.15643800051749185 -0.002557219204214951 0.7956754386684038
P 7.345978065089843 8.086833105616046 3.763287044607275 0.7964038321939962 0.21170746251375797 0.186038339882428
P 1.6601017689260262 8.610876454557985 3.140660166812306 -0.13331735533962846 0.6555145780443807 -0.2310151617034344
P 6.3311764778192385 4.644547484374148 7.93659438609392 0.9222590748286246 -0.006995457481226662 0.7530527189018709
P 2.169281436241487 9.014946694060784 12.889333569445915 -0.28866006591041254 -1.1818242802556098 1.4136038309288943
P 4.614966832352545 6.2058850862435415 11.087790253207782 1.8647293344978015 -0.46664648202264153 0.971258644655779
P 7.477807275912721 8.518695954008331 0.3103511049143265 0.25538767701052795 -0.01861478688770988 0.030144641904180345
