# total energy = -340858.8122084597 ev
CRYSTAL
PRIMVEC
9.33643329190114 0.00000000000000 0.00000000000000

0.00000000000000 9.33643329190114 0.00000000000000

0.00000000000000 0.00000000000000 13.66481386383773

PRIMCOORD
 96 1
Ni 4.455812791708387 6.130330113093979 2.1402512918312406 0.40011455973867865 -0.7494729719704124 -0.12152524780070684
Ni 2.6059199072437984 6.191100957433906 3.7247962064491933 -0.45226887314473074 0.7026606396025641 -0.7177298752308606
Ni 9.147902700901874 1.090700810797186 0.056600259585487166 0.15669176839951077 1.7321362589187073 0.39537601661242877
Ni 1.7026386584806703 0.9550891171364961 5.054914910893094 0.7199829329310955 3.2867681835679265 2.394211263789425
Ni 5.867864300206591 7.401336123751768 0.3635102959037178 3.5223419111763206 -1.6130833839178929 1.9362070308228136
Ni 6.872950017656546 4.717214251199747 9.629908207300144 -4.277979102975916 -2.948921371520218 -1.4174553434645007
Ni 5.13620536833646 0.5113685891220483 6.458414246489874 -2.1954526481268513 -0.14226633700280014 -0.8543109889234254
Ni 1.4131065254609345 6.951077291498382 13.050990238549183 1.3517078647550462 1.829434001630617 0.6570155880699394
Ni 5.50263236600263 7.354429882860111 4.092379054557716 1.1087866956426453 0.21829925679866274 -2.921707530109588
Ni 1.828279041378564 7.857458236116611 10.798168636794616 1.0650823127761593 -0.2284746546697678 0.6568777769404944
Ni 1.4734198845692348 -0.0010774244026467213 1.4466392592958217 4.116106047485782 -1.1845025984187212 -2.847317545233787
Ni 1.152041177568321 -0.2096019939079604 7.466276619202803 1.4665130202231 3.6523741680067743 -0.3431034324609575
Ni 2.275531542109834 7.329305540853852 6.116275046406419 0.7486026535503173 -0.27426368797942446 -0.7659362597327584
Ni 3.228669344686944 9.214994310584883 9.38090833215918 -0.36911862557779657 -0.3826107465269604 0.08395500285641669
Ni 0.26043793957495465 4.737390283557801 7.5731629085340035 0.3652270038328742 -0.4388664836958958 -0.0006098656698570142
Ni 7.6635031707736045 1.7993080888533233 1.688164385938008 0.40770805581522046 -0.3440467702108333 0.8651900977297745
Ni 7.339230169450156 7.778640066210687 8.161323661536201 1.723218387603787 -0.09223241237386051 0.7366177132742991
Ni 2.0243067949138376 2.9148718215244105 8.355910803413517 -1.25470142803131 1.0596524000098395 0.7200765210861664
Ni 7.305703037475248 4.3641196802838325 1.730881369208628 -1.1492861984185885 1.538451458234615 -1.2974012808926818
Ni 4.221449643049478 5.886369111004214 5.224645666399818 -0.5961154101504572 -3.5120027340338416 0.15258494531998884
Ni 1.5581293438865114 8.631177799996475 3.8771994753972328 0.25207481058721104 -3.16386816690688 -1.2931635886622501
Ni 1.5178146249035949 4.393249352175149 0.37052849281419914 -0.08541384679013031 0.8592811884445073 0.20674806162595363
Ni 7.105483225388948 8.15194801521785 5.861439900453894 0.5590845826494049 -0.21390884104045094 -0.05756082913360409
Ni 6.162214032808351 4.462572369416499 5.900999301982962 -1.2821286710043274 -0.3788685058757088 0.1584563164991013
P 0.738328879818577 9.156959041201416 12.390092134648372 -0.20195526822300058 -1.9068298632122775 -1.3765161820479779
P 7.808395279133001 6.405157363668579 12.421398129141568 -0.06510187470565562 -0.19895916170915415 -0.21697025357459407
P 4.8028666902801715 4.332394479935536 8.819708397593056 -0.8058626636140508 -0.6270910325963651 -0.04933921255476019
P 7.131737275824326 1.5021294169621175 11.469520745059754 -0.1793331599481105 0.45281548967682017 -0.2129469913478139
P 4.600863619433858 4.364091670983938 3.5289113003433865 0.02258482727905143 -0.10557978021504397 -0.1683488930224649
P 8.944872622392726 3.617205016403957 0.5945515415950202 -0.27705616312289705 -1.348490129148697 -0.07978287375659808
P 7.664184730404394 5.695196302784161 7.00611369850637 0.7166759800450496 0.5384028859303372 -0.6019315026116021
P 5.410183003480898 8.41334013827591 8.175548651309793 -2.054069485059953 0.5512368044702118 0.15038613789645716
Ni 4.486352265027774 2.0400200121552103 4.232826087023699 -0.4895203012970215 1.2093065448362785 0.31493494044654147
Ni 6.247128893658195 2.0162494529772332 13.524421164606112 1.056672234335593 0.9814152734738066 -1.0139960356233053
Ni 3.980775065480785 8.491308692751671 2.0877786694070193 -0.38012268999778404 0.49664431393631236 1.5844785756970068
Ni 7.899397494493466 6.396819928733021 10.068877424408985 2.9436950901242724 3.032121241378165 2.367965956939651
Ni 5.6169476553094455 6.065077780770774 7.743126141229858 1.1087599561697679 -0.9032506520469218 -0.877089677380838
Ni 9.091734718178106 -0.051996464325997575 2.5084223352375683 -3.7152348120867376 0.2885716199616643 3.1381864458700597
Ni 6.701533102296114 0.13904750111453745 3.787175718246451 -0.06758787435230296 0.6507701213808599 1.1397052395983729
Ni 8.320489309122344 3.9110599180408974 5.556358871418839 1.642832075935235 0.011638869790508988 0.14551106919234294
Ni 5.600674252070162 0.5095153071122963 9.821366710379133 1.4713446372837886 -0.6431426867425891 1.2607882576553384
Ni 4.920309684741984 2.849264704735862 11.16674954962275 0.7283845267312294 -1.9728264818180605 0.6258946982954188
Ni 4.155683806894855 0.9851617687909597 0.312970315172286 0.22067624167127156 -0.3257487432325938 1.1007350289827624
Ni 0.36913269603607357 6.896496502435359 2.7899998270869837 -1.0484012525760524 -0.7712903249558201 0.6950236918825965
Ni 8.428101039320836 1.3479195481708186 4.967665008075296 -0.460986969744019 -0.84135957096908 -1.1247355056624178
Ni 6.650229401320866 1.5648235665615347 7.541282723392951 1.7630221498642862 -0.5138316243488763 1.02980523474142
Ni 5.41402961399988 2.5714591319390405 2.106348835237733 -0.6785573187964572 0.573149288272587 -0.6407636449874514
Ni 4.611843264992893 5.056500237267179 11.042166984617575 -0.4648387393899414 -0.015894302632753272 -0.7949149063532955
Ni 2.4335693485535175 3.4082369663169647 3.6234576257839612 0.90597036497093 0.12066598512420508 0.19223958359713345
Ni 0.946975756600101 2.1388274857532195 2.3458386194208463 -2.3028705099918985 -0.09744378137147089 -0.07645175250083608
Ni 7.219023590731988 3.114101971681069 3.5758222094516925 -0.4998911030083842 -0.8106161191386362 1.9224418587179213
Ni 8.04326259519003 3.0326882733181626 8.41308432000353 1.829159664923308 0.1340166953994982 0.0708367203069038
Ni 7.28467738968703 5.501315928907541 4.22634940324453 -0.16932565511343742 1.6627375566099105 -2.1648153828569687
Ni 3.8616328401586464 6.536063494946826 9.082277844890056 -2.9227974207396565 -0.2163292775564855 0.24310705987096193
Ni 3.841008659002263 9.185519190661523 4.597922642944831 -0.16579758735552091 -1.3297606710599938 -0.5014826158652201
Ni 0.3092861585926985 2.309534832182965 6.4820410245950555 1.3908122869556756 -0.23948694661987138 2.751527754525971
P 6.325330858966418 2.0936111392885914 5.329441528315484 0.9290470442847355 0.3056468302763962 1.081061461813235
P 2.2617229572613544 6.911985645277568 1.6477581699087664 0.3865460770256246 0.28613627104729433 -1.1768728497876055
P 3.662029232670048 0.08398215116332343 11.901411078441676 -0.19737819037527943 0.21769838998987023 -0.8807879521680315
P 6.038524964469843 9.400481230926152 1.8552716036878527 -0.42127036788068734 0.5936522933219454 -2.0038956924190394
P 1.395768768825623 4.810195790419492 4.751064423766782 -1.584989453895154 -0.05519824243869848 1.1524982775979828
P 7.290036502400367 6.6755871541595875 2.1041762472091725 0.024136230926571335 -0.733784100480246 0.3327380300662334
P 2.831320079936148 1.0394718012883253 2.9271538995285855 -0.06768120539705763 0.07135582603516744 0.2945921151241314
P 4.394145649771803 3.1773749801449935 13.608952298047388 -0.8317287327475353 0.5355916417337873 -0.6734151124738854
Ni 2.9014553668744685 2.736088460291464 1.4531299477249378 1.315851002957437 0.0013302887756493221 -0.8118134818808471
Ni 0.5950697136430868 1.2696802371294016 10.136094142298194 -0.5272658954769113 -1.0614100061308946 -0.24871772118952004
Ni 3.66176781253769 5.532630326190706 13.458038190210457 -0.2723320181743504 -1.0215890174792148 0.9126408350125702
Ni 9.281693790069356 8.190964969972274 9.620179643803109 -0.2999976024104188 1.3484312508863034 -0.6883519362893757
Ni 2.586994956947742 3.4869244261567096 6.088945438855055 -1.592294986417632 -1.5179327694559728 -1.7088711177431797
Ni 2.0665261462896476 1.3895040220823307 13.00443411390622 0.5543609519214904 0.654959219761543 -0.7350848215695405
Ni 9.300702768265099 6.4056521946334 5.374002457162557 -0.3989778750310741 -0.7194735973948447 -0.7034178294835628
Ni 6.021775403132338 4.542398874118661 13.415649849391944 -0.857509184145749 1.3401859801583758 0.011284571774883791
Ni 1.6455743781602477 5.221885816716781 9.766365781817678 0.4024756037716875 0.29006208846426174 -0.6016556232423961
Ni 0.3237931086519054 7.1738539264338534 7.4553725987534865 -3.0980322422486775 -2.3297333958210134 0.2779606772150374
Ni 9.064883136011625 6.5104723312756425 0.5832507227305177 -2.3361436702227314 -1.2033896651312113 0.8369100198381587
Ni 7.9207125717139375 8.518431031483809 11.705306766153354 0.45613709785088535 0.15870211396132022 -0.5240898117417747
Ni 7.868755320407794 8.77571512389053 0.6658081341724903 -1.7505134758743142 -1.522879571938287 -0.05223144650089069
Ni 5.652407428977142 6.988217623159808 10.027144501208028 2.5227538234482294 1.8883531445643287 2.1169239584923285
Ni 7.423500816402403 4.028101445870874 11.727990564495386 0.8470203687992831 -0.3995262913353765 -0.19789626766227852
Ni 9.232966944684492 4.31650387046149 2.8722752782433414 1.711827629268342 0.27337382917530334 0.931661341979131
Ni 0.13401049534999754 2.6502492925450687 11.97879423854962 -0.20860491232903428 0.9870683579945257 -0.05802542747484845
Ni 2.56350449076872 3.6589482096815438 11.90889889794707 0.5615749531714264 0.6498807767973712 1.0054849128285006
Ni 4.903093301739552 7.635988701842929 6.125075568433584 -1.043111464932023 1.1543152762020636 2.624861843064589
Ni 3.89773682772394 7.962997278122837 13.516987496413847 -4.025600902215674 0.687220393788094 -1.0345111248575214
Ni 5.814226490906718 -0.022356089533254544 12.53933875549819 -0.3179654997427492 -0.603623031381412 -1.1818577045967065
Ni 4.170519399406169 1.9643949024373728 8.884042024879689 -0.1815823609936034 1.314237121503098 1.1706867755815515
Ni 4.658749505884549 2.9020155528723786 6.896918509220451 0.45928129990682187 0.6507338688262857 -0.6766102223724154
Ni 2.965484626435571 5.17787387014766 7.359472490484631 0.20513957948825318 1.1824246328437702 1.1142382056755198
P 8.771896522671444 8.38001840783357 4.658581450085176 1.070790161794214 1.3542756254822226 -1.861807018644684
P 8.741786525283787 0.7876149775580205 8.24377743856856 -1.0011860283428304 0.3741939832181749 0.06654426357913701
P 2.4563689186684505 2.2045933219078426 10.458351407672497 1.1533631967014395 -0.21229547380674407 -0.8199978174638524
P 2.8461183267142682 1.3329812548932212 7.22727886505452 0.24414604265843762 -0.6617749571317958 -1.6834382794923717
P 8.98893125112834 4.502121500868939 9.806936319072973 0.560890525509892 -1.0163586223182108 0.5436618203364314
P 2.0923227114933987 7.375044727583195 8.406853184420113 0.7489934612308327 0.03361126029654211 0.9525235301401208
P 2.4424669694869863 5.861973010795238 11.67503898304295 0.18968570682702815 -0.9862954843842433 -1.2517171485920056
P 4.997484642387372 6.719038914730799 12.213350651377807 1.5180890925281791 0.6445945886977673 -1.0101828325248021
