# total energy = -340856.1433568833 ev
CRYSTAL
PRIMVEC
9.41072718071356 0.00000000000000 0.00000000000000

0.00000000000000 9.41072718071356 0.00000000000000

0.00000000000000 0.00000000000000 13.77355047985111

PRIMCOORD
 96 1
Ni 7.820022514703708 4.670035696676599 0.028569085429345158 -0.8213201358197015 -0.2672013818160044 -0.3531039953170951
Ni 1.430534042163577 2.621988561521793 6.749287861930608 -0.3100521584329434 -0.12448767286314044 0.045335490712005794
Ni 1.7775075515449446 5.033910871988233 11.68404731284908 -1.9887362110697815 -0.23397295878017768 1.2108430360854632
Ni 3.5417083349243006 4.676529098398137 10.512813622880822 0.14713369239743046 -1.1898468934497703 -1.8556813653629205
Ni 4.367659623176931 6.487162409450064 11.538158456547649 -0.0690991687905068 0.5311744865026982 0.45634741408947854
Ni 6.078736851892391 7.6095986560173134 1.4853807009654634 -1.7616666642776564 -0.3730326159202221 -0.2801785108019626
Ni 1.5540686572340736 2.295925687829208 10.477580801568836 -0.6060162142039369 -1.3062273638247441 -1.2481222321518957
Ni 4.983666999826933 0.7778511797321521 -0.18262739395464161 -1.6106367221496132 -0.1209878872399981 0.08843874965938317
Ni 3.29394271097549 8.238790461380178 6.522589091740982 -0.15448216234270168 -0.5540259371795749 2.2238232288497444
Ni 4.616432194928937 8.63309051751172 8.595343149909887 -1.3118606508511212 -1.2890457098391348 0.064950693839772
Ni 1.7879722801164684 3.2302038561059483 2.3940362824780963 1.3291996563502013 0.5050844742838656 3.030048418009536
Ni 5.322396712240086 6.01955278895506 13.750466069512273 1.276033613850183 -1.0713406349810453 0.07956330154662426
Ni 7.4797588537679305 0.71458756658281 6.155386283315237 -2.2886924187193034 -0.5653138513885683 -0.8547922994352182
Ni 3.458724543068459 4.7680954733989696 4.416585052466945 1.3639949096525155 0.6520613293884576 -0.9114360160711915
Ni 1.5781789401479618 5.808357250643787 2.0039004731027594 1.2368194055445667 -1.0987318825098045 -0.149796069720942
Ni 3.0019937231388156 9.333145098183556 10.470501111546932 -0.21955061270726062 0.056373236583406136 0.5123457838319693
Ni 6.325439063675211 3.7923065877400433 3.1967035496590865 -0.8682911052526014 -0.23163454045498819 -0.762074719894823
Ni 1.7326372045763967 8.989568861297078 3.0691053826127046 0.15057151443438585 -0.3692572080381899 0.11448556734510605
Ni 2.5715752962721057 5.683928616495686 6.856418638536156 0.1135309167413206 0.6641923083240368 -0.7520420182491694
Ni 7.87370130226843 2.4496122726327636 0.5661229942651699 -0.27318073932789083 -1.8310327135763047 0.7371242205970724
Ni 6.7871763904394316 5.3521628421607055 10.590070046203722 0.8977595470253634 0.6706447488176 -0.4045738810616129
Ni 9.014337895110256 7.152058513554262 4.332098367488015 -0.6004019533409531 1.6858458604926 0.9695198075878012
Ni 8.594271268089475 2.872765618153057 6.298286292679332 -0.5439798657974826 1.5046283390375828 -0.6372522894000832
Ni 3.2756294359753233 0.9993062927634573 7.093157713503623 -0.03499271402510103 0.9469864023719755 1.2420796255022415
P 2.7126797388992885 2.6353517940501776 8.543430755827965 0.6124051484494162 0.45091313044778475 0.1340334075700466
P 6.34058092363167 2.9713429848677255 10.443285288679263 -0.956208435190876 -0.3774374298561371 -0.1847623013834818
P -0.25466368693705427 6.757786689604118 1.896218227887237 2.5506544065132393 0.3497389354996041 -1.2555794597608891
P 8.577350780704943 5.5442922473011995 12.074541670928172 0.16431226105924604 -2.0196020474107024 -1.5667603324816373
P 1.8216626832514098 8.08943281105765 5.1947082022132305 -1.145532644913427 2.2752661180110687 -1.0274773579391916
P 3.617765831610501 8.369383121800174 12.43972023194768 -1.440374157044203 0.5796045569796276 -0.09629604092027286
P 4.939690671935988 5.816450475977879 2.8171039903814816 0.11206924459412958 1.1905490617231174 -0.044862407730329186
P 1.6329587827872065 4.526785608263168 5.40366681068507 -1.8191439325585188 -1.8807696757901158 -0.030497397257908763
Ni 4.346240808222985 7.10915500855644 4.843950639451818 -1.0229347328738319 -1.2245035642916913 -3.462423123333501
Ni 0.4808599242977961 7.179368443693256 6.779589462225077 0.47382705893148075 -0.1036815347510666 0.2528075749881775
Ni 0.429114100086123 0.003849928469973353 8.751576277475541 -0.3630685627289747 -0.06495635026672684 0.8119116980216083
Ni 7.636193370894225 0.9413456243533721 3.0916384276591584 -1.2102596527781673 -1.9316307243060409 -0.8700402267332242
Ni 5.544969819654752 7.809830697219032 6.4296995685052964 3.2663327985317103 1.3716565399628313 1.3197253983111787
Ni 5.2161872458208265 5.297401820975727 6.524874957361506 -0.31669100390569976 0.08561670682955576 -0.507376612752152
Ni 6.02114320184048 2.407631018893944 4.998118112411854 2.4337527735274733 0.2522092792825463 2.4620572768991207
Ni 3.561734362262612 3.3744420708683083 6.175592055541782 0.9424082960829899 -1.1486827605066345 1.2086802241061894
Ni 3.3374861454183318 5.184416631020948 14.025882291922283 -2.041363350347194 -0.10364116843143441 -0.6850961483562394
Ni 9.075808764740824 4.893568698258796 4.468318642733345 0.2935050527075397 -0.8747849405070611 0.5445771330618492
Ni 4.981389603860828 4.0964330564863864 8.639101148931353 0.019043646895012364 -0.21244999710673734 0.633075018093942
Ni 0.16446280844317115 9.402417460607104 5.97181217021105 1.1799700006556904 -0.06098399588254014 1.1787965491728796
Ni 4.9620787917846 0.3482533682714101 4.9421431074267606 0.1348636167808258 -0.5895549833241202 0.8691154009261096
Ni 1.0017530818179503 3.375806626302545 14.183313405051926 -0.2762516649437307 0.7154415934173162 -3.394446498183212
Ni 3.377453503550761 7.391279197266613 1.4349702589339153 1.2731969157323362 -0.7322792337999453 -0.1891419185084162
Ni 4.121785555381786 1.8572446425400173 11.606185779771549 -0.2659937346611484 0.5007598787665827 -0.15953592271652522
Ni 6.785266012831501 5.913757394529638 4.076158585951772 -0.8910194000880526 1.920328411919344 1.2213853303776836
Ni 7.88803383969148 8.123462000369367 2.554208740421485 -0.7140963922433314 1.9157001691187137 0.46303176808818963
Ni 8.96230598479375 8.9836401032035 13.430175735842864 -1.0355125695388425 1.3525046496247288 -0.383251722545069
Ni 6.94740343060019 0.8057398695898056 12.308788785350908 1.273102556246317 0.5166133008590715 -0.3632343988828777
Ni 5.702712427852486 0.35837178208445186 10.249587115325754 -0.4642949510713294 3.1279215736089423 1.6670071305195422
Ni 5.957253775336817 6.563266959771928 8.48562254119743 -1.5041130899640611 -0.8529017672807245 0.9054394321681245
Ni 8.388458665698087 2.8851407243325116 12.020825240454919 0.22116115172749007 0.6026766083077426 -0.36560341333568647
Ni 8.279209534414976 2.700935151437722 3.9730358380320263 1.6877384495296226 2.249287948779752 0.14116359085692465
P 8.56187013457171 1.5239260982281468 7.864945561744198 1.299411626454491 -0.2551714472346638 -0.5069204990513398
P 4.363829457233937 2.73443734003001 3.989509315877757 -2.5273571265481958 -0.7835485734978828 -0.8154829603126343
P 5.781301410137374 7.794293586723001 10.488200807138048 0.943630341415549 -2.2837672135035443 -0.4654416630812629
P 1.9336126932215958 2.8627055508482377 12.378331235643165 0.8568183287263116 1.4998445444956943 -0.486985964910942
P 6.9129507585675025 9.68335589769856 0.9539494112021505 1.1430263335518058 -0.9581799570949497 -0.9457530441855067
P 0.10418616008573695 5.764785584019546 8.364856562049363 -1.9146113069299093 2.617318997720324 -0.752657283235665
P 2.936231561935751 0.7683096434923429 1.0402805986990817 -0.09822925338724374 -0.9976121949486433 1.8900837541021904
P 6.988405968717213 8.54862924149605 4.66926119383358 -0.0050136511645074945 -0.871021616809887 -0.28759202965721437
Ni 7.86586216656692 5.2217678070104965 2.210929882512402 -0.584174178628181 0.175437167327814 0.025616929237155885
Ni 4.401961723575496 8.879482175299161 2.8551741459239657 -0.2709387373712495 0.9393306855989307 -0.4813341659418033
Ni 8.225041389039355 2.525575662047638 9.646787694206449 0.941102947008005 -0.09288033037050455 0.4907760280809935
Ni 3.938586930290192 3.9645228942678177 2.2432434962678345 1.0639559124812 0.047209310695950954 -1.0371909856825299
Ni 0.689115551452825 1.3586643190514125 1.693801956918027 -0.407435261769808 -1.5888566501600443 -0.02316743925539881
Ni 3.466582500224234 2.7746870199764198 13.901644695534976 0.9053119054513247 -0.4942300480678649 0.44860042315420806
Ni 5.343147365567614 4.122049055741501 11.947026318280557 -1.2788137476984816 0.45622065870362716 -0.9918809488918208
Ni 7.6505917834072035 4.503249379704372 8.25844194177861 0.05835632845170594 0.4685884362403607 0.06360497844515497
Ni 1.357826764336605 7.7569894643691155 12.282838705282582 1.3009542883512628 0.4278935296241599 -0.44486126782675
Ni 7.605128560629297 7.079501807361412 13.14941610256693 0.6228158022597791 -0.26766572304693254 1.2783460640334434
Ni 5.703474696750232 1.8336519496184254 1.7191459861590077 -0.9863240236293335 1.7458975743688576 1.1241176695727608
Ni 8.031067481380859 7.3909874647255 8.516833217732913 1.2437536707705548 -0.5549433067875217 0.6023719325831304
Ni 1.0700749608011 4.2446049551902005 9.05207396983953 1.8065015612041597 -2.2750699428398624 0.8846698037209407
Ni 7.553077828858525 6.2665373225518595 6.450139667837446 0.6334830521656379 1.2153851469301906 0.19720978311821522
Ni 1.821625040342879 0.8045051821899999 12.99483549868577 -0.21630768028993072 -0.661705537346441 -0.7839481229291467
Ni 2.0121075682351566 6.855902930689285 9.978041524985414 -0.33124216224699726 -1.8354210724519873 1.1154072862829565
Ni 6.366046351252662 2.4839708373941245 7.547960275443782 1.0240822162147136 1.2660731602033615 0.1401598321827586
Ni 2.5859925302393485 0.9380434002025199 4.8380839921573155 -0.5234586059156792 0.4354307185414694 -0.2791158738654032
Ni 0.5923271639660762 5.836137717139414 13.607083289846274 0.26784801426106775 0.5211898644861604 0.6804987587935442
Ni 5.737118046249511 8.196112813833542 12.78714357408599 -0.5890353633752242 -0.30653591774956884 -0.7577611801211337
Ni 8.868038731105841 7.217980657118582 10.96140416384071 -0.1286286916147075 1.5992981572083427 -1.5698268872221028
Ni 1.7949456289217731 6.3904201345262654 4.205836523694473 0.28659469874095156 -1.4013990613325864 -0.5850794640512699
Ni 1.2866628457593907 8.08336289205708 0.911018615095645 -0.38130719722418843 0.01710374955982216 0.010479559375085178
Ni 7.1553146251421635 9.458345411956534 8.57223040407206 0.34120544410729625 0.3324045579862146 -0.5151025206415001
P 0.3303861617373319 1.0279525461552903 4.186911551430683 0.5399871996983217 0.866686993990275 -1.8274079723395238
P 9.134390541141665 3.548700505183871 2.0015176769927683 -1.5762137645850531 -0.3638280666028186 1.6844906320162862
P 7.072246136742127 4.419202175682539 5.708268521151612 -0.03112963152526897 -1.9417050778229075 -0.6259078109215415
P 2.306409237854997 8.329914532205777 8.651015129481308 0.872303054625472 1.7631674171928993 -2.063581024094814
P 5.378211734863923 0.7451131421830363 7.424894314584492 -0.32493473197173073 -1.0704543757213498 -1.5839029056991947
P 3.5944178175943584 5.906115884097913 8.646222246152641 1.5792011293481514 -0.3343431697698242 1.0791495895025027
P 5.833587410086462 3.5641717405899724 -0.001861441826841186 0.1604908304306268 -0.9403077048002192 3.3350028502045985
P 9.282186010760173 0.21832886947783373 11.107569695519839 0.060751825267076016 0.014386093518342967 0.9880410063204402
