# total energy = -340859.12949333165 ev
CRYSTAL
PRIMVEC
9.33412739160742 0.00000000000000 0.00000000000000

0.00000000000000 9.33412739160742 0.00000000000000

0.00000000000000 0.00000000000000 13.66143894566899

PRIMCOORD
 96 1
Ni 4.113559166586858 8.362603188672132 10.408527182096828 0.47820796160799584 0.3916823698109254 -0.38277863956339236
Ni 2.519448930514774 8.260963878198673 7.955916202410989 0.7826713130992521 1.037840960561703 -0.04587002305923713
Ni 4.796826607671231 7.995398626818344 2.9474139930138925 1.051687379526492 0.7239462884542177 1.0123145341558244
Ni 0.48779681749359743 3.815305801947454 3.0854087953013924 -1.8665712728025465 -0.27316325582639406 -0.5891649469745531
Ni 8.893901705721388 7.791830647929952 11.771310678566312 -0.6189871725423082 -0.11318150382170185 -3.2736403879367173
Ni 6.9011215651923346 6.905228581135793 1.7863017807970938 -0.8108207789502746 -3.1225921909762286 1.1938871249574148
Ni 7.688548531079109 2.8491676377573585 9.718092064778405 0.12705337670778766 1.2633621890301017 0.4348298517326769
Ni 5.196243242299739 1.0568472117776688 12.15187704342706 0.6697268649890207 0.12931363349687405 0.07130029020688367
Ni 8.540922353635397 6.265906210646429 6.18971079735541 0.8501000361658714 -0.8661866573150888 1.1233957038050715
Ni 6.593758092460168 0.7290793371082273 10.113972932044682 -0.3370135175131357 -0.5347040969225114 0.5911572948142335
Ni 4.488585726987507 1.3889554555691743 3.1182509216583463 1.5377189509439646 0.1905017749704203 -2.8024733923359024
Ni 4.051001846466265 2.3926261450061963 8.397358811093653 -0.8505283819525415 -1.5547152283916452 -0.2173932000446256
Ni 8.395758008288418 8.305683681346652 5.397183664397032 0.43193993177939155 1.9466889041907438 -0.3646217661487075
Ni 4.745768932192323 7.028747085635316 0.7594964572331114 -0.6739910395820135 0.14232932903025167 -0.9391064854032665
Ni 8.37081722055905 7.930918476506041 9.315352480886553 -2.643304108930177 3.4781171370299906 2.4501029327507227
Ni 2.285209009830462 6.918408368663439 11.74550368383796 0.9799721132693767 -0.43227751762446837 -2.3955459234404484
Ni 4.581936332556896 7.136425576371089 7.54540409084614 2.198113482788466 -2.9723628903726103 4.809573450624852
Ni 0.3720256385237817 4.176499185920363 10.18893344031452 -0.19333693042637026 0.7788136299160587 -1.4643067566004007
Ni 2.6638012068002053 9.021751245215832 3.390755163157692 0.6160648566891906 0.016536307092126362 0.08224007704783902
Ni 8.349507408288787 4.063378899059507 5.4151891956582405 -0.13415527785989154 -0.4863179923096399 -0.0762028697148236
Ni 1.6902704139118838 6.2488714286082185 7.644039679204589 -0.9520514755997087 -1.5805165057254653 -0.04046196466978838
Ni 9.162752569856485 1.3159345789199066 6.44936007895173 -0.8222531891569322 -2.554142107951524 -2.51710870934731
Ni 3.404660212364444 5.03220529186714 5.483783829215717 -0.47536637839414264 -0.14658064810743787 -0.08227452983020024
Ni 0.4262485165172959 6.133856313937086 2.236172172878278 -1.1255741995136292 0.5765174334138715 -0.37251556707448746
P 1.2823223870735545 4.734521308983533 6.178317561763169 -0.5050369088753818 -1.447443919406791 -0.046881495042887
P 1.6332949018235379 5.422950522378663 13.060130551544962 -0.8327558884604691 -1.626202180688038 0.041725661873560395
P 6.34952132160439 8.825118522795599 1.6748924394417741 0.5363894550447342 2.379480899557786 -0.40231593826537165
P 7.836625124095085 5.868505747481073 12.723553127676801 0.2478630864987086 0.41630788166908944 1.5975932587020938
P 3.982974727839158 2.5861599372145463 11.5076169196784 -1.6739678781080913 2.401579017008406 -0.3713094625815283
P 0.796191711275201 0.32416396817905635 12.427796642048477 0.17536234822582056 0.3531140226194241 -0.8463107443267683
P 1.564437045880594 8.660445851717192 5.786042467812708 0.18906992761990019 1.8223189878523907 0.6846269220293048
P 8.671702809053125 6.779469886121658 3.9267347449697767 -0.3998001138220534 -0.7201287144803404 0.46229488992216505
Ni 1.5278846039838112 2.4374019529170416 11.144141341618727 0.5636117810957971 -1.7496902086420703 1.3401085899532208
Ni 7.420117702665503 5.107158332835262 3.1784700429293102 0.2879625256227557 2.7172359232226366 1.2956146213059043
Ni 5.359777149866551 3.410755397389622 9.861222503820658 0.13094679822492286 0.5788383682375644 2.0078032550035614
Ni 4.41850510038867 0.38509995041469686 1.0350585587849055 0.9115995382322495 -1.664392061494198 -0.0924185602427376
Ni 3.1135381208632276 6.312782197164724 9.45491728335971 0.2461139650180858 1.0266913717027866 0.5265277317593061
Ni 0.23287060423225475 8.567300596944975 7.640173483741452 0.29340040880887536 -0.1271626485921423 -1.9072399541665024
Ni 8.46613732695587 5.9215982626774215 8.82613594265432 -0.3543124138028995 -4.08950592839975 -1.9354763233043764
Ni 0.33965861923846896 3.1938116143035575 7.297681023501996 -1.3569631996167146 2.664829127486146 0.5695070635343096
Ni 4.539456719923531 9.382851287917298 7.34104271115049 2.405880215486921 0.5843582696145291 0.3076183521804702
Ni 7.397127747509278 1.5177104053966064 0.6341437967497493 -1.5472610861064449 0.30484233209722983 0.8677267481086991
Ni 8.832128452280912 1.0378802654206045 10.785105074428849 -0.3098770663076599 -0.3703134172168461 3.5265279242332106
Ni 6.121488595470988 7.88422917253063 5.917902881741023 -0.7014797319205854 0.18424653808932787 -1.274535946258734
Ni 1.3786692474562392 2.66416523775883 5.122178810235747 -0.7681255540745932 0.7342846942657483 0.3468042783513124
Ni 3.5737665938363583 2.3157316055920756 4.796913415053672 0.5982414553545246 1.8337076893053066 2.366433836565841
Ni 7.518154040061292 3.0164071938004278 2.9567863900794085 -2.0201697469887145 -2.417537597220192 -2.1432944780660574
Ni 3.075352206716205 6.525740307960205 3.442777987383313 -0.361215568680636 -0.6197636456970165 0.8800716428272971
Ni 6.671306020774384 0.7416720080385005 4.043034235535956 0.38763416788348076 -1.461042226916516 -0.6323350546041239
Ni 7.539230499152951 5.111480033703037 10.876786738064851 -0.5971448798562362 -1.1538326801386902 -0.7110915439787366
Ni 2.5309859116650357 5.755600145544534 1.3768266907579694 0.9829481651785654 -0.5171488616475673 -1.8404748328258107
Ni 2.1952000217787053 2.0870361564314326 2.84697505129118 -0.6189213523013792 0.18295995806742038 -0.931117553660519
Ni 1.772485405798213 2.70117505188568 8.750793668584283 1.3086519141058366 -0.7572456739372959 1.6636574973210185
Ni 1.3433395762153495 6.627444957323673 5.313493880421915 0.23197418318259405 0.5807114168905613 -2.2483266133077473
Ni 8.337102353314112 8.606167902373526 2.7594470742343584 -1.6747986015395027 -0.9870750428627452 -1.8443746821008493
Ni 2.761744202924552 1.217347528022608 6.886006813107692 -2.9148349713594706 0.18818881056652753 -1.3960542520809054
P 7.33933083223224 2.2856197114248076 12.220826373816017 0.7943664900489932 -0.8135433200877602 -1.4371178548904346
P 8.686012025965221 2.160869102142248 4.31570275767304 0.9987468227737186 -1.9954388199009374 1.7279019091223855
P 7.525257310818046 3.9325797753874903 7.794698091788659 -0.27616707564972437 0.6786087408596829 -0.4220797511558602
P 4.432440952214997 0.29919144441739826 4.867980658891654 0.6687421324782483 -1.343259476877377 1.7069397050484219
P 9.288959302973543 1.9364393490865153 1.4395193557221528 1.5029977454126953 1.3050901648965072 0.37532038351313424
P 3.0973714126494305 0.6662102571410179 9.185445699769524 0.5489917171897771 0.251934685464921 -0.5342132733290219
P 5.0787919204439635 2.518450178910342 1.290877114601236 0.3113163698573478 1.2238422765586083 -0.14356500120956564
P 4.597113623293405 3.457939410103677 6.45505669674785 0.48866849481968744 -0.9242550222127308 -0.7426163540598953
Ni 5.2332997270623105 4.919346360566322 1.7137457436796084 0.2650521966834854 -0.9537250066473897 -0.23146973274234975
Ni 3.753905913592746 4.625116004726078 12.980688728833181 -1.003620348815936 0.8006970602527114 -0.5483921359325653
Ni 6.4547076003926565 7.27337588983115 11.12707762378637 -0.49464579544904497 0.3835653971307459 0.6713798272114115
Ni 5.365536306314538 4.2797159638811975 4.08865011488978 0.10354218095972491 -0.7810566603139645 0.07779849633671762
Ni 6.384514964268088 2.4643215756009846 5.464302572453007 -0.163280477360622 0.910858803411483 1.2214948593723545
Ni 6.125296919345831 1.8508640714282654 8.102148371903267 2.6849510950470017 -0.19767361012851117 -1.6197625957102812
Ni 7.119848166562947 9.190045557626197 12.639262225913598 -0.25965262293446895 0.1613799179037995 -0.6414663274814307
Ni 1.3832523038840532 9.099551194962942 9.919256505927159 -0.7887789686588867 -0.7584525497612034 1.4357389722650369
Ni 7.915526500845215 4.582561719075559 0.9034688345437726 -0.20966292127990344 -0.0057147909965901585 -0.5473549529173025
Ni -0.19918093913060547 4.009212959241573 12.386116030698657 0.10479945040559371 0.06850781506341105 1.0613704111422109
Ni 1.0093085022321335 7.724643600745825 13.373468799062147 2.453048902752924 -0.14262500589379953 3.296134712384491
Ni 6.007994943524363 5.6252023893397185 9.05306630837199 -0.2956089864244199 0.40461990380819995 -0.3551518789850593
Ni 3.36865848396917 1.990829307955911 13.569127972021237 0.00906288153321665 2.779564863168845 -1.0185412317918265
Ni 3.811693494742639 4.497901185877444 8.128815973154316 -0.5234771178584404 2.689306800912536 -0.3037187600157479
Ni 1.7720933724581553 0.597126515321184 0.8179103583143825 -1.469698102819301 -0.2572740953999634 0.9262463416111468
Ni 6.411546596477763 5.6368513800157105 6.301283485935754 -1.5764235666030142 -1.9570440221728234 0.5344094485002281
Ni 2.7040312947918124 4.282777557584502 10.445208434948203 1.675678947261927 -0.44363048074344236 0.5689679032013879
Ni 9.071072773045913 1.2873161450957147 8.697240980919725 0.02333481807119852 -0.15642025990567898 -1.073287731405087
Ni 1.5102151012997942 3.420640238035356 0.5748394199389193 -0.5822687340753521 0.42781871052216647 0.3662914405416466
Ni 8.19681042233642 7.658137944843226 0.25371090990716466 0.003071182726156001 -0.2767625431418782 0.6101700884713104
Ni 3.744777137245694 7.603383955015206 5.783761207138658 -2.8591582466224565 1.174620563418319 -4.432418585006141
Ni 0.48522806570350685 0.11483589942996451 3.9479642837466007 1.8413412945911645 2.988444883536137 1.559573842035527
Ni 5.789296344535185 3.5510286601130274 13.064884422499516 0.6674249563287216 -0.6906006231142364 0.31252453123283597
Ni 3.0199261597338003 9.202627961016612 12.520749613801522 -2.3438400104257244 0.9278260273934407 -0.6288033873017815
P 6.069320158861917 8.202112206554338 9.18201727486945 -0.3974938342863799 -0.7859417563204077 -1.1347460958208846
P 4.766248007146753 8.276981240378163 12.599480176024912 3.037065472757318 -1.3194785724076952 0.11571404043556845
P 5.1465856858924655 6.347691832684123 4.4182596128447775 0.27354377909426436 0.20918855274664616 0.24766819687908317
P 4.688364050255343 5.87822257383821 10.959520707420399 -0.4648986460935993 -1.0765288640502042 0.2579263842719816
P 0.8530188107419538 6.8065015183313315 9.631382690672133 1.8830975525923441 0.1400960688243587 0.8059827341316829
P 7.162187767289148 0.10995135069539186 6.790527093136705 0.5895606397510751 2.2021472865382075 0.7778795481375635
P 2.4639762128966485 4.32227958365886 3.124083817710772 1.569319351458065 0.3987948124859906 0.1677580535160014
P 1.7967261339917635 7.901067937898811 1.7507676921717457 0.13066346265654916 -0.5316084887163232 0.923093397804462
