# total energy = -381173.68334008387 ev
CRYSTAL
PRIMVEC
9.15457522112515 0.00000000000000 0.00000000000000
0.00000000000000 9.15457522112515 0.00000000000000
0.00000000000000 0.00000000000000 13.39864619475700
PRIMCOORD
 96 1
Ni 4.76006784881823 9.090337546537796 9.296717374405336 0.8328880431629593 -1.147449916540798 -0.0012408143856365728
Ni 7.793015231117985 7.432709460367998 12.534085505479677 0.5666138011469146 0.24689532326880065 -0.08695290914247605
Ni 2.9870738059689415 8.046816673982782 10.159282505340256 0.2752232236792163 -1.1922184790057402 -0.48113773366028095
Ni 1.1182038970424995 1.623829394528736 4.490931577034705 0.30959090252580873 -0.07512789148308997 1.0553411742289953
Ni 0.2192200350440716 2.828086298458015 6.884613142153055 -1.9012120028048676 -2.028801711632099 0.005228081168158738
Ni 7.957861666757372 6.6909416955791565 3.3472093016201954 0.8389031390087874 0.7289319145942672 -1.5577948957582335
Ni 2.643859627118701 2.556579907155024 2.8655413274342463 1.1054378337750705 0.8491027052496086 -1.1553295763991909
Ni 6.748057090256457 3.702934122939742 1.4653298258760084 -1.082921397840109 -1.0434302817240222 -1.0278851349005715
Ni 2.702705236508937 8.779887592330937 5.1247815475273635 -0.4059162540221203 -0.27648409266951096 0.5028329592455276
Ni 7.261674531892922 4.188447018709994 6.143640909949157 2.2612176103378023 -0.0303097067271349 0.03547351031626148
Ni 1.0969927463024283 4.158493248653234 3.3394114344642207 0.7631011042768083 0.7162296365362504 3.936127026423556
Ni 6.874674019857633 4.608889193953519 3.5250231930314047 0.4895143877597504 0.40887482242981193 1.4715004461353627
Ni 0.705284036241407 3.8558796108181914 9.858482388852476 1.0315091048064042 -1.2185272921035981 -2.311957817005147
Ni 5.260447774714454 4.781892356096749 5.5327295585369445 -0.3450957803006379 2.6955155008264096 -1.523503321565215
Ni 9.051796784942761 7.9127296110178165 1.280013760087808 0.20561960444846525 -0.7487800596684459 0.10487864038296131
Ni 4.005959716658816 4.3866618809560105 8.461767935020914 1.733291455569073 0.7058382659995972 1.084112847045049
Ni 7.442770338513591 5.068027758570493 12.324677344135738 -1.2918068175240398 0.2608314737339185 0.3068598767478909
Ni 4.903968616398367 3.393482017429761 3.5385426696878297 -0.9104206874327998 -0.13829963904556827 -1.8899816813066868
Ni 2.329262650345915 1.4978532851916109 6.943661067655228 -1.1333399595019773 0.16654269305166156 -0.7437332412731579
Ni 1.5605346615909492 0.541981977438381 2.4172628353778878 0.26345014230368824 -1.2525062201522041 -0.16549291163090854
Ni 6.657234549690101 1.5806930361829372 2.970989217341274 -0.6547298773595562 0.8616843985693611 -0.7355964710986364
Ni 4.476422490799083 6.763647331823285 8.32033157908481 -0.8563817554095252 0.4049623747492832 0.7789537550383487
Ni 6.835281882768928 1.1267176519791704 7.258020025472795 0.8514946025205529 -0.006511061645640399 -0.6394266713435827
Ni 2.0385591148470112 4.762795912228044 1.4307877827286468 1.3793443955253921 -1.1981849810018204 -1.2354328096096854
P 0.9731313438366698 6.9305077740068315 6.807825480826925 -0.1730226443490504 0.36009251081978627 -0.5138478222987924
Ni 4.633716401897874 5.092012745596382 1.171405710821491 -0.23164713886047844 -0.9264378887966626 1.31826424038462
P 1.0877466253497 6.361596698158008 2.3904390145822547 -0.2259691146390947 1.0351834683341978 1.0071849262387427
Ni 4.584235922937976 7.142500271929933 6.13099294885184 0.04475365006660679 1.083730781115282 -1.9303261465620047
P 8.659797874847877 3.514661129361708 0.1107309952553641 -0.34607999859077815 -0.04152434449603171 -0.04590370451064998
P 8.392758916242837 1.0632032092365662 5.641071209664921 -0.6691488809983637 -0.36227126363865997 -0.38531991792800735
P 5.717032212850426 3.4598709967853916 7.404962858392132 1.350619516786874 0.2871420866039894 -0.7497447375745604
Ni 3.913498507131531 4.19856282430679 12.466515585923155 -0.8704372050613267 -0.5108293471874428 -0.27772490705514746
Ni 6.774843377293767 6.282446240972572 0.8323275690469362 0.15211263366926062 -0.3492583963187598 1.6545678763149247
Ni 1.9465556340797623 6.323074245713373 8.741544569560237 0.7874121702183471 -1.0749268096704068 -1.4051855249582121
Ni 8.944953737775142 7.261711150193725 8.679361202051817 -1.9429587477243506 -0.3222103910620322 -0.3764403560501904
Ni 7.567419034446611 3.20054934507456 8.851158706641113 -0.26396590559784217 -0.496941533461757 -0.2546001481122261
Ni 0.12406188766265441 0.04030118640613519 7.431760130919684 0.04365836011989901 0.8780759525535071 -0.9451892012622366
Ni 6.883416639174321 6.7010117282999495 5.299351972944957 -0.4416247631673233 -2.2415265596667786 1.4600335831463436
Ni 6.351068936677179 7.87748449649504 7.600944919746692 0.6876749648270093 0.29493407184458237 0.002420179405718412
Ni 2.8087609902092927 6.356094798462375 13.435358011278286 0.1902374655654401 0.008481040887817651 -0.3661232903948985
Ni 8.809850516962898 8.023344343168132 5.124245089420603 0.7445536802919241 0.2440858788444635 1.536406145669812
Ni 1.824003335867707 6.70646785511958 4.606481540675729 -0.22915933944161823 0.7733726614061455 -1.455545722578319
Ni 8.268979904953884 2.8935964385943764 4.28093477650536 -0.1280090557528376 -0.19739953053151807 0.24085245950883039
Ni 1.7646633794166318 5.57785520607386 10.825476505474583 0.2710294973128429 1.903597729428225 2.1950741817415103
Ni 5.265382090747641 2.000659173516025 8.787863973703326 -1.7252518730940483 0.5031615462295398 -1.1110302402611834
Ni 2.8401337194221647 8.823362669959163 0.6066910922446791 -0.4105496390290736 -0.06674635228761408 -0.7033057293857307
Ni 9.485787731483354 2.4862910787638866 2.070050853537492 -1.1921986815113983 -1.0390794609544944 -1.58230599352572
Ni 8.653481217959378 0.18442257924861002 11.468665058129497 0.3220178154352518 0.8523163270908998 -0.5139817767734953
Ni 4.163766283968849 7.755865964953458 12.100035969657801 2.078086931020473 -0.8570327587299627 -0.6489055573682954
Ni 4.327212069602527 0.7819957145933708 2.349586722749036 -0.9716695069409524 -0.15770606859663808 1.2256392205580313
Ni 8.696223929571547 4.808349078426834 1.9701506362021015 -0.7415452324829035 1.1044189055922529 -1.6372257854920513
Ni 6.428617343202489 5.344569166233881 8.231632899965023 -0.4566086381706652 0.4925873702581194 -0.8254719532045461
Ni 2.998809971376266 5.463056833056815 6.175020962822189 -0.5463704775168462 -0.1934055788807766 0.5021878694623609
Ni 3.444225827767359 5.287618553910193 3.6763611375046077 -0.8994022248351091 -0.9309344911154355 -0.14354700348743665
Ni 7.925271379042805 5.46502506672497 9.917195256902303 -1.268707512502415 -2.577519092114567 -0.5208612775021481
Ni 2.0913535500295706 3.8373690597623336 7.680987948014199 -1.7648561177492317 -0.04362904954386035 0.4035377264876147
P 7.638000809244172 0.44327093942156376 0.892004413865398 -0.017330520858647572 0.32666097063421806 -0.0952693994279714
Ni 1.8037259517981095 1.9740742871331305 11.433024465958049 -1.2024201021290906 -0.8398696166871148 -1.3242893635327775
P 6.037103625593243 2.1154941648338728 10.617087248350485 1.9990987852510278 -1.2217666249765022 2.0310015474968957
Ni 5.427097661668383 0.5184272554469251 0.3705945978180779 0.2910519631813568 0.9290275039007097 -0.5004220358111898
P 5.257252827969401 5.832187614300298 12.543557744439862 0.9762463276783575 0.5307636242175247 0.13729279504760872
P 4.606563931852536 2.6856319537595916 1.1929528344714286 0.40599878643359755 0.6400717611267492 -0.1051941147408511
P 4.391706051891608 8.263597014735861 3.895777080457975 1.8021088314531026 1.085355975423531 1.9353927624516347
Ni 5.672550131950121 4.222849912314304 10.462373096543255 1.7686114710266054 -0.8795296542808981 0.42492673368635203
Ni 4.184180986666457 2.0159747778268318 11.71100588830051 0.3738324861136981 -0.9077017458397398 -0.6103176697927682
Ni 4.391532114962794 0.596561554785081 6.812876975422683 1.3055987291018094 -0.29650193055233454 -0.0591986218473432
Ni 6.2557606542624695 8.808687885912406 5.129336864147244 -0.1304927414066398 1.7039772799859878 -0.23988726738208363
Ni 1.4770998632115757 3.9505287638184483 12.52841790797291 -0.005029334893791339 -1.061613123280636 0.576534402694736
Ni 8.924896063510362 4.960214326431599 7.713104944190889 0.5529465880724671 1.020349488645159 0.41771350376736444
Ni 4.741584761487974 7.48249204030952 0.8633368616243394 0.8435455228768054 -0.6611126409574486 0.6501594843800544
Ni 3.1301964346570172 7.555161058252845 2.5074765966933956 -2.0592978233384276 -1.4680906491228651 -0.21264565805731117
Ni 2.736403227822792 1.392063014172076 9.217611774638385 0.7980429104593159 0.8695604588833282 -0.071772858967928
Ni 0.5490190993951753 5.871524823937797 13.03877174355032 -2.0486388009626846 0.19443324881434257 1.3697796346550926
Ni 7.349649999571853 0.07763079770211627 9.530577406110401 -1.2146811788846306 -0.07075084546131687 -1.2220548456408826
Ni 6.351014009225974 8.434403078830918 2.260056808201022 0.462624505347442 -0.48608736435607247 0.8012621887275619
Ni 1.0938618815837817 8.932210569095739 9.568307987800175 -1.5536009122815437 1.1291853139036552 0.6766233349985379
Ni 6.113901356952093 7.211727169597787 10.143364529981241 0.5965951780003531 -0.4016672489377792 -0.18965768180257014
Ni 8.37466032107101 0.12724310254490503 3.2772280669558014 0.9890689333643223 0.6273872236805452 -0.13503948023705775
Ni 2.6456722330084435 1.9830366162546367 0.2996228381169663 0.4355759858700821 1.12672708217115 0.8171667757729605
Ni 0.11985078307032264 5.4332403816280666 5.342174329361371 -1.8099823206639085 -0.1529999213702204 -0.025971998583729467
Ni 4.246944754242603 5.861491409517806 10.476561772646853 -2.04872878957333 0.6975176619490439 0.516357990315156
Ni 8.303538426336607 3.3421340051289157 11.233224031287268 -0.6453540925716111 -2.192880773634617 1.0097316039199964
Ni 0.6179722752645279 0.6624049214587486 -0.01252254341706661 -0.41472022546699544 0.8148509831555901 1.2267576504331903
Ni 5.3703301408487105 6.385453521131088 3.28190422396833 0.6326330454605169 0.4075625313762916 -0.28896936962071523
Ni 3.947654227205422 3.2916190591713352 6.3213742410986 -1.9562768049894952 -2.2954582766882274 -0.03849661341330144
Ni 5.971813195261698 2.3677942573657504 5.226101639476386 0.6588685821182781 -1.1502812153420061 0.771814058669774
Ni 6.287536184784173 8.947059290071309 11.779205642630842 -0.4915126491367019 1.464791152435987 -1.133891461130073
Ni 1.3027235147882372 7.823701367190803 12.18823938625923 0.053834015101320194 0.37872195299551553 -0.7983941231511477
P 1.4151600074034956 3.7451458691902673 5.446911824232823 1.5570361632153378 -0.25961405638704965 0.08250850021787726
Ni 2.622923113634651 8.248144091797043 7.610927068545559 0.17836179717377668 0.6075773880434697 -0.3372451739079676
P 2.8895592709308584 0.15379869428715728 11.908944282375465 -1.1746354758166544 2.619807054249501 -0.32213531484972263
Ni 6.540110914572073 2.4083947983809493 12.685449998220962 0.13074110997202 -0.04602763168302396 0.4682981586934516
P -0.18158099910630612 6.811864479405484 10.798933730137612 2.0459175453767795 2.5658303429227294 2.2636089933881145
P -0.3084725659635035 1.5503456193925464 9.624287299695066 1.6312942504989645 0.6526768514852694 0.09448932672883727
P 2.8994187484220353 3.8132650632588345 10.236351212125047 0.18346697961082598 -1.1059299429201406 0.7287907610307126
Ni 3.6256511990952527 1.631482619396539 4.7099859142676435 0.6012537598182871 -0.01553229130764422 -0.1687816096845093
