# total energy = -340889.98562995327 ev
CRYSTAL
PRIMVEC
9.08337834487428 0.00000000000000 0.00000000000000

0.00000000000000 9.08337834487428 0.00000000000000

0.00000000000000 0.00000000000000 13.29444236967914

PRIMCOORD
 96 1
Ni 6.347110372624177 1.8719388947463882 11.757444693898853 1.0415934856255995 0.09521489204095214 -0.7302223512709166
Ni 4.725845463623 0.43339158648646436 6.0949703296517574 -0.49257914272800324 -0.7998920478529127 -0.4964766780101965
Ni 2.712769039778917 1.6293218653861465 4.894880771914783 0.2619352483210586 0.38340444607284935 0.37490489324227044
Ni 3.6425254565237917 4.502476112481192 4.849400297710114 -1.8803377304590199 0.3897514713367997 0.47746774100786155
Ni 4.993069364287506 4.331672270471084 2.8621869763631262 0.532547969811457 -0.18899690829011967 -1.0786258557885489
Ni 7.2364639235287544 5.8937135541847745 2.55370273896459 -0.30156468978722256 0.8084306814515431 0.19439108272249747
Ni 5.229264445322862 4.69844091186037 11.362985374336422 -0.21717028540054212 -1.3493375647506567 0.9460309804372417
Ni 5.603781208241324 7.812722514305358 12.669550290297309 -0.5067988858718111 0.18109359428264296 -0.9179478490477805
Ni 1.9326431106660624 6.518095882196517 0.3683500575185119 -0.5951954694393492 0.053928888807971635 -0.8343566572886856
Ni 2.8722277425276643 1.6247256760616882 0.18688414628103403 -1.513794064697251 -0.5663039832159794 1.8065115885064889
Ni 0.4356796894327708 -0.027512643962157836 4.634522088427008 -0.03627260917878914 -0.2071290991144562 1.1349304439175485
Ni 8.657449428547753 2.346554484454437 1.2945103648690133 0.3644230198743401 -0.12979674378087971 0.3079474533851148
Ni 7.1157549118039976 1.038584369899688 5.1067006077877215 -0.7595876918069111 -0.8882091843327672 -1.0407995289693945
Ni 0.8640536178503997 7.582976631729222 2.3518401021775643 -0.8806288008823479 -0.12963245028887352 0.024549921425222235
Ni 7.392480025973214 3.64988299279417 3.610770874983527 1.0787544109466132 1.220536352113827 1.418667361494731
Ni 7.625414174266513 3.9714527447002452 12.852574909218735 -0.5503963108467876 -0.4992107891119079 -1.45830708737354
Ni 7.73040894185824 8.70129489469234 7.175515364737879 -0.3990059000555322 0.35136952912449165 -0.56428566723437
Ni 6.940046045613638 0.3513541487339388 0.5410968341066863 0.5673244540606939 2.5731862690671687 -1.6446650153789157
Ni 1.7468698615280742 6.533010789055727 9.031711856879092 -0.3949654114375714 0.11226747664786471 0.7951609609258306
Ni 9.067500366638708 4.820530597058086 1.4175992216590032 0.9379034662341008 -0.3018495680174931 0.18202330518576393
Ni 6.189813513865986 1.9674687823458512 7.1227236794912 2.188188253254954 -0.3113757623403734 2.139391029246593
Ni 3.558140873867235 4.472446464444316 0.40374253199246346 0.41945851148292923 -1.6235752845881526 0.6267614171710884
Ni 5.918465759538823 5.709811480937772 4.8236089539001 0.6854753860725291 -0.7327559163260478 -0.5344639558872474
Ni 5.231253705129297 2.683039143219723 9.513209922182282 0.4780596089555895 0.3290376983965107 0.5234472930617695
P 0.30888481437325704 5.485715459547037 12.642695282910429 0.11117732890747949 0.7674604096867687 -0.3403063293317946
P 4.056236995993712 6.178177706505054 12.64621872527991 -0.13790523182062703 1.170737426313829 -1.4963249613782101
P 2.536842172513879 8.67734202661211 1.4752314391013417 -0.47764077625061613 0.2668074888116953 -1.238427373461635
P 6.273925595179195 7.712741771431222 5.681339632247031 1.1459977574753037 1.1856804207769063 1.3284388669247766
P 4.765385408542698 0.780323038417876 12.882912483773593 0.5325700812986441 -0.27011341325647675 -0.8962441388221017
P 4.188554564945065 5.946042895485574 8.062214752558253 0.1401433771225264 1.950809097006705 -0.1870485263144972
P 4.954828342437764 1.2669404956247523 3.9821638641694177 -0.2811395891636513 0.254460022989936 0.05318995375941808
P 0.3360695483855869 5.68936479680861 3.430856404727507 -0.12845205682752714 -0.22889708691916708 -0.12952857772115758
Ni 1.2976604803981082 0.9967826638302071 2.725134242402208 0.37483470212596737 1.2319499932674074 -1.0627310389351632
Ni 1.9233598982360296 6.892585394980644 4.440144155203923 0.6067919160276969 -0.9583838455756397 0.9867395139001973
Ni 5.9874449329181445 5.766564427378909 9.53219509077329 1.0615745567332169 -0.1507826020039274 -1.2447008651751725
Ni 8.97803817561778 2.672811259466086 10.014716852789658 -1.067875045029948 -0.9783646595729408 -0.07023379661558227
Ni 2.3326659993218346 5.526944912795488 6.957180930083317 -0.14991434046636115 -0.4660967801667586 -0.9996798761109491
Ni 0.42708045537454015 0.11704841034579083 9.1171019694926 -0.8446063600411517 -0.45608053358133716 0.3928280533795944
Ni 1.2639248140917085 1.1156749999326483 11.30433036851872 0.5347866293339887 -0.36336655358536774 0.33710453456504524
Ni 3.960743441906695 7.017654428198958 1.3768121289245858 1.2740726334690704 -0.34658470614133857 1.1571195784200783
Ni 5.579319670986845 7.794128839310958 8.330869285275332 -0.6640161877574887 0.960963690487674 -0.9643264363123197
Ni 5.247830870182927 3.06501335956779 5.420848331438827 0.0722863082692368 -0.7479969016455182 -1.964374237285649
Ni 0.7402271907577495 7.541565510918539 6.804148717348513 -0.10499099759110951 -0.5088827649840333 -0.16344811328673786
Ni 5.403356470209361 4.229420683069053 7.605510676148425 -0.205523188079917 0.45205187203791825 -0.6304674052677658
Ni 8.152477189190812 7.213737311493587 9.179320384543475 0.1516164107591324 -0.3388482567290293 0.18855185033290106
Ni 4.404502796169714 0.4219583384574214 10.560918545395051 0.5247816956024768 -0.8909620644875559 -0.6688521756935513
Ni 8.144365732537173 6.983855178245777 4.790266597865932 -0.4061944473841714 2.045392011890613 -0.7342651538817225
Ni 7.165213905621538 6.071956682868264 7.121407498002832 -0.2610111938448924 0.13482659289530327 -0.5961179812536185
Ni 2.4106922173002876 5.174600675847388 2.4991688617961105 -0.21536459965037102 0.21588756203337658 0.28009237884605953
Ni 2.71094328077849 5.022862844493481 11.309687744928928 -0.9377466289412624 -0.04120347082150323 1.785536271806402
Ni 1.2562675263436487 3.394431150162269 3.8169272246038957 -0.4741597596805512 0.3387364137415134 0.11790847698372599
Ni 3.426377390980688 2.4391141074114144 2.6533710136316877 0.5932969668650556 -0.20020614674237777 0.24171814994323532
Ni 1.281964403021302 3.448513583438603 8.014075573580325 -1.0371526762454266 0.3987577886004681 0.5862277187231
Ni 3.490369789776753 2.6876353325441813 7.150415266002156 1.8088808600696136 -0.6401879749896394 0.94853883446076
Ni 4.28588296141062 6.943652146723934 6.04582017069001 -1.2286191291219615 0.27285266656451074 -0.15816706739345665
Ni 0.8829043524453568 7.274804862537724 11.32295583533651 -0.18756660360149632 -0.29763013061950677 0.42478326612995226
P 0.12332411628307989 5.6498975189138045 7.851046194895916 0.24636901845168538 -0.18001141696205772 0.801434195529052
P 8.386056257330035 1.6679353057384636 7.976226953665003 -0.05161155352870467 0.08130933770345351 -0.20113945718992457
P 2.1012306084169454 3.055357728635183 10.576366646549411 -0.20770425489163583 0.030489169727792653 -0.8474435723796309
P 4.105414405089793 6.210995951622185 3.602301533232292 -0.9892980186559931 0.2268512601337319 -0.22317201150993177
P 7.148455073005677 4.026134680931944 10.36325697098463 -0.19189068489814692 -0.005093612472823486 0.10692858093345457
P 6.284880149181759 7.836175796589451 10.423414367541985 0.28269253547306794 -0.6960187088060141 0.749006059636323
P 2.4340364990470422 8.660928362364489 5.670983672862021 0.04539642585692827 -0.479530022853529 0.5965275579872114
P 6.819346117266993 3.8939715294084873 1.50509031962972 -0.3616547131005836 0.5246269151921675 0.39552539770609946
Ni 5.268059553237411 2.513888476025922 0.7617511635309441 -1.0110680633432327 1.0745128620614397 -0.8145049126700811
Ni 1.1953543927274082 0.8381196650040339 6.9886884437389485 -0.15820049173455336 1.2527741291016101 -0.7121768066231154
Ni 7.038419030562025 0.5688983294927923 9.469059254533148 -1.0786636510050198 1.02290362252558 -0.7732510482266166
Ni 2.4429654597307233 1.4487988087966506 8.992028394585232 1.0799054938319208 -0.06358312406828405 1.1114092208671569
Ni 6.506841576716273 1.8525277157219464 2.530411140810882 -0.1018694212429923 -0.5389618437576008 1.1760228430824842
Ni 3.8873134132527003 6.737713798178243 10.262458724080453 0.4184835491641696 1.7084839096070898 0.15789787289247
Ni 8.198538999594623 7.263768558132157 13.502633222138474 0.35433555373135106 -0.10742608939516338 0.8747828836245322
Ni 7.707119160380155 3.8371731660767914 8.122704600754494 0.9100525054601036 -0.17497899674447284 0.250471213545517
Ni 2.8637892842620087 8.513523302369805 12.287428014886023 0.7994302777251459 -0.6632615689796513 0.41644337880568927
Ni 9.54236120755577 4.9065501877747275 10.497982543473363 -0.18685826468056205 0.16618968058761702 -1.0217538251918532
Ni 8.695209031357582 2.7800042045608153 5.945580551539694 1.3630873102365815 -1.4354178414801924 0.17425266010140958
Ni 3.9302959584766866 2.528430964382558 11.719103754889883 0.20806986576117067 1.4494758622351551 -1.2156006053751065
Ni 0.7532236881597949 3.3307566696001087 12.42009347721905 2.078999672642729 -0.12282314067652396 0.6646638486438166
Ni 3.0450571778566538 8.235417514727628 7.802255737707387 0.5094494361207806 0.31580577308726904 0.39422467661680494
Ni 5.430288686310189 7.981573430021476 3.6174308078149364 1.8724256747007946 -1.2371554487277467 1.6722323834742234
Ni 3.2176050284641846 8.747220454424477 3.5315356593784233 -0.6464133870740609 -0.17333143383872085 1.0427934194709718
Ni 3.4091098891905784 4.411660498121638 9.21319411819717 -0.1291953627514549 -1.2546379217832264 -0.33876932386197783
Ni 7.672802157874615 6.062337385448103 11.42975002013214 -1.6188611669419344 0.26358641077123635 -0.33494455079924895
Ni 0.6936984947190036 9.309009223869337 0.35263399670986006 -0.24542568070180962 -0.7795710769073735 -0.10698051721731251
Ni 4.77651254672938 0.1649623215465523 1.919238769586807 -0.005101068671991215 2.0304343621395162 -2.7000092749317046
Ni 5.98177690497652 5.611102410999256 0.26547262536459354 0.24473533950300433 0.1004576284971302 1.1017572995996896
Ni 8.114654002734202 -0.29303522790636505 11.452750041848466 -0.3475362714213305 -0.1578222824595282 0.3969050516624455
Ni -0.03586935182480936 5.147087123547418 5.583173748319587 1.5923636348720382 -0.9867392567898812 0.597106570419133
Ni 8.025328062384947 0.05693007231431352 2.6762375096897735 0.5694713252003676 -0.8175570692328435 0.2239734243653046
P 8.67228258500396 1.9170560338265947 3.8261141532259457 0.08648805369091556 -1.3264514041811026 -0.5123002753060145
P 1.9526901261583143 3.2733860534473838 1.3396938126094344 -1.3511669046499115 0.22007100398710486 0.32430609724879633
P 4.704826526672809 0.9954474072478052 8.331121803186834 -0.6739959246780199 -0.9640842383945267 0.0011287142878045077
P 8.511452292160364 1.6360526485668256 12.426354649751362 -1.209445127296672 -0.4435860006587522 0.30043546127878584
P 6.5337737928171 7.8009867897852 1.6633872583179965 -0.5416509605539898 -2.154623529925631 0.17718680302906906
P 1.9994059397861588 3.4264318912493574 6.008649170781812 -1.6063530071725949 0.923001609421604 -1.9519288124334448
P 7.092156295470119 4.1174771312219685 5.827020667076137 -1.535752057025581 0.8722079238085044 1.298179553819603
P 2.199331092021985 8.49041518845395 10.101675664803036 1.4376606147677822 -0.033457251217181086 -0.18718813721615504
