# total energy = -340855.3620500241 ev
CRYSTAL
PRIMVEC
9.37282426005710 0.00000000000000 0.00000000000000

0.00000000000000 9.37282426005710 0.00000000000000

0.00000000000000 0.00000000000000 13.71807572418350

PRIMCOORD
 96 1
Ni 4.410157519966072 7.911910282963152 2.7246706470983897 -0.09503748592282342 0.36357018495574156 0.2555774244238308
Ni 4.812232936184314 4.013180920159381 2.4406928168829882 -1.9199707714696095 0.36870416374819726 -1.436902396445519
Ni 1.0486971908809373 0.036359997252445944 0.9893437810902239 -1.5081666912081446 2.0098423969207775 -1.7338344725567365
Ni 9.466552528799115 3.820784956041896 4.212231589519883 -1.9369639635934963 0.11281640717279927 -0.9514773482637935
Ni 3.6594224131351583 7.7473984710963375 13.092229962657603 -1.0075561935352324 0.7729296603314559 0.8301179366169897
Ni 4.607699164616537 3.6721413356911783 11.255365416594994 -0.592379854367425 0.34851303351230295 -0.35129471002249824
Ni 8.559966099741596 4.897197588336357 10.839955283265148 -0.4497597335696319 1.2077129750969136 -0.3993848806615057
Ni 0.4792400039995265 2.250640058836989 2.0073796518845666 -3.2381026000414233 -0.5651223042030525 -0.45733857435815434
Ni 6.050682954734101 4.779128120806375 0.25094893471417856 -1.3104527147600011 -2.265181737191873 2.079509522399612
Ni 4.513774092447135 6.274571608452343 0.8781886460359791 -2.30193334288961 0.013177675032538595 1.854946801189741
Ni 7.008201310961416 7.055955850698279 12.005181986645887 -0.7929901785267568 -1.323347311334482 1.0990201031741844
Ni 8.814981902913443 8.0630002104525 0.21521597940646203 -1.2337592785620044 -1.4912094945285157 1.7145992784762083
Ni 0.9482298873599493 5.942623663541501 9.805652875922556 0.20247257417905132 1.2474306054015096 -0.11377080066626859
Ni 6.320592175696306 7.233411532903975 8.653554687519133 -1.2264881988218876 0.14400465985014552 0.08722338919504333
Ni 7.8464129868530055 0.596061011334622 9.825572002095036 -0.25996861151299094 0.6755036195717978 0.5145235082095784
Ni 1.087463192127584 0.9934725101881804 7.65459063958182 -0.1377010862296209 0.5191589500990608 0.7839653493203272
Ni 6.042941001873914 2.2685608988717054 6.690854351723211 0.5700793910980118 0.5962748185464569 -0.029301834287910826
Ni 8.051949650619378 6.0457341035111245 5.464554325295288 -1.3540601670373067 -1.1304739508080917 0.175087240187563
Ni 2.9965106698634996 4.683159772942638 9.645192935994555 -0.05021184496770062 -0.9996001719129494 0.14426639815196446
Ni 5.361218000260374 6.682898698469306 6.510913933799312 1.001638542499217 -0.08774275203362308 0.10863605054286452
Ni 7.068149895094286 2.9657115692599016 1.7280938575067064 -0.8047012963160979 -0.09677683721143332 -0.6752655354190629
Ni 7.84287005927292 1.0790089046216662 0.4425782018050733 1.4261204753386663 -0.3559694897903482 0.6586346117306011
Ni 4.915024700128215 5.881606577440034 12.015003769215124 -1.1523648373439124 0.5085690903983564 -0.01712997481206727
Ni 1.7272896691829729 7.076173032683052 1.2700345618285465 0.005959045796912319 -0.5156054284198475 -0.3254474099420911
P 3.9854279874487135 4.404721281880226 6.294456992457392 -0.1155353487658591 -0.11431921697057086 0.603223224839832
P 8.936997329467808 9.509948705243016 2.413942776370917 -0.1603969851652399 0.161440853048722 1.512364531339576
P 0.5643461857982878 4.992959734065804 8.089645275332568 -0.30067945896879184 -1.7082273135115935 -2.973996312210975
P 2.2433948656639573 2.6315610106418648 2.700211324841802 3.365895940239029 0.9445618520908828 -0.03165259390827452
P 3.903218945636736 8.331166086097522 7.634013541144467 0.3592317054813878 -2.3529710261927153 0.3003974089519988
P 5.034621938016806 0.6100012128951001 4.49893878616735 0.37400834956993007 -1.5909608409872407 -1.2280576001915366
P 8.341045042894901 2.428461281189837 11.843089300727275 1.1111667658390476 0.2761974146670275 -0.2894771624950692
P 1.4930346718044814 9.179940934959363 5.9924121061484135 2.44117194880968 0.6452481631213661 -1.5579710163247813
Ni 0.5111394741742937 7.947695726086869 3.9064694410991 -0.3574771846841263 -0.98821635555604 -0.8693375442392446
Ni 5.932950908878412 4.433561462208063 5.477531937801601 0.2792508567813707 0.15268676100517575 0.7093758468392105
Ni 2.034952626368944 0.14948811181888116 3.1593138158629865 0.6920761792184984 0.40291346264005445 0.33929434312751244
Ni 1.190686105988638 4.6576656908848815 11.82518720634113 1.3320214420697123 -0.3635467879169739 1.8418845686891439
Ni 7.648224617326809 0.3696285731051759 7.342023820729445 -0.7340144713234972 0.1585388489105786 1.7590333404198673
Ni 7.1913837888058225 3.2830941452303923 9.9565656570329 -0.053271714839946964 -1.0023119144171577 -0.801704161360987
Ni 5.963665654063435 8.718160628039687 10.411361335294696 -0.054342579306622535 0.09092089265128857 0.5891487490246369
Ni 8.32532681656738 8.854460238805821 11.907385938046392 0.2655075390533492 3.414295414588339 0.2702846487270184
Ni 9.434310013255482 7.880117662985244 6.222313426646086 -0.9679267520690683 -2.1973290392139573 2.5853532434470057
Ni 8.398678539429145 6.657779529382988 8.21554948668317 1.510626722712863 -2.2177451409764646 -3.862616358828915
Ni 7.046329960156618 8.622070433460232 2.3964933893977824 1.4557200433726543 -3.219927471794293 0.14617107137384502
Ni 6.217013094512386 8.729914149694254 0.027469873417232123 -0.22803293914665887 0.13205751479059838 0.08509348733623409
Ni 2.2060254152359158 6.853924623214848 11.371997092879516 0.10241295245128813 -0.8702662267011011 1.059443369322827
Ni 6.695186471108173 4.780571535746409 3.347525751219228 1.2020640043412523 0.308895676230997 0.44482013017616945
Ni 6.837203504688731 4.168479245753116 12.11323940327363 0.12042712964052163 -1.2398584494812066 -1.0948993961375917
Ni 3.5728924993273625 8.58564763828507 10.754134892255797 -1.0987781623667077 1.8849258640503344 -0.008695470891468896
Ni 2.8429744352355213 2.5048872904173893 6.755301891513333 -0.5834092754376985 0.5798056172468402 -1.0837937731427334
Ni 6.462496735385434 1.6282845262505914 12.374417838413482 -1.2094518121648914 -0.9961122133643491 -0.3873811713324103
Ni 9.115802698370679 3.361844614880858 13.700736210079098 0.20166344801419464 -2.5638007140872103 -1.2463438000952343
Ni 3.535982317289332 1.4364228131174055 1.257029768131805 0.46325802516638276 0.0029986776170077387 1.310148553256021
Ni 5.330268934468202 1.7489127748106357 10.257033097014556 -1.0343769132725025 -0.3426735440123905 2.4182024844976997
Ni 1.0821956648788857 1.5148264882692914 4.907545186348035 -1.3323657127830086 1.219434634409216 -0.2537910219473694
Ni 8.031854315350323 6.407515748124111 2.2867760455890007 1.5260042336101978 0.4963252400339968 -0.704512090989006
Ni 4.11166118493175 7.986058695889221 5.281719579231891 -1.3719781849683081 1.7689197462956439 -1.1535994810819616
P 2.8520660747928823 5.5573537212679485 13.221879554592865 -0.4177304730482289 -0.1523851706043569 -0.23299773935110193
P 4.781808748552153 9.315040824216899 12.261998309363063 1.4802766496660957 0.7666152880776539 -0.5407973543044429
P 8.769851753976644 2.0238458295901056 8.597062800982917 -0.2198987400752987 1.3129410283994936 -0.5364966700465599
P 7.243618538551363 7.9903139581150375 5.963261685336712 -1.459338356851532 -1.1308493318696395 1.6436095775312078
P 6.512988139813792 6.700444625532585 0.5900005431513334 1.9903446932074818 2.431545738573825 0.6613370982634288
P 8.68592748532034 4.302951155783493 2.0954223395321128 -0.33844459353270745 -0.32147891221264635 0.7988772334351532
P 5.496589701422202 0.9786634478163956 8.483820337960193 1.5989759979822333 -1.8751387027565833 -2.8662326369707345
P 7.881148673656698 2.306239652501183 5.590321693411314 0.6774514873267882 2.053816231398566 2.2509442534362525
Ni 8.310067858629871 5.307558581223369 0.12836832685537317 0.2064834951106573 3.34619923314105 -0.8178139224386561
Ni 0.9827781176779232 3.094297345638709 9.810001866391232 -0.31535762980625687 0.055680838502071846 -0.4061520241820102
Ni 1.4103194974810633 0.39703752316454943 10.12256774796118 -0.16087598168418746 0.6808456006100015 -0.2604730619532353
Ni 1.2629693268818052 4.7450297860541255 1.2873246107888194 0.7171477774751456 -0.003738898217141948 0.32583101853375496
Ni 5.841022248281916 0.8727655299041343 2.377905204273907 -2.5735454521788 1.8484725063193068 -0.9954547822860083
Ni 8.314276256734258 7.618850186014674 10.054979374752838 -0.1945764592604262 0.334642703288114 1.9629606447675743
Ni 4.343919770737336 0.6645398028501261 6.497360829881844 -0.4487996836492077 0.544780764432223 1.0738001522651313
Ni 3.777754319745147 6.889681947865708 9.425373962581267 1.35694160235016 -0.3277593459047194 -0.8640081616065314
Ni 5.680109600940901 2.550626672932775 3.8373158062350083 0.06962547360762203 0.6562496564381923 2.185014740622979
Ni 3.70487123809768 5.813213078625532 4.4863182782663324 0.257873162436543 -0.35001712886165526 -0.18472244928448187
Ni 7.8572760902004095 1.7638061926009938 3.678584215105333 0.6473832071864979 0.573254960612516 -3.7336289983232085
Ni 2.368915728501262 6.728010101757534 7.567205924199146 -1.1433986292895597 -0.008698041994630182 -0.12795094882139255
Ni 7.801920189967649 3.9309906239959758 7.6890910684959355 0.5806142291910645 -0.10901040316314775 -0.7854154515032925
Ni 3.6890686563515853 1.7961143179146282 12.605196455264318 1.280988129641981 -0.9680478510279651 -1.846654993494594
Ni 8.327313855316001 0.23267192735659617 5.203828597568446 1.1240888732173544 -0.005020593143042967 -1.5219894560238496
Ni 4.368860856162221 2.81982355924925 8.331412591376242 -0.40145796114045057 0.8486833583240029 1.1677181798715308
Ni 3.3068355091466777 1.8281881226211139 4.389235501594997 1.9112243927355472 -1.5786082329591586 0.2280501655378395
Ni 0.7453541684083556 3.3961678974159693 6.452036663482326 -1.3419551562436567 0.09964438856721548 1.375615010389947
Ni 1.6142721539431115 1.953165361649834 13.31278938918948 -2.1257297297094166 -0.6395868510705308 -0.31563453761672744
Ni 0.8288857157270789 5.763930768530061 5.6652630472719725 2.393751036323555 -0.9183006044015087 -0.26525145717848514
Ni 5.224880898197096 5.118058819810241 8.201818299104268 -0.12248529772113098 -1.1410327001605447 0.6859258433463864
Ni 2.341144050142023 3.748079958055862 4.519693968266135 0.1469380314468566 2.816842259463065 0.5740895406986694
Ni 3.1226126478065326 3.4571943563417227 0.3927813236563042 0.5359724221119737 2.8923280485062057 0.3237412258842618
Ni 1.4016215165437114 8.889092824542368 12.373855468956325 0.11186227078964604 -0.1355488157733085 0.31622691978508766
P 6.362676156740176 5.732962957089316 10.390139386546473 -0.2758171485094734 -0.7858394264145885 -1.4238244802156381
P 2.8889575111823413 8.849417659339986 1.306240844762703 4.305489135470727 -2.2374531609283532 0.024137002257519722
P 5.307755410533375 2.7894649813870913 0.05171924440981537 -0.33969672077225366 -0.06673195410991087 1.0787474689680776
P 0.7153433223272052 8.016651594358528 8.923567009548483 0.9865173705870622 0.5103673199493598 -0.6335437302002443
P 6.840015351974513 6.948018406221397 3.9448108534055937 -1.642568023640571 0.022720067305335063 -0.5683711501576534
P 1.8996933990985478 6.056053583049944 3.199192371352374 0.05885717934752444 -0.1374545174364536 1.267241726590166
P 9.203269894607068 6.8111189347009615 12.227360099931946 1.6498897541129651 -0.44296250814214033 -1.0921832827580091
P 2.911527272062884 2.233487790393719 10.505041776750234 0.39880818222242925 0.6109524751632897 -0.16563997873173408
