# total energy = -340855.9131507527 ev
CRYSTAL
PRIMVEC
9.38311045415499 0.00000000000000 0.00000000000000
0.00000000000000 9.38311045415499 0.00000000000000
0.00000000000000 0.00000000000000 13.73313060899778
PRIMCOORD
 96 1
Ni 4.185777414613953 2.7344072760228584 10.5346292025701 -2.4227461380043245 0.3219748780124584 0.11679673197678596
Ni 3.080934927406095 1.6136604166318862 5.4161546596763515 -0.13312195149937073 0.8541711209114516 -2.104910993191852
Ni 2.244627677666404 8.124516297760634 8.5420759717401 0.31199282709908205 -1.9123412799488098 0.26828304491595734
Ni 8.758589368348312 8.54448555449917 13.073198765822793 -1.7182168206241377 -0.011470976754077019 0.3201257406188616
Ni 1.483648038478949 5.212477358139821 13.457561933403063 0.27686281616516834 -0.8945996612401432 0.2642944925818545
Ni 6.155517489049377 2.263534645187923 4.425611593891141 -0.09981665247902165 -1.4292363952598288 1.148137686636442
Ni 4.096919358818029 4.72704213991362 7.387257161746578 -0.005226538506261966 0.774951318747175 -0.4602642326453815
Ni 8.083634085606162 9.172009214004955 10.946362903282019 -0.1545760076080886 -0.7361952810248998 -0.3322420642664214
Ni 6.37573909090052 9.310457008436723 12.666230746899549 -0.14866144189586655 0.39041121640798565 0.5202380420958524
Ni 2.375578366862593 4.224632874915001 5.576008143937819 -0.166073723835043 -1.2845408799902458 0.3446162695610581
Ni 8.190179304567378 6.226444420808763 11.41087190862162 3.135079524809962 2.0066660560753244 -0.8387630138864975
Ni 4.741529662421425 7.849497330983597 9.311584858310711 -0.6239411741134737 -0.3773060464845953 -0.13349964655376362
Ni 8.52524079500208 1.9977205097451862 4.2324002137310375 -2.0103599599871442 1.7007271484798065 -0.9703944968832706
Ni 4.334227604766784 0.7307228612867651 9.10763356994955 -0.12820651647562437 1.3087925534487588 -0.9902680958787462
Ni 6.003980255564248 4.319833913363305 0.6429147755482401 0.41384579328184207 0.14007318600622326 0.6884200705231498
Ni 7.666029372696619 1.0185084881182809 9.049721012360065 -0.32437217460004136 0.5621210554828835 -1.5953934228372975
Ni 0.21028582621415245 0.37436264848129486 7.853125779787852 1.2457552745816158 0.029277923028510865 -0.3296565629274323
Ni 2.6367666288621 6.432647655673729 1.681759278906912 -1.4845675637319657 2.376122267498198 -1.3210027223617056
Ni 9.502463597217293 7.319604935528139 2.1749299333736776 0.8534028752868593 -0.5125319317008463 -0.6277440927993317
Ni 1.9088061552866673 3.342611111148093 2.9799379416436262 -1.1377571147330663 -0.7629951748265634 2.396729659335904
Ni 8.319290904118793 5.030764041503722 13.492787068277769 0.5370602558595137 -0.6479797031199163 0.5174661357776701
Ni 2.1411038202644583 4.296563799490666 8.762987232208033 0.7987476498358245 -1.8620222199792833 -0.2743714172018823
Ni 6.865528072367407 4.567097639480958 11.581080593556413 -0.8478076405872689 -2.191743317596064 0.6598543430703152
Ni 5.032124592516436 2.396699748446186 6.370840168943704 -1.3470348847594091 0.8938956931945831 1.8840277777160972
P 6.868211641951106 6.298778819133028 4.227881307746737 0.7642390745359935 0.2421166709332346 0.39484971179531353
P 0.926184311328586 5.308794986729594 2.8093042018062415 -0.9618018701182534 0.7367544959624795 -0.4721288452934514
P 0.8478681801035938 7.311901401863044 0.03360748663614146 1.9534197951566745 -0.8782528444510036 1.5479316298109085
P 3.0287273009595777 0.501199782063869 11.85005777552595 -0.22527183146175397 0.681952203410619 0.24423654548971485
P 3.617479948158208 7.398967283566358 5.134377976765818 0.1692930021032891 0.8929055613671719 0.028094444243370972
P 7.741441431242747 2.937110610696495 0.5502743879369694 -0.9216862330442901 1.7718551747748839 2.7060469964853526
P 9.501619117278365 3.8135681899769205 5.672744259252883 -0.7450907837423167 0.273231132949852 -0.8846322656147861
P 0.33020479247483275 7.959289106154465 6.483616711543154 -0.1384158529084584 0.06341343125963918 -0.7180237523221956
Ni 6.565052726986957 8.195246184200936 2.107115379344757 -0.2616148888671624 0.25658529686305487 0.9703369041724579
Ni 5.177966277969027 0.2043951094846191 5.264993688919568 -1.696459374342388 -1.032460670086396 0.5546892817951866
Ni 7.327017592769827 6.01069856263393 1.9058973910525876 -0.18760182771480594 -0.9526405153339593 0.9183399422798765
Ni 5.594876640706564 4.866719121812049 5.43411768628836 -0.2861200730973782 -0.8303038273755506 -0.5466209029647554
Ni 4.436512891591637 2.3631551286499426 1.6135055953097497 1.1777678507980491 0.006974631545620245 -0.5557406058778365
Ni 0.9846260763464668 0.2730381921647309 0.5521228606921749 1.1626765036825655 -1.0226285144873226 -0.1784993511929055
Ni 0.7497058320027876 0.6596523679377615 11.945667917589113 1.8961039921543408 -0.643080466046086 -0.04738851658629258
Ni 2.5201251830754976 5.87284190415941 3.981688194529434 0.3072113465500386 0.24170040933142245 0.9504327090493631
Ni 7.428805574741757 0.2835332011834997 6.30368524757819 2.248989443702727 1.7691035801716757 -1.2569619419307128
Ni 6.725973070904602 6.668557818168038 6.5801745477599995 1.3087046217206428 -0.5089758389184719 -0.17081175274066066
Ni 3.3719145650288396 0.9308477172135463 3.0655644542065916 0.43917835850935977 1.632198250370473 -0.1841475506176183
Ni 2.635528058285008 2.7359742554650883 12.225493851840724 0.17330340881426282 -0.764467902717348 2.2665202534976383
Ni 3.661805761841412 4.55655102335481 2.259512105745504 1.6895857871510065 -1.2285777343610647 -0.48160156067057697
Ni 1.651389903681032 2.788097433917713 10.205282026388799 -0.5520551866064493 -0.9525111888449467 0.2031289768161276
Ni 1.0912463601911426 2.240264531315284 6.656201200039458 -0.033802550371741784 0.6333786653772898 0.8195969824810079
Ni 0.3425266930948123 2.362273116269286 13.559667064507613 -0.8259103262935454 1.4590015423374034 -0.9777787051624838
Ni 0.5946048931753897 6.303592354784907 9.464489210985858 0.05876796206782782 -0.9216530658135095 -0.1583079638466951
Ni 4.09584030111829 7.96106251402621 11.445287281066003 -1.641723930472721 1.1844324073024182 1.282731594695649
Ni 8.952322449448465 2.186105217898804 10.840205206781667 -2.0780427080460986 1.8161090023869366 -0.049265164783715155
Ni 7.0614286519774705 2.742326621227902 7.199923361961401 0.35381002024518426 0.15422273803372794 -0.3349067555827781
Ni 7.8935228851329615 8.166571398719169 8.137222905908345 1.4366555705420354 -0.8524222565411449 0.601321636941745
Ni 8.865228418413853 3.951490530224469 2.0723565850585457 0.647559327753046 -0.9531889316382616 -1.3803746365621195
Ni 4.518624490986582 7.289616514585819 7.08909662970983 -1.0063922551341182 -0.6426423500674029 -0.5100870697047796
Ni 1.4171030192915475 6.934944323347158 11.710817108262633 -0.45049969705945 1.2652766324439952 0.32143828878269803
P 0.48133949052240627 8.258047342325764 10.232266913681672 0.4381298626401874 1.2547345952620907 -0.5650544270795945
P 4.433332017155014 4.762801173771938 13.05115690110577 -1.5987862505689305 -0.7251873599501705 -1.0773390186563252
P 7.59647237506038 1.7222230043360929 12.716288702745977 -0.07032352811591115 -2.2421816767522738 -3.8663303173453936
P 7.355692378251595 7.019608128779748 13.650031109527955 -0.8466974382422258 0.2789042720752294 -0.7720876240461347
P 5.959926552083587 9.307416880656588 10.50274164007624 -0.9981904360496163 -1.5725717969570916 -0.2515389926883991
P 5.9901870832284505 8.741840516226272 7.3036217452173915 -1.5430192801109557 -0.48084822744432026 1.5724136741126726
P 3.3109055809966224 5.8241810934563825 9.245926543059184 1.4080214517451106 2.9766710308296607 0.36943744236979603
P 6.942103636607168 0.1876828514932654 4.145221734702534 1.2036568027496688 0.4840644203887728 -1.7546089860999265
Ni 9.02194512885773 3.0112559493342337 8.375658063420046 0.30560723528771233 0.005681880876125699 0.9573474338913254
Ni 8.090258561571519 4.479722115133372 4.069236368108979 -0.31148426289377973 0.06837308925775966 1.752905887365891
Ni 6.819109825057753 3.9809816463138654 9.283101488281767 0.4180431191926413 -0.014508478028820174 0.019981328217933327
Ni 6.202817748739689 2.009158521362423 10.567643676626908 2.042050863332522 0.618452897305393 1.180315042699935
Ni 2.1810101889339477 2.331712325590582 1.0817975679855993 0.5452301932648158 -0.8548941151204051 -0.6111342521567927
Ni 1.980924742070983 0.5146504708688802 9.88341788077743 0.2609371460738474 0.6151035212171858 -0.1380985787783557
Ni 2.3690195726702648 8.496678606845503 3.6446628190812054 -1.2749506651986493 -1.7218906699312992 0.2862450287110167
Ni 6.572305871351292 6.565071493207822 9.201856888290788 0.6267953557328173 -1.4953389433158568 0.1384176526806713
Ni 6.696979259668128 1.3986839735125192 2.1246252017228744 -0.5209119282344254 1.5671771083040815 0.6401923458650136
Ni 6.070393911205595 3.881849084594337 3.074256967711274 -0.9071602715139733 1.7777391443594865 -1.792469765701442
Ni 2.332200247333073 4.899644456319747 11.122118883104514 0.6750770735573406 0.13121007918863856 -0.28193663114365
Ni 3.3758367051896307 8.964511109900302 0.8888780025599469 -5.488664530437593 1.2967790739276506 0.8201631393971229
Ni 2.3323034615478306 6.406224816695764 6.603246678002512 -0.1913093584733802 0.9023877898259942 0.22150285133762498
Ni 8.528684396530814 0.1760834503765895 2.0478019233676954 -0.02522920688043397 -0.5137210669129411 0.1936374923859246
Ni 0.2902618296746567 6.036220623010372 4.986953360583262 0.2777606453890894 0.14096998678887981 0.6439775239390587
Ni 0.75132254193031 4.999415069548687 7.411111843399162 -2.976650204894054 0.11407573350119708 -2.1390547289530963
Ni 4.923214829726226 7.855033366138782 13.856316915764728 2.776401634949515 -3.2865079879280046 -1.9354531833759248
Ni 5.2557897958963125 2.6938159402917954 12.797684370814922 -0.16939995999479857 -0.39413520222679216 -0.22116809370602555
Ni 2.4406127052703592 8.846312067781904 6.354319326405174 -0.6085104413807004 -0.24709098421937448 -1.3992023107915839
Ni 4.73543064064029 6.413374746845341 3.620836286759918 1.43258217180361 0.15344832176154863 -0.8532984884985111
Ni 6.163052126726687 7.029535459617349 11.474799978309393 -0.5815423974322889 0.6680119391804431 1.2538604201872534
Ni 0.7539676407612362 0.8592236203490242 4.831384204545282 2.237796146090069 -2.749468815114413 0.005940790964467188
Ni 8.661821350457778 8.139510508231794 4.240062461710229 -0.7074976559798912 0.3003349311451795 0.9690256415602022
Ni 4.7375793729293365 5.072697162026634 10.984691971087802 -0.19660840208879043 1.0413476881633807 -1.4355337982327665
P 8.167809969296261 5.448368754413265 8.279470860065283 -0.08251647063767725 -0.04117750267957424 -0.3268764290791338
P 5.190070490426972 0.23508069553207514 1.2319629907254939 1.500953204178841 2.3706743570097495 0.0075950387384385335
P 4.001605723044535 3.5194827428010136 4.160918740145089 0.443745666165068 -0.8013825163555102 0.8001776974141316
P 4.892344396403249 3.31250070977015 8.666100048815006 0.9733638639242398 -1.3542378302657514 -0.9678619602694041
P 2.7982781087369926 1.2363280136987 7.432809347963311 0.8491777814619182 -0.24266920100259498 2.4343063320380978
P 1.0287736109314531 0.7370048537213344 2.605807055990014 2.196791678653249 0.9636674625720822 1.7011709208854444
P 4.88235138379262 6.14955921392473 1.4438054749604008 0.3137298643948468 0.16541397876385708 -0.22568655040166938
P 0.24424048793629696 4.582664219688502 11.440206326766797 -0.4214354327036419 -0.7910379398963925 0.5932226619836944
