# total energy = -381177.4596185196 ev
CRYSTAL
PRIMVEC
9.15959190507056 0.00000000000000 0.00000000000000

0.00000000000000 9.15959190507056 0.00000000000000

0.00000000000000 0.00000000000000 13.40598861881725

PRIMCOORD
 96 1
Ni 7.1497300506138055 9.129942201997723 5.202126961999405 1.7952840952217857 -0.6676501849656502 -0.273972896211883
Ni 7.3458552302494615 2.032540899341068 0.9603969396865296 -0.5567690471423508 0.03144639143473939 0.04702264860644159
Ni 2.7410170059382426 1.4008221720333938 -0.09422472085335287 0.41634464844429586 1.3467700611337967 2.613063050657448
Ni 7.363936264463957 5.9392716749734555 12.86531167038671 -1.3325850278826663 -1.1429990798582963 -0.6339571635885791
Ni 0.26519949332276627 3.037448875382888 7.6993541044897365 0.26676480849921796 0.32730348931422343 0.39291881332118783
Ni 9.096253223354909 6.249406293751882 4.748655723050867 0.3692952603649769 1.2805813811218656 0.3344557840882885
Ni 1.2376074057374968 0.4312931193216099 12.017356047726679 -0.3072226594039483 0.21038797237138607 -0.28405624858981404
Ni 6.306644582914183 3.420402248976533 12.584978699490899 0.4730271887380047 1.0130218446354942 0.47680876726762406
Ni 2.3105803084499943 5.247869047492704 4.390421339849652 -0.2909792009618924 -0.2976008200434681 0.5003888685804092
Ni 8.494220733073163 2.918923757482393 11.442560519623363 -2.7334315591458926 -1.3281110512717127 -0.6811412774735495
Ni 1.271351341931115 6.91397131725671 7.198586397319327 0.5928405960539275 1.9906745657430744 1.0160639738959274
Ni 1.5601715905894142 4.364380620360386 9.519109442668935 -0.35375062776215854 -0.9656322996079371 0.869729894581657
Ni 8.777261279305247 5.267040073131478 8.525927576050314 -0.8142110355787461 0.6744191282583676 0.44190321363969054
Ni 0.2322698448402263 3.9192427780320838 4.8210210780719525 -0.09722935136781966 0.8420062034141435 -0.27356306236797406
Ni 5.07689610694165 4.468360306481438 9.335112478536528 -0.08077994756254475 -1.4573478087840643 0.6724823162469709
Ni 2.8829723596648167 7.678861349754127 3.732844168929545 -1.3183850822332004 -0.2504647857876138 0.02843691518445425
Ni 1.3829426488385126 3.124922977079157 12.02281241656233 2.324649810650519 0.4685892075713091 0.49968644319674593
Ni 2.2051076088654353 8.578388222129394 9.712370417948524 -0.9231592180453908 -0.47150792388000085 0.4569369680443614
Ni 6.481482871205115 1.0757299398444953 12.370724855763383 0.2800836370953112 -0.47887644842993005 0.2321906700687743
Ni 3.525929906111896 1.06909839538082 11.236899288964045 0.33485636196081686 0.25935180386459844 -1.0190677937192578
Ni 4.108507423409048 3.587995300153144 11.717396819479601 -1.0854189674509824 0.003582575144935766 -0.03885245409082341
Ni 7.436452752749755 7.64429305029845 3.40780231449555 0.8803544641750387 0.2976872091096873 1.0036648289006262
Ni 9.113326702471333 5.142478784234351 11.411231051828398 0.726116299522343 0.4288067854670486 -1.418745523030834
Ni 1.0242896722920087 7.351387623697058 11.836750880438053 0.02499909314749888 -0.25757054359445963 -1.5906150276120479
P 7.942007262595187 4.510668461008669 6.599674579964065 0.07890921290239314 0.19177935613126326 0.4790183733244331
Ni 8.594728933901767 7.946367228292299 8.564455567041415 0.21330540312849713 -0.3060713194083245 0.5620169258048515
P 8.591083416365105 0.7761370952694441 11.087356129389807 -1.6821421863887673 -0.6418275674755913 -1.2077888226401716
Ni 2.2679973661687427 9.15695383821786 5.964055698467671 -1.2429255184423045 -0.6586626367550592 0.7059735060258809
P 6.742311407320607 0.8246160667927784 3.0976676957171234 0.11431201788171926 0.16069086225657486 -0.2174294525991997
P 4.605543512879869 6.227111847309083 4.23160042974053 -1.1234815786506587 -0.34728044665678254 0.23951317187211651
P 4.298550634089068 7.520217219766758 9.72694241254419 0.3761372229874748 1.8910150076672074 -0.23867216402805994
Ni 7.036746485752708 4.62173767118343 10.493564523851113 0.12628024598718895 0.04026296128510485 1.369464674517835
Ni 8.428427385169048 2.5996753448623133 3.0147385834723397 0.11990365303688381 -1.1476072680542686 0.169780740372985
Ni 2.4906212448836973 5.448995364251518 11.911528871939433 -0.13731927741016997 -0.38358905127982973 0.5584729172073349
Ni 2.2005278129651074 3.647880711345836 0.9626529471470313 -0.9402938208431483 0.8545058785430509 -0.41558565879108433
Ni 3.826584347376643 4.964636149832805 2.64329881677212 0.1464250963661801 0.5627689734795276 -1.2306644416867645
Ni 8.351889836082762 8.273373815167535 13.080772748313551 -0.3686622547666683 0.6111522498789216 -2.430568976482853
Ni 2.0368917054463798 0.8678731550305587 2.267904854291556 -1.8497030362922984 -1.1198046440197038 -0.9913027077908475
Ni 5.177312711852247 8.213479244383041 3.5006384412319234 -0.00032344477768976555 0.393023200109536 0.23872204342938882
Ni 4.696324227216175 1.343739595931703 8.444888087594007 1.4151120400433048 -0.5467564001013552 -0.2796195529746991
Ni 1.286226519015381 4.843418111942917 6.687014035660864 0.5083086376481181 -0.36721780901065787 -0.3649058730480296
Ni 4.573091079130144 5.483078205341761 0.2623902465175049 -0.026988869884018035 0.01750766986646017 -1.3026607295194081
Ni 5.613748941969926 1.655147397970421 5.094503590260052 -0.6358893476142855 0.6000890500862246 -1.8282885751722642
Ni 5.286440088565268 5.86064573895662 7.578029815334961 0.8381822016823629 0.23362226030897829 -0.42247698659427885
Ni 8.81791154771656 3.9164582621246846 0.4371625857474705 -1.534304268835461 -2.043472426270397 0.3741387045002073
Ni 7.738710122579618 4.854849282510137 3.029069680803647 -0.7512184939066096 -0.4198917423656059 -0.9837806883821897
Ni 1.3023016026255332 1.8561271612604247 9.904532242212037 -0.0038689960371030142 -0.11158073499348527 -0.2959941376779805
Ni 4.451140273896204 0.7877395502033356 2.128281532637429 0.24841433101648833 1.666331701719072 -1.0975921124784065
Ni 4.707013470847542 6.013757475496393 11.20418855472554 1.3125702753236363 -1.95578238185158 0.7775082808410738
Ni 0.7118477523389966 5.2615534776428845 2.4904032465988424 1.8358355342815866 -0.9895124486596443 -0.4061000878981523
Ni 7.731739673219318 7.670150577951703 10.843232856800352 1.6673393170479802 0.8114406719224606 0.46294795012513174
Ni 0.4436173500893931 5.827597931739852 0.09609785737658713 2.896988687206669 1.9968704101411414 0.47167787379896187
Ni 9.10894841759062 1.7488775008665383 5.651307848148517 0.41969273898092235 -1.0282692577128678 -0.4477537588831966
Ni 5.540746995318694 7.566088455504445 5.789188099482979 -1.278564607802153 0.25419185693021384 0.4338158086458657
Ni 5.88381034662048 2.9538401214264955 2.924449739215729 -0.11601923038081308 -0.20189279041618136 -0.47653982987695354
Ni 3.290913099690653 0.8862051620603923 4.2108072403938595 1.3333954395991034 -0.12780542438246376 1.0132005363052035
P 9.258973371693571 8.351010515269898 6.103799926733566 -1.0292239083166532 0.23552590508959437 0.7392127276949849
Ni 3.3453027558029507 4.045764219574552 7.830678835972468 -0.2378823211369129 -0.7243147275372299 -0.6493501011048817
P 1.2065838683086734 2.1898843672927444 4.002290964970276 0.9777391101738 -1.0401919772923827 -0.7595812640490079
Ni 8.096337224844447 6.897493211607329 1.419171582287649 1.03359272680831 -0.5638660631984482 0.08340684366243055
P 0.46800476325864093 1.882140401974289 0.32853623870594545 0.5233495911416406 -0.3267093073736503 0.7725367957684115
P 0.7677020271802196 6.598029517276667 9.77773784483391 0.8341962204514214 0.3980260526407661 0.20266746379867678
P 0.5714357898308335 7.302044902666922 2.7945456604212793 0.38367055525004246 1.384960456160589 0.19366885984449225
Ni 6.0480235084226495 6.274283745082465 1.9691785071008467 -1.8732615403385287 0.4383967431483288 0.8317832401345546
Ni 3.5561382398704606 6.119633197120182 6.237887191103376 -1.2696259105516263 -0.07014766465967918 -0.44773190450632566
Ni 5.5219331937601455 8.987409793987709 10.567095894908423 0.5339718467421772 0.36886357214419696 -1.3580289218770676
Ni 3.55096307050309 7.8013983688633095 11.876083999548435 -1.3761598271498234 0.9966709140812964 0.7964699095452411
Ni 6.301332019669803 6.60449618908793 9.609304859089178 0.05912688806914333 0.5500039605043754 -1.7994508250049652
Ni 0.45437345874090396 -0.10752994390298644 4.090690185438411 0.31228156198409446 -0.02480574618977018 -0.3290533821257946
Ni 2.4802892253325575 1.6822781088839653 7.718551692944732 0.46857660916581884 -0.8893409839443651 1.8567337178868346
Ni 0.3286186750321514 0.7998924966044466 7.806775965209475 -0.012444139300623729 -1.5542858541637103 -0.0750777549714449
Ni 3.1708216915922462 5.942981309652721 9.247195968556287 -1.3208427997450736 -0.04078103857210396 -1.0133085226379774
Ni 5.788907815973879 2.3668476808814267 10.484823525395745 0.43092023226562565 -0.0444479459007299 -0.6207632906061245
Ni 5.55645569525682 3.351476320676593 6.892917079543721 -0.36729777031897387 0.3631747492895358 0.5607066916338601
Ni 1.4442844351275086 8.185798957961458 0.650655267396351 1.060134996073213 -0.9175536989331553 0.5709394251054619
Ni 3.043402610053314 2.731362796180351 2.9746415544057863 0.7804192838402817 2.033001865756376 0.2945987999923507
Ni 3.91821690375041 7.741897660526245 1.4256867999354559 -0.16311232721387395 -0.48819052674200436 -0.8472628238273925
Ni 2.2664677143380327 2.8553012328350333 5.932457854632947 0.25146005982134756 0.5505109820477808 -2.3777238076573632
Ni 7.2821044713168925 3.3858797474798585 8.586093270752107 -0.7992495291729074 -0.5925536609411278 -0.14286951780443782
Ni 7.526308348314195 6.783685283484172 6.89486074492382 0.3665842891917171 -0.6048874999161324 -0.8028627004454625
Ni 6.208032417588316 8.694595963304323 7.772001574938282 -0.6158249727642426 -1.0184497005192847 -0.02515361644749216
Ni 8.721241215852432 0.10647567488673088 1.54797651006602 0.5056537165237743 1.953132345823243 2.46818190173962
Ni 6.932455373510434 3.540255507688123 4.98171878854103 1.334384028764618 -1.279346737383816 0.17542791135643335
Ni 3.529016688548717 8.175036437595688 7.796601490637306 1.1093050300399603 -0.04780657796031767 -0.8506358540646833
Ni 7.258967342428434 1.533535497633105 6.84059291138247 -0.8588937231981014 0.8668965388979201 1.8683155091871628
Ni 6.029081472578891 7.814404989220241 12.495453765190462 -1.0355287674887586 -0.5118048237268348 0.6780549252387419
Ni 6.630555227760798 5.700838340810567 4.789503838645074 -0.7660208490267646 1.4832349609634714 0.741158024346814
Ni 6.329955744046854 8.69187556453953 1.3024857104207264 0.1927718019515196 0.39186826056948637 -0.31245973943317157
P 2.5470718091511433 6.095809098846673 0.7653040460468077 -0.07537240339372826 -0.5477650438715277 -0.22689676865968667
Ni 7.349061087379692 0.8545514447156839 9.207822547241985 0.8269945604966596 0.7504664462319333 1.2526936535726618
P 4.413631745472515 0.6539847790158897 6.352682523222644 -1.3916633221020613 -1.4814850681519 1.5765562355261364
Ni 4.4647697464955804 3.78467921488864 4.724069546739544 -0.3718385956121209 0.8171582911325281 0.5137614332325732
P 3.636889201185048 2.6261923631252135 9.719784191551977 -1.3177420493325627 1.5126674072919755 -0.2012721261130469
P 4.463533201602492 0.18548539780001336 13.171933585709585 1.4501039827374573 -0.3236581792521523 0.8171140681581539
P 6.551663663581744 4.420565556465612 1.0979923277159906 0.14783560356046152 -1.074353196555124 0.011727058628941094
Ni 4.469899117903948 3.187556265812045 0.9845306321628993 0.7488111700166975 -0.6729086051511121 -0.7565417058917357
