# total energy = -340896.71313684963 ev
CRYSTAL
PRIMVEC
9.02747275367873 0.00000000000000 0.00000000000000

0.00000000000000 9.02747275367873 0.00000000000000

0.00000000000000 0.00000000000000 13.21261888594485

PRIMCOORD
 96 1
Ni 6.31004991966544 1.9216961592757211 11.321469912567817 0.2886418110779674 0.013001811576306642 0.5347735167078661
Ni 4.492106503627701 0.23831083416806437 6.001963943842888 0.022346743126316352 1.2039077424182105 -0.2522049084071721
Ni 2.803608018007559 1.633882276049987 4.7372258576730895 -0.8477356496987529 -0.18053309379348265 1.0338390384911613
Ni 3.376031031666068 4.1577921087497565 5.099449587015016 0.09100676749687553 0.286983449538938 -0.7549013420748354
Ni 5.065152412899489 4.486978899158966 2.6916610378395216 0.32389060697793254 0.3610286494808105 0.22527954477123785
Ni 7.303550367900862 6.195996830126705 2.546983150061813 -0.10942743609590831 -0.874944606013377 0.027865358951700395
Ni 5.053678495153428 4.579636878502449 11.342702528255257 0.3646081393019527 -0.3200396086629585 0.05004960835822348
Ni 5.690250729507067 7.974273531312995 12.253897702789354 -0.4215197648873321 -0.1299810918775439 1.2459529924147188
Ni 1.7815175638698744 6.185488851954861 0.4665867297314701 0.3492313997355663 0.589142835487366 -0.11707801066263061
Ni 2.74321422593742 1.5058185489487927 0.19361220605803672 0.572363302036182 -0.37271508467980324 1.0181187995424272
Ni 0.6592835500621658 0.16508900345343128 4.586959061573912 -0.63568648757486 -0.323953599005384 -0.005287730761500571
Ni 8.596031683037769 2.38739639119235 1.428852122576358 -0.22379164737180166 0.0015845708783004968 -0.6537708558803966
Ni 6.773421063636762 0.7560047948482156 4.818562483558403 -0.4097389702023201 -0.7278988453440626 -0.08094861192992511
Ni 0.9247111065949958 7.527350442521312 2.6895206240727307 -0.3909472914171138 -0.5980211118136024 -0.18709840571582614
Ni 7.6612278620131145 4.008658260468936 3.850553812609625 -0.6001954937571018 -0.6117477173710755 -0.2916014079269236
Ni 7.5871845312867645 3.799040345391414 12.498463672760916 0.5855319782076561 -0.2648315960322471 1.4694327649730565
Ni 7.848927073481325 8.816428400466823 6.931022681269122 0.43103516057693514 1.0281206479501455 0.41356785703010707
Ni 6.9450242913589255 0.6683426188726865 0.5710372966057791 -0.6747592852066057 -0.09838866178324346 -0.720807742825236
Ni 1.9504937970490759 6.560905329836592 9.269550654731534 -0.353905665282784 -0.7760214118829022 -0.4182292670615184
Ni 0.1661253573143658 4.7108241111426965 1.6120050988148933 -0.09395916525698013 0.388894265542827 -0.10312077715159015
Ni 6.240917534064075 2.039956051072256 7.086746584588987 0.5467278608562649 -0.2829491315685643 -0.38495379283784026
Ni 3.5174102809351924 4.1846939772653045 0.33593482621973664 0.11636350109410927 0.12352248073639371 0.2246197997000519
Ni 6.191808082814217 5.813493786209837 5.027877075554675 -0.9481359425953865 -1.4452535966236917 -1.5072228392376366
Ni 5.387144307601688 3.0187868562413147 9.203659131813755 -0.34484612618367705 -0.023218861318624526 0.3179259047540654
P -0.009468916069113383 5.608389607460427 12.613294027695352 0.6950422038253579 -0.43984684533129403 -0.6924466751840397
P 3.996976710851782 6.099068856216827 12.678036353343993 0.4166637223466114 0.2013258621691178 -0.31272353461751945
P 2.3712552700830214 8.308985134987813 1.3157460149192612 0.0585573887189185 1.0195740439317151 -0.009282453743190464
P 6.380076025059769 7.807391671790037 5.858976901693691 -1.0895152490075428 -0.06759584477210294 -0.5672663471292488
P 4.846380640548556 1.000713398887746 12.635887986259348 -0.7697641181192807 0.5417664030859315 0.43806172840641333
P 3.9239895944262106 6.203516714849339 8.181094735361619 0.4534911755876061 0.21577854725933804 -0.22837463875679379
P 4.626534598951533 0.9879214701338765 3.800530781126956 1.7465362363941213 -0.39688576838873585 0.6536731539602678
P 0.1571186478452511 5.625523750561941 3.6254501709376163 1.2953510832318722 -0.950154515687312 -0.39191839708113146
Ni 1.469167009964523 1.0940755210984148 2.3797113037201068 0.10820847608714267 -0.2799561103785114 -0.052297523852135736
Ni 1.8337053832955057 6.421439904770588 4.798598227779163 0.5720455136854471 1.2152051697089008 0.004966599976655962
Ni 6.082485388947344 5.81826931924498 9.021602090755685 -0.8491530988715699 -0.6970954868099608 0.45286202664403935
Ni 8.571946385990964 2.293339153587152 10.309819730557058 0.3804741597999318 0.7247888389601711 -0.6945876327864425
Ni 2.2853317853410813 5.327662290269829 6.882849378933713 0.05538644719010461 -0.01809619538007851 1.462957698771674
Ni 0.6278941248892091 9.174439911067354 9.023584523750992 -0.7963696365219511 -1.2297532427264046 0.8352400883349035
Ni 1.406426075003766 1.0847050044812543 11.433407865263199 0.1328311597318293 0.33622855971799515 -0.6059385668884661
Ni 3.9524441882386285 6.769123986652399 1.671686623292456 0.6246405141733435 -0.22517104421783157 -0.43692761480197007
Ni 5.594911590784685 8.110091857425886 7.936555847808026 -0.7898290071899559 -0.7513298226734932 0.2928049413167215
Ni 5.371788576613452 2.893025134667458 4.804015614120163 -0.1355264471758053 0.18039605399498607 0.1411993291908665
Ni 0.6735072359793123 7.47279742525975 6.901716796785222 1.1871842590159425 -0.31749061698885966 -0.03976905236782183
Ni 5.162811612094521 4.734755941154347 6.919554180006654 -0.5950147208871107 0.13281007668590675 0.7722269778374764
Ni 8.124174714769595 7.12118639277248 8.967417394378497 0.08044159038651953 1.916491040451125 1.7702729178894285
Ni 4.551741987994717 0.30084504000499385 10.47343183948393 -0.505801040734916 0.19121037100167068 -0.8759105694710722
Ni 8.186626770605352 7.116356694901401 4.677874738694745 0.3787291520843671 1.5067993785469727 0.7065741157243572
Ni 7.567721300239946 6.176271802372855 6.935541834080827 -1.0423406482042696 -0.6554646986430518 -0.2636278055321331
Ni 2.446752023907023 4.983968351302067 2.8509923192328133 -0.995666384076182 -0.39764115849752163 -1.1544289189617924
Ni 2.559550294746542 5.108285677250929 11.39890937850744 -1.2053658150209758 0.01693354253054503 -0.5050145402778786
Ni 0.9876867558448147 3.1372453524362864 3.7351276444798787 -0.017132031694596303 0.252106692266411 0.06918530074640987
Ni 3.6434518541613925 2.484766711262383 2.6503720861517497 0.061791065164867785 1.0878710285359006 -0.8168075926613287
Ni 0.9959559207979158 3.4465265656385218 8.120078950425466 0.052353573901051775 -0.08136435931110503 0.307871862952173
Ni 3.768915669137594 2.86571702988238 7.18586733160706 -1.179444981390156 -0.44748019350683577 -0.7554518152616667
Ni 4.213013158987879 6.962032049843251 5.985844488667935 -0.7264032346351426 -0.9998387702863166 -0.1495497580380908
Ni 0.6710066260535382 7.317551977990665 11.221054625970842 -0.12432775024650845 -0.6538387330038545 0.7207825460142554
P 0.28487453812886787 5.6321138056009845 8.075710727814657 1.0639510273851935 -1.2086038623422992 -0.43363583142457574
P 8.464862505342834 1.658148122549917 7.96600707460169 -0.4738486561980355 0.41481869871807264 0.8322622366535021
P 1.7456875248973212 3.257626700307034 10.40051062360875 -0.3607239737561981 -0.022029726106529802 -0.016670518677145484
P 3.8903532313091196 6.064710295287239 3.9047646886575156 1.495960636060256 0.4917301644641467 0.46061518822689707
P 6.98496183039006 3.927717940633231 10.488440915522167 -0.9813710504994325 0.6762302133251773 -1.7456288940885032
P 6.255623287021065 7.694701730622394 10.205175975767904 0.3370677677898388 0.7446706654857626 -1.1785281260028413
P 2.2877962853762304 8.498200961862269 5.751188878178376 1.288188246934846 -0.6418514787349914 0.12581847585942205
P 6.988013116147863 4.2100882578472625 1.5585732936572345 -0.5295318086929526 -1.0916942589367329 0.35267359264789583
Ni 5.410895588160214 2.8572763429488104 0.6857665438464645 0.18873645553988141 -0.44071639242044097 -0.9893926352523285
Ni 1.4555987185622183 1.076435839528153 6.958821880566698 0.07401383248330479 0.8143843279318169 -0.4044044453632841
Ni 6.8211312566249065 0.6676267402910481 9.14372664359635 0.13174718263903118 0.5090491153585684 0.4064471868249258
Ni 2.501548782930303 1.6161071823898818 9.123815649905781 1.208551668948125 -0.07821012995283949 0.4862079490943369
Ni 6.308307617442789 1.9362484451975543 2.6892299394532 0.5783801976542233 0.4299198160255692 0.05957194602636192
Ni 4.170114608925503 6.781536761554707 10.436661137860597 -0.09085712929288868 0.4385417533666253 -0.2206379322341684
Ni 7.97096044884816 7.2524097353033525 0.31861471718150525 0.4211194441251199 0.4330902433337509 0.042389006489172154
Ni 7.5801521300875665 3.933748292367589 8.278577898839854 0.34196186265734657 -0.4092977688998435 -0.29140034765971107
Ni 3.0069247571710362 8.05389584014089 12.371291859958157 0.3544628233378347 0.45932835109467346 0.520721152379858
Ni -0.0063309665738099105 4.956163735520897 10.212336567078822 1.0436441975070414 -0.8551234575223918 0.1272742344693421
Ni 8.529354769998898 2.1445483492672675 5.808835610319225 0.04496345208456772 1.0591818881313242 -0.3739016487887367
Ni 3.5808553587631353 2.563296695898875 11.38426952610084 0.6119284659233138 0.2628968409033795 -0.21977789822671828
Ni 1.1208510049967753 3.4532610602400644 12.69745896076386 -0.49131544552423123 -0.006331341534666515 -0.5469083522981871
Ni 3.0195090540538128 8.31685709114404 7.983182744077422 0.41136210762803993 0.5676628112367191 -0.05335964656806294
Ni 5.6120998987221355 7.706148565950485 3.626031540176677 -0.6722282912546358 0.5195726405977117 0.40251468453973904
Ni 3.217689161275899 8.35939454230017 3.431832548395986 -1.0019247062810681 -0.35852619477393094 1.414320397379945
Ni 3.336328206923995 4.311638297757127 9.117697731686658 -0.030336446200012267 0.013718120917040891 0.3570570664275722
Ni 7.271466730080642 6.1162210542636535 11.329517001693576 -0.4785038955818598 -0.20464875589476367 0.3112973436939542
Ni 0.5927375353768103 8.86627810447449 0.12747423313674264 0.19760881832884675 0.1656744315140953 0.6398976974427302
Ni 4.642612527752267 0.26194836857112136 1.6878855202267846 -0.4278806741083534 0.32018410466062275 -1.2132470175412655
Ni 6.033637734404516 5.765178752553726 0.3160960523104187 -0.8724305813422717 -0.25514625042368316 0.09982873666387969
Ni 7.959251816813038 8.896971511505653 11.189331184309605 -0.20206891098272942 -0.3036999909626705 0.09623947665072458
Ni 0.22929329173176216 4.771082491122992 5.727089137175319 -1.3393629700364482 -0.17075570269174462 0.1443363321579514
Ni 7.81467684222361 8.636402540756402 2.6752906189247248 0.19065347005693617 0.6801308339311642 -0.0661619405390538
P 8.39004281196805 1.5956238469329092 3.479622183143505 -0.16618582393287507 0.03887790801212015 0.2595011849582692
P 1.9547367091975012 3.274020590650737 1.5020369406531004 -0.9363646609920713 -1.136726616586023 0.6413799384152115
P 4.529408020643218 1.1493417086998183 8.200755668059609 0.4141422414763384 -0.8368056330498106 0.5152511304042223
P 8.442853527006958 1.552454472690846 12.450871739664569 0.34880948170679926 0.7935100555859689 0.4324032445690553
P 6.150164351451056 7.737988462008988 1.4539033591973796 0.3443550454798715 -0.2992419551913169 -0.19125947907205124
P 1.5845651929290347 3.1246339731355417 5.98079722870584 1.7291954311228284 -0.32187023411379406 -0.3510039182549568
P 6.92471247788242 3.9221660449496536 6.062438080419668 0.8829199109093698 0.3128775436968805 -0.7508788511790037
P 2.353904467637759 8.438231461006973 10.31822250210547 0.23603909728058703 0.5992593550960776 -0.8417663194891953
