# total energy = -340873.9081462519 ev
CRYSTAL
PRIMVEC
9.17170484497648 0.00000000000000 0.00000000000000

0.00000000000000 9.17170484497648 0.00000000000000

0.00000000000000 0.00000000000000 13.42371713075362

PRIMCOORD
 96 1
Ni 4.56753643925792 7.909237862958549 1.8412637360737507 -0.48815813084217213 -0.3951677572563646 -0.17361374096583002
Ni 8.074071739233077 1.440984863634738 5.885400339443446 0.04251576187502355 -0.8572862695016655 0.3841557224165771
Ni 5.964955705724619 7.072081347777504 10.28415081488585 -1.4724085597719285 0.08165926484370453 -0.1369456961208351
Ni 2.241381186510625 7.660602121142048 7.047571801395999 3.1969801189695004 1.50291906965596 1.1650925693232255
Ni 4.213829648776776 0.1570415959894816 3.8116779142447705 -1.248437192289153 0.43333526946502143 0.4671331918510729
Ni 7.756703242642409 8.267310384861165 11.240026792446434 2.0344774218606383 -1.4392269308136374 1.7977577535732587
Ni 3.313562633782409 7.623658494743551 11.222429042701947 1.5566317286880675 -0.8022145253385022 0.467659239557872
Ni 3.040475127323804 5.2443348700419135 -0.12593392527056813 -1.3423202528925593 -1.6396752754738084 0.7644717593720899
Ni 2.7698181226019423 5.638158696736322 5.78650826821293 -1.0127189686830946 -0.05491722086316993 -0.15268573256391121
Ni 1.662719995663058 8.084747603465413 2.6926363934885766 0.7966048924612087 1.8533277775290793 -0.42888854654757746
Ni 7.089957000173401 8.397456874085266 5.158063064433128 1.1179472790959908 -0.13490192621792896 0.5677265745951191
Ni 0.9246454059991351 3.073795930378854 12.692500133347 0.9816171050719673 -0.8942358501428211 -0.22715542163771202
Ni 3.3446913994220564 3.3348685037237464 11.33320122298757 -0.29527114346902694 -0.15629067630635018 0.2778208092030635
Ni 7.078024612401691 5.7945362613079165 4.6295316597837415 -1.4963972093770423 0.7964130881653768 0.511445383504887
Ni 2.695508971390267 7.868864019014611 4.6693322721859944 -0.6960256507845496 1.261345672820705 1.6338802660585863
Ni 0.7951528593177882 7.796526784306331 11.87210949429715 1.460856336157955 -1.4183452022686218 -0.45012611577011513
Ni 1.215681938490972 1.1501042501222392 6.647263579502051 1.1477571633685717 0.32976326370862563 -0.9327962269145226
Ni 6.50937892305044 3.323963346874736 4.591957937274623 0.6067734040849356 -0.4369366136630346 -0.809360135244348
Ni 8.067137930504858 3.038998482872424 10.248806733781269 0.013414216523376897 0.23308772796174695 0.40299753771342856
Ni 6.284718017233361 4.957150453510198 8.817784175755778 -1.5196021867385958 0.41469322888380195 0.9846245244397236
Ni 4.7533093172871075 6.8524006775945825 4.655493087014025 1.0468917579100616 -0.5719964056150665 0.575224682744377
Ni 2.013757820086119 1.3875596839497213 3.607905565806683 -0.927524694102938 -1.0099897426773896 -0.15342029673709062
Ni 8.736369704938612 3.8854275914717613 1.4263770896116776 -0.8217862768228429 -0.32856178720135676 2.252705973322365
Ni 2.6989208455263753 0.6007760051405301 12.602642191213436 -0.5859603239943263 -1.6498792125900037 -1.3283625051608865
P 7.361026731605275 1.8740085560757158 7.866942546886883 -1.5418874804993574 -0.9097676272298332 1.3224438256836064
P 2.5024537598555177 0.4092964924675634 1.2729188786355758 0.16755879302100174 -0.8015313832285486 1.0985531908400954
P 7.915061895422066 1.2109218237688222 1.4947310529830982 0.0016012830488488549 1.7107768194063246 0.420869790008159
P 6.430997534966637 7.601141959786175 3.357070449211046 -0.7703050782244153 -0.482779125918446 -2.183391346086943
P 1.9138229260349702 3.303904828768104 6.539121844114911 -0.8257434616983779 0.3974892063006897 -0.21378362831649633
P 2.8016164226822773 6.102577134252289 3.5012679899849233 1.1162655205181935 -1.1478214409476037 0.2530289469703642
P 4.704680939142908 8.653099798267322 9.01446863082724 0.43195664394993993 -0.11644243396116075 0.07402411689594994
P 7.749686888572189 6.934927676187849 9.17911081847423 -0.23516183688195627 1.2388575190205182 -1.5957816594146519
Ni 0.05059570879526091 2.659482515458466 8.202870905041602 3.6789804577403933 -3.518633351976482 -0.189503415612893
Ni 1.9086592563074742 5.631665129832117 10.949135172888335 -0.09782404752902507 -0.418710320462995 0.7217600794361763
Ni 3.8961768293414334 1.0079611711937604 10.506823295131131 0.9408224396531087 -0.6373543621955863 -0.948297150763599
Ni 0.8909283853024726 1.9298458940881418 1.5623054214578276 0.33838288705683656 0.07834974085449734 0.24485283891747509
Ni 7.731875438108961 6.317516033122395 1.8847972322754556 0.21337405158290348 0.5083947696040212 -0.1716249926705754
Ni 6.251516446338982 0.7088251063105347 3.2755349118922767 2.1969428595191327 0.3374709167655285 -0.7486283645819299
Ni 0.7609368978872434 6.930066672714363 9.186037289838714 -0.5310053079146855 2.253509185949951 0.8964845369676818
Ni 0.19211878048825357 0.33304477420742745 -0.07435684407594295 -0.6090642570016414 -0.2531770425124543 0.3117074346481793
Ni 5.040979834166172 3.5752863981586556 13.064552167502992 1.99280806714631 1.0224009718575489 -0.07525850352368328
Ni 7.429722799560773 6.3916600936500645 7.002105827020967 0.3626209336685949 0.6731418042078408 -0.046001406430778845
Ni 5.400629889271505 5.6303260609507415 2.5164901366778265 0.37141539203177326 0.9555841713433157 0.5072058915022426
Ni 7.573846966697315 8.88387823109726 7.876486622763317 -1.0488388543341032 -0.1965891188150808 0.2771602928009292
Ni 4.147940122449366 3.9016706804369394 1.819155341974054 -0.6580512284233054 -0.4077178260072333 0.9937084890188629
Ni 0.4193761958965477 5.24000582543911 13.237636909295912 0.8404056916962429 2.1110731561385063 -0.5379709405992413
Ni 3.342196695752644 2.1224516920942107 5.344129437011658 0.8395402583721542 0.028365181406254374 0.6119770597730622
Ni 8.495759204705697 4.545056591119212 8.173271979740402 -0.16583589679262406 4.284812838068297 0.02522920688043397
Ni 6.55803481630864 3.584467274530278 6.854687183568054 -0.48397468888844386 -0.14876325758105347 0.15337890197619392
Ni 6.931653377621746 1.2163881597503277 12.411461676112612 0.3823667488369544 0.7846070966693842 1.3060461010518731
Ni 5.4302453236411035 8.118747112665817 6.896367078256568 -0.8578012614648711 -0.5451031807686483 0.5273304301662596
Ni 0.7491943644021402 6.860004020763489 4.49643463316828 -2.4868339696231687 -1.0421786687051084 1.4770892530770496
Ni 5.771423565547188 1.2286323854807135 5.677614453043098 -0.6586240702076399 -0.23216213082368403 -0.3066739859893299
Ni 4.025075966730828 4.097688352579116 7.031047141097544 -0.5492866227223766 -0.36937470745266066 0.6611728047714227
Ni 0.9264522318185254 5.855243774498496 2.403193903267857 0.23091668845235713 -1.4388307238164832 -1.0005445381040898
Ni 9.21765490733711 0.16949768809767413 9.536329454672352 -0.06441873259570197 0.7485149789325173 -0.29159472305870426
P 4.787785755130193 1.5843844661025899 12.343724968465278 -0.508064382847796 -0.7187788853206653 0.3229799222382051
P 8.793821262972422 1.3754622054940067 11.431127513716655 0.6257640862548256 -0.6563722980589857 0.36726665997072233
P 6.273822032089019 4.117040649426392 11.105306374104922 0.24692052007978119 0.6031818300789354 0.12934757205860303
P 0.08376517872330606 0.15744515099482767 4.382065310312277 1.7973376353167045 0.5503772846833941 2.7485573590437373
P 8.478699834025159 7.080821982325113 13.243516889157897 -0.5631883204051333 0.9239475182746409 0.5274517862354722
P 0.7070687248668127 6.403243956644429 7.0063349000429 -1.9629747858349613 -3.123764099797143 -0.7277623197661982
P 4.580908784662342 2.3033177081265763 3.3783066141969154 0.43584569459170097 0.34585399862290117 -0.022931669095508898
P 1.9373942070290464 8.833947470890353 10.36778116955055 -0.3792891383528952 1.2365142155993218 -0.6816850657921616
Ni 2.7804022697876087 2.8005800200549116 8.68827236849463 -1.4434209142903272 1.408032250378388 0.11122797963975684
Ni 1.6055802755879243 1.9244162449253042 10.70321242131232 -0.844632842403713 -0.16527513919314762 -0.8227617533622347
Ni 8.565023918350546 8.51581772281233 2.6856695666235573 -1.28790439714584 -0.5914786827093942 -1.1024532972254497
Ni 6.460851433657578 2.9694035878595644 2.15162046444653 -0.18705675384461334 -1.2507671259739104 -0.22389037773319506
Ni 6.7677641869279155 8.717475993324683 0.9946264297784735 0.47339768470354604 -1.6327569510874205 -0.40480785144929
Ni 5.670021198749326 8.465492579304742 12.315575172501456 -2.3410048549697744 0.5253146852878113 -0.006695923962936856
Ni 0.08561327721369763 8.307840147784441 6.509697181202384 -1.1630467425377906 0.7665178432678411 -1.2713698898259265
Ni 8.726711899924307 3.7167782860557805 5.733404098191257 1.3165089482564103 0.289462764317366 0.9765324914602084
Ni 8.293697379187996 2.025754409790497 3.6373173883326766 1.6022479838652859 0.6579054468740604 -1.2585277437559357
Ni 6.490797049395189 0.3932019851179896 10.114408242273566 -1.721462581254945 -0.23802450314173204 -1.7276792515886181
Ni 3.9729073105851844 6.50239008409422 8.745887182871511 0.2890794128360183 -0.16174809987649563 -0.03808292291465055
Ni 6.4596682837555415 6.267787050418161 12.662605879155526 0.8467074655445547 -1.018826110022097 0.40848118653581916
Ni 7.833864794005507 3.5722230487998923 12.671197014917064 -1.6131250357891058 0.7488065420310073 -0.2780514371566308
Ni 8.150233574787476 5.670388066936004 10.771392122295069 0.5935869873016487 -1.1193343892515046 1.2698966477145095
Ni 4.602709926655696 1.9110072127022149 7.559217180583054 0.46059050563654863 -1.477391871919133 0.39077425617435924
Ni 4.442003317481299 4.265411315823734 4.425826264789722 -1.261253627327531 0.5704172340534047 -0.0004373446477347307
Ni 1.6634445603317476 3.911291798632576 4.064822466075547 -0.20651640523112175 0.25470299223867743 0.1718605057201492
Ni 3.1005039343690286 2.4232010598283535 0.40328077137650714 -0.9465994513462019 0.4775610720526162 -0.09386943375665124
Ni 4.91321798815548 1.0837011083334802 1.2039889322110704 -0.6542285122431055 0.3691487074847836 -0.2707474472960498
Ni 5.968936225550078 2.41143376274065 9.528140956745695 -1.6584319872560214 1.9891100494694323 -0.923101625334578
Ni 2.112527907644565 7.31726852863923 0.6194119918533174 0.3226950440079346 0.5731989105636 -1.7595262208958857
Ni 4.400675616251997 5.460310171539384 11.520757080404014 1.3594839091560393 -0.3648770766926232 -2.064229199201774
Ni 1.8565089435711644 5.172593796136986 8.463747203906621 1.381107400963086 -1.9878458380450281 -1.3694497621194994
Ni 2.58430205230343 0.6252956403971694 8.514395191418485 -0.1805930004971406 -2.3332766330875816 -0.6150451571754246
P 6.653411373140312 4.687511508006367 0.9781127755256199 -0.22931026319718573 -0.10349024467586693 -1.0005977599395284
P 4.019976498936001 4.28452514834967 9.491359669519802 0.62636880971836 1.3019896715943124 -0.30354212522856755
P 3.642028893020092 9.142960544529423 6.092098461670292 0.572761051695233 1.4484060262097442 0.3026011014715369
P 5.44577301964226 5.532500658972993 6.612684418566696 0.445896908180116 1.7856547996621375 -1.2000423459255334
P 0.740252869522325 4.110831405366864 10.03100626305507 0.36219747297793103 -0.41881470725134323 0.07861070782536785
P 1.8759529574651104 3.9773464156439906 1.3285764512365295 -0.6693406852941957 0.3651953792639904 0.1988987407848639
P 4.344260460845552 6.892673632787185 13.128596346851408 -0.21874585741777813 1.5319226559771617 1.3878064102498162
P 8.549789716898733 4.627904599375823 3.8748636220363615 1.6645345006093333 -0.943730100218207 -2.259316022439715
