# total energy = -340886.90256165754 ev
CRYSTAL
PRIMVEC
9.10869464770994 0.00000000000000 0.00000000000000

0.00000000000000 9.10869464770994 0.00000000000000

0.00000000000000 0.00000000000000 13.33149533789341

PRIMCOORD
 96 1
Ni 6.818258599641388 1.9393594674801307 11.39317600358326 -0.2768985544991102 0.9655379401219177 -0.5181734462573399
Ni 4.646709401212298 0.5494127683316004 5.816558161331947 -0.40077584747176137 -0.16557801514554707 -0.06678286195250434
Ni 2.6137034457997093 2.0000871335676407 4.588567693487206 0.5698035117288057 -0.7587783085317383 -0.17970108481049052
Ni 3.3055361175178217 4.445571209740211 4.670475806845346 0.046545966080339195 -0.08214288934834241 2.4425480032215997e-05
Ni 3.9369143839827756 2.735277191002949 2.4164537560004535 1.8838202896909815 0.7377376858113552 0.36992363797759514
Ni 5.306087794503861 4.786828448373564 2.9760700838867606 -1.3588820139059823 -0.5784660724998103 -0.7442060671445183
Ni 5.7010225696984405 2.785821336663605 0.12678665105322917 0.6815266858374263 -0.7773650703949903 0.15262839696341457
Ni 5.819417380528717 8.25753252286826 12.305102970852463 -0.3394031007912348 0.11834067942513814 0.5206365630858517
Ni 2.1251039652837163 6.970829232154633 0.48380921808980143 -0.1290639793799132 -1.1093834486863796 -0.843407197526728
Ni 0.6879596548258952 0.17133545400820055 0.10541492119855318 1.5830225599767702 0.4049785726991993 0.07150854956294782
Ni 8.195055987440897 -0.0029029409302669053 6.972772116686875 0.22444702156761348 0.15323543441979418 -0.9728840960743439
Ni 8.804955952325777 2.9050450386914166 1.3987939740954027 -0.4744397528148152 -0.30485004540671373 -0.1777781567561648
Ni 6.983299034895565 0.9974840236353892 4.775301395511146 0.28920693955281807 -0.2975419417810746 -0.18303246317656863
Ni 1.224381603092398 7.618193257429183 2.7126657678297623 -0.5559054135904749 0.7317303032750108 -0.41669149026075336
Ni 7.916275284234907 4.154129421209243 3.9192462493030185 -1.543100526970852 -1.5367082502912632 -1.5022467261792838
Ni 7.910609676269341 4.068589671362563 12.5730661884959 0.2470043380428391 -0.4174854469169585 0.06935782176853217
Ni 8.419840349778916 7.113881278937945 9.305756529095591 -0.855241728267811 0.5665994029692113 -1.7852771046077447
Ni 7.490735295592895 0.7549322418477981 0.10580477332222882 -0.826047623202358 0.28816538566218114 0.8322095290386958
Ni 1.7875266392196378 6.909418413981242 9.040179789405494 0.7868143887333482 -0.7667798386799762 -0.8837686320629103
Ni 0.6282822212117449 5.201538199280756 1.2735594445812934 -1.0852497888629697 1.1989336862423867 2.379539006489231
Ni 6.164682444732568 2.404850190104417 6.9115799071809665 1.342807476941623 0.249719422981157 -0.23572439425364564
Ni 4.142779987889153 4.391055673286972 0.35774124303091825 -0.5239417161996849 1.8756626935808534 0.12753931520527068
Ni 6.3560834418072405 5.728193805327515 4.825881065080268 -1.0329193548903695 1.5152205127311322 -0.028871174508395436
Ni 5.517345745541452 2.9499053589975492 9.32390104849657 1.1936307859722346 -1.1394995513454698 0.5737198160640765
P 0.6067046348618571 5.9951514231005385 12.505395875476951 0.12323194607916842 -0.7261101288747559 -0.014754018380722978
P 4.304841880048891 6.515166790872542 12.274813829103431 0.1170633553746113 -0.39419845136455983 2.012513258884721
P 2.600759990945899 8.7825941073813 1.4239904447615601 0.6488361375829407 1.2985531351089377 -0.06728756950306476
P 6.585804716552555 8.029323291406362 5.690975679688763 -0.33525565428176457 1.0651589316503656 -0.5221519712891136
P 4.809463554152395 1.1441066786542358 12.119249168715136 -0.24107434571164935 0.566459020736605 2.3382630305585796
P 4.100552080287279 6.431093540836886 8.12877292859101 0.10073170809412328 -0.6755301019343591 -0.3534870896881267
P 4.8214688134749295 1.1778361743077606 3.6337387752247277 0.8435421804426957 -0.76549582976123 -0.25248233043827484
P -0.00717309690174204 5.910404129673481 3.4070898631269797 0.917515132385736 -0.0708644882210457 -0.8002949397182862
Ni 0.6257463606689576 0.3560898367219838 4.809497256321965 -0.435483940376908 0.955282838052813 -0.5140020884884695
Ni 1.9215064263024617 6.635993623128553 4.781753994679646 1.896880208198733 -0.5624103045885281 -1.8534018253001243
Ni 6.427604910851658 5.542595046635585 9.021423165735568 -0.8649977792133103 0.7984702278047217 0.7536129622807151
Ni 0.3307448943358286 2.7145366936756266 10.195754314408038 -1.4243901229111209 -0.46487087817945744 0.46335007065955686
Ni 2.4027369729854273 5.387510414446302 6.965626345868569 0.5391647037970262 0.023216290215463245 -0.21687897941236842
Ni 0.6621875146687028 8.989844232848395 8.960990621349158 0.14936875237553632 1.9646717139214098 -0.1344247294711943
Ni 1.7752845538406647 1.3727440187566193 11.222705875550508 1.4848406148876945 -0.8207439516012575 1.2005586234403196
Ni 4.5424148494345875 7.18193233538609 1.2151900194942418 -0.0499184820969979 -0.5416226784192156 -0.06608249345137007
Ni 5.97341807807507 7.864401269180405 7.769209035794963 -1.204948267867583 0.5223041805962618 1.4347105310005228
Ni 5.289309579274643 2.9531571629263387 4.604778437050419 0.5699755185302958 0.8080894960620406 0.7756874255822511
Ni 0.7619614213767812 7.383571505054488 6.457496002651983 -0.8067862038695849 1.3075365695544707 2.7015074567437862
Ni 5.289309579274643 4.9609320346337515 6.896781922131354 -0.47664807332004355 -0.5694669543249935 -0.2627186634543024
Ni 1.045942278260491 7.707185202483175 11.31658645693106 0.6322818327686852 0.5514936576760244 -0.05806579379448064
Ni 5.0119589411017635 0.459451658185105 10.14357424721906 -0.831482421064684 0.41472331079078895 -0.9524024311812244
Ni 8.363384661401776 7.675432293531464 4.4185639306117475 -0.8429037755277482 -0.8289133747859273 0.38822809271373787
Ni 7.425535260516489 6.416829325283708 6.806368109869282 1.8585414605195347 -1.3617012285223322 1.1807734703935922
Ni 2.72073060592094 5.650651489232874 2.457634163737312 0.5345855690667761 -0.21567801712573179 0.22718267533122166
Ni 2.7208672363381163 5.713829394135074 10.934425714872992 -0.7347937726916829 -0.3700015424033821 1.4437970666828233
Ni 1.1305256151869376 3.7947185544804323 3.5175018141163847 0.47009767379603556 0.12624296499135032 -0.45011068915114744
Ni 1.9092916670069238 1.6134777051263212 2.4077476658179964 -2.182347478203461 -1.303836237884748 0.1805109823062956
Ni 1.2890077904166641 3.436792404951603 8.161434885251666 0.7811787877141255 1.3053467609920035 -1.01859213963442
Ni 3.642867508830983 2.9988372657355282 6.5693207121549895 0.6276677310354416 0.3225924569917993 1.2232964313574675
Ni 4.342433462161259 7.146572383420931 6.033395187737559 -0.11843529602147346 0.16714458830171858 -0.7426821743008242
Ni 8.531631357112351 7.2869464740275935 0.5975922969056631 0.22841500507642598 0.10927574100939247 0.4552963471171449
P 0.41736129186985454 5.48633974953697 7.801298055572927 -0.7108796850782467 1.8406193288234753 0.6088403139162933
P 9.013344664602672 1.8305561119356117 8.044023813425056 -1.0720093789132956 -1.4444609255190672 0.12494712899806223
P 2.462180313151483 3.7541484292736276 10.247840562043889 -1.8967493390478236 -1.4987857642138769 0.3921030022881118
P 4.086433603845754 6.3241301415770055 4.00659407500366 0.8993253488505867 0.49043972778749734 -0.5996576189757608
P 7.163241294316408 3.988305638229923 10.523775709094824 0.2926928412188895 0.23910642335200114 -0.4272031884253546
P 6.681819465049396 8.06155896116543 10.363957288385116 0.544886693882468 0.0030878948967043595 -1.9110300173365538
P 2.3828526929390743 8.666868144033193 5.596428341872391 1.0827992704399483 0.08560616530659451 1.6371877331652642
P 6.812365274313862 4.264581450454352 1.5529595390118145 0.6967604720680451 -0.5779024866868564 -1.2416921602558357
Ni 2.9335279263253815 1.777889640461488 0.3375991869308266 0.2307238557152607 0.05866717482390542 -1.6776499549453687
Ni 1.9602001604467159 1.3636262155837382 6.8743053076364475 -1.6714176008824118 -0.9665031322486645 -0.3211755220396146
Ni 7.010051270578633 0.6456215320208322 8.83419486160145 0.6203637411748607 1.0100691897650733 0.974120025363974
Ni 2.848707763342497 1.9351967941035009 8.972975841543839 1.0963425563420217 -1.1952325832417157 1.4416604799557946
Ni 6.537118744565492 2.065478451228093 2.411040458871939 0.6350480826599127 0.48999338427869804 0.05704609428071465
Ni 4.364986589689783 7.247596913880895 10.126003575570223 0.7720634556764188 0.15752454871345128 -0.15590963881784764
Ni 7.991449339765164 6.67164505331702 11.526623842908545 -0.8880986268968318 -0.2241886256999042 -0.092867217744382
Ni 8.029724073963411 3.907420431261708 8.517238708967028 -1.104757005657962 -1.4483936849145702 -2.092741190598538
Ni 3.272963426063054 8.524635879752937 12.465134535012966 0.4088437120815604 0.9655204566204211 -0.8941188649489826
Ni 0.286630576107477 5.057092522242248 9.957120182115608 0.8700253143348888 0.7162476342583793 1.837959265492809
Ni 8.684347728737249 2.5377096077663968 5.700466939335258 0.00578909587795132 -0.291462311245898 0.45532977145824166
Ni 3.982102617290131 3.0368114130159882 11.623463839125131 -0.5824592528196033 -0.18126354420160393 -0.5137010123082831
Ni 1.2728671838009349 3.9736588575086516 12.919831454680343 1.3363167270109564 -2.1378843627940793 -2.8136301802836705
Ni 3.325283767146998 8.552289876189368 7.966955149443291 0.2771402381962711 0.5165647070093232 -0.17501704907125987
Ni 5.913328020601048 8.224422418439266 3.5077828371079294 -0.13236861827311397 0.15265333666407901 -0.07786740190144009
Ni 3.505991156904028 8.536859747742954 3.7705996423710704 -0.7029717430850797 -0.24705113212037447 -0.8935555362463449
Ni 3.900270106096162 4.3570620254935735 8.853245696103029 -0.793974139706581 1.4865267443408656 -0.8245090750706445
Ni 5.351922745119183 4.951322361959037 11.241290344894793 -0.2982145423680671 -0.3653514452258805 -0.7070268869910599
Ni 8.374260442608989 0.023885729530715116 2.4732318921621284 -0.686906719202417 0.03789111861881861 -0.6033564079835867
Ni 4.781244818658304 0.5224191522448544 1.3833028173959836 0.3723551302372232 -0.29366677509638456 -0.03610882990741523
Ni 6.5161414211817315 5.918264933008342 13.10467328086112 -1.4154007749283173 0.17296402319697307 2.271710539449326
Ni 8.392969701067628 0.25334011952781127 11.179978811491216 0.4886774936807519 -0.7252742632370218 -0.44722693984544915
Ni 0.16293450509076984 5.270837146872442 5.548287980684586 -0.2732272762951101 -1.2570025653606611 0.49996926454448737
Ni 7.064785415699355 6.3241301415770055 2.602254727709805 0.924067331681957 -0.13319728482199641 -1.5787321601315327
P 8.928897958093401 1.8784678448920094 3.3578437064294966 -0.7059760771290422 0.67170867130574 0.8411166017203384
P 2.370628824949058 3.7165568471612604 1.4557725015356022 -1.3430028807818806 -0.01533868723959939 -0.07091282496047788
P 4.652047096176641 1.3243313076039094 7.895124895656056 0.05665117283514114 -0.12363329528264512 0.8560469977779257
P 0.009256255328952714 2.0701785375789488 12.426526422596808 -0.5823538375899906 -0.3548716287404792 0.5810955397028573
P 6.587790411948847 8.070203112225434 1.1222294162560085 -0.046575019546061726 -0.014203545193891668 0.8112180143886932
P 1.535525497780152 3.4802408776135834 5.850566383036511 1.8396302254373287 0.18986337005547305 -0.3972686056494513
P 7.193081377427656 4.181619461145061 6.07637547350335 -0.12446504715532113 0.02595091553780692 0.14288597286467003
P 2.5892374924307204 8.719762332869278 10.124990688744225 0.16009179521999525 0.6782639559257545 -0.038288611167553416
