# total energy = -381177.48082312656 ev
CRYSTAL
PRIMVEC
9.14013073409450 0.00000000000000 0.00000000000000
0.00000000000000 9.14013073409450 0.00000000000000
0.00000000000000 0.00000000000000 13.37750522792070
PRIMCOORD
 96 1
Ni 1.6552411236700548 5.806496581037097 8.865326349660556 -0.5781577972307721 0.1741870969707968 0.2539200913260659
Ni 3.543893767059828 1.0481719175477897 1.8070203073706346 -0.7618896004672104 1.1215231693727072 -0.8346173671492401
Ni 6.105287456223595 0.6462264403953294 0.5128637062026504 -0.07021399912124038 0.3078512941268827 -0.06308510138594296
Ni 0.8867901124501181 1.1042191994885548 11.050180469186955 0.047670309492769514 -0.713323775743365 1.6881585677861763
Ni 4.163091926726678 4.635362484110782 12.215856080011665 -1.6926371723828204 -0.3324328401209887 0.5518536121186044
Ni 0.374759986174571 9.04055819492862 13.423791085496052 -0.15793695366052155 -0.4947650946357286 0.31379002820882085
Ni 6.73048154168189 8.46959250538594 10.270151654308446 -0.034418329578869755 -0.7440656849119122 -1.1892673667972162
Ni 8.462371802070022 2.341290199859207 13.288411124440307 -0.4748069063462468 -0.5712459006022871 0.991315563306654
Ni 5.036632505598627 8.535511128568718 2.267767901880844 0.4746426128542407 -1.6430696458673382 -0.4012075356925413
Ni 1.9887462155576334 3.443343188352986 11.87392744359757 0.30277233694207856 -1.0887146074831184 0.053388185813153216
Ni 5.6038507415216525 4.542754679051449 10.490866618362164 -0.23425012370096432 -0.1492985612592332 0.41094970268096964
Ni 3.9528597786641315 2.150517390226518 12.797937996608546 0.37227568314953946 0.3687843821668294 -0.33102618958144925
Ni 7.733903378932552 1.3593659502022621 5.693051105826335 0.9819485202694572 -0.784416577925133 -0.6806715369259826
Ni 0.5474051744319957 2.7452291395347066 6.557532901082581 -0.587263359076466 -0.8467491174157675 -0.7714237652098908
Ni 1.2014610508531665 1.878708181101523 8.916187521396951 0.15669228262014304 2.3401227094751373 -1.1518896974797066
Ni 6.127872719380091 5.240996689700644 -0.2671020417734793 1.3054390635954936 2.846574239309859 0.025434895133336844
Ni 7.246889790600886 5.778217016404883 4.306178846055818 -0.1549256776380235 0.26261787621037996 0.6970191250460704
Ni 9.068280211583273 4.128907837610817 8.116533931721474 -1.439702327788159 0.10843807559944552 1.641597946417818
Ni 3.96617694921007 8.81095810974401 9.819022219417652 -0.9877203897562279 -0.3366209100604074 -0.2957784221227487
Ni 5.072973665578484 8.90317288917982 7.941649411423036 0.8826543159528089 -1.6126486103733195 -0.4935697887760468
Ni 7.829509146887608 2.5498222835967397 10.41866872533377 0.8573736870091492 0.44735472367256507 0.33609563368455664
Ni 4.72325398168782 7.252245907237755 12.435340782462443 1.4301586499637822 -0.8920131314598896 0.8800644437384456
Ni 7.172370304354463 8.267531634240394 4.105583137874248 -1.3131081501049773 0.4191314671608136 -0.7941561738104
Ni 5.754909682916797 3.3020093461073814 0.4729706914018247 0.5095376249592127 -2.2521213044634893 0.4858199696272988
P 2.4322436412474246 -0.02086600455684481 3.553064974284121 -0.8300462028387898 0.4677885660468847 -0.35422679606762864
Ni 2.1639533824725916 1.5709782580125347 5.301331606990138 -0.4214801698986483 -2.3586115123079443 -1.1112366998450347
P 8.4496761604171 0.5830004997402336 9.507486345872021 0.4480368373412542 -1.4557426690804736 0.5826369160480481
Ni 0.5622615430012258 0.4461681719036024 6.814461063285242 0.28952009991786265 -1.4556783915014413 0.06351396139324546
P 0.8198322563976943 3.8401254056280263 10.074813349351325 0.07856854173352275 -0.2022062078915421 0.02719044437186285
P 0.8032319508757085 4.238580266835742 0.03783557136232822 -0.5370414868064365 0.7194286030895223 1.7167569482491596
P 2.5853499719372084 7.858620463420768 11.271230876040287 -1.7406880051434603 0.9200453550067574 0.27898783292797114
Ni 5.774213639123401 1.665450649750915 7.066024882733329 0.6158681672973522 0.6564239772325277 0.4302769422546719
Ni 4.103955280582394 2.6851053592662213 8.486769553160121 -0.15291636051747856 0.40119647994894775 -0.11731378082252053
Ni 2.2891548938921282 3.880332840927672 7.420408775360843 1.195371422812425 0.32420479578424166 2.022890231243671
Ni 8.201878074850224 5.142210156234272 10.052499548078986 0.19308856186099002 0.19322714432138333 -1.5532394151770668
Ni 8.985251263581004 7.173147215470733 11.164973199674636 -0.7117823993981741 1.5812302439630381 -0.03895966909264903
Ni 1.3208768594891898 3.5749153709259334 2.297385581659196 -0.4629556634346156 -0.9096413860646141 -0.6672609199470314
Ni 3.90795431614375 2.583083219503857 6.141613077981126 0.4461018251020704 1.4057858775463725 -0.6130774919260925
Ni 6.765853847799105 6.822449537586648 2.206004382150491 -0.06716312811005852 0.48914517734578983 -1.371132034917929
Ni 4.801118755799591 6.6169154167448365 3.968597255840519 0.2276902110952595 1.4697654657221269 -0.38959669092649035
Ni 7.101662252643153 7.478747488088064 -0.449241997884796 -0.05296652489470232 0.4902489519329298 -0.003535781067400362
Ni 5.714281801601288 1.748735521415013 9.742809980950843 0.2654957119788073 -1.0879409625418877 1.0245321592679388
Ni 7.544656971140064 5.889927694793668 6.9608914424535735 -0.5464918335860589 -0.8623415725373859 0.11960206263606499
Ni 1.6634215407178345 2.2207958557911853 0.37792795550279495 0.36584843946695705 -1.4474750297550425 0.41115513382355645
Ni 9.130250298269246 7.227750356748315 2.4645649717103946 -0.27122412982215227 0.919320818135907 0.29056756734577055
Ni 4.9401949857426235 4.51617517874425 4.838443393851337 0.6633867817036059 -0.12528008685744876 0.5053930066632198
Ni 7.492768448704036 8.628118933628052 7.3671391791640115 -0.3415044634049538 -0.04689306500711279 0.968581612044248
Ni 1.742894977846822 7.1917839421304235 4.307583684156649 0.04448831222036209 0.7951349927839017 -0.0875252367061783
Ni 3.222727851724766 1.7114437878340736 10.429477843993777 -0.21317350553632322 0.2602709732447582 0.40794176909258134
Ni 3.1547983997704665 5.923325732662481 5.730227673759451 -0.3780159280674264 -0.5807363565912257 1.4249444527526944
Ni 0.1258458906395014 0.09427587892661782 4.362297421016664 1.7298639179447626 0.5336373462208939 -0.47861882389316923
Ni 3.801965359623021 8.30590190325333 5.602726505435757 -1.4496859213634323 0.2069820320136306 0.38263182957288294
Ni 8.614554979551063 7.092512981732731 8.699418351800805 0.2888564981919348 0.14901779679402077 0.15192340047658995
Ni 5.328083855769073 6.764848433413343 6.226533119041703 1.6838879654352805 -0.21113462072942346 1.198080594213472
Ni 2.8924400858716215 5.053751970548897 3.584930212221187 0.2062307556699029 0.571695586545196 -0.8662583910932888
Ni 7.826511183991886 0.4194789900270477 12.023140078575224 -0.7689971580462691 0.7665852061706668 -1.1264568592288988
P 1.609220565194557 7.552115317856251 6.636995370054633 -0.5676617827954547 0.5718359687778023 -0.3846858838884343
Ni 8.240458566871093 4.701006903370171 1.625460749563825 -0.39560921566915735 -0.4746636959001631 0.04154517043163813
P 4.287214902714217 6.4302465258322075 1.923537780536433 -0.7410919469955688 0.03836214471796619 -1.246295206245486
Ni 8.140630058495843 4.298676626711888 12.143724909937966 -0.07456584833203288 0.7273979944482439 0.9324491279877489
P 5.749891751118773 3.8447320315409663 6.7111200026513735 -1.1693487734964185 0.8274126218706847 -0.2758289755840153
P 6.745389094983486 6.265184904082653 11.027050454235992 -0.6487595187087343 1.6139632154196848 1.2278346855474531
P 6.295786061932893 2.1753694058163644 12.046095517028295 -0.04070544813916215 -0.5193967771414797 -0.30169941559287394
Ni 5.868128482884223 2.27378119392077 4.652963633953139 1.0158480012303794 0.9216844332720773 -0.7370473446125501
Ni 2.992012670585042 4.128140066625327 10.008113244986887 1.2584629519562713 0.31080677721078087 -1.1268767203751366
Ni 0.7765829855745842 5.483575760592343 6.550188806001138 0.031944671227396595 0.9559322987113537 -1.4993755752790758
Ni 5.681880037987456 4.767291131784135 2.4238438610609334 -0.30146647364646145 -0.4623036316729135 -0.022227701049948815
Ni 3.0230525547127063 0.752890852580674 7.416528789844885 -0.6911125297536485 -0.16556233141626325 0.7419103291318062
Ni 4.9811062111123015 0.1776219894669397 11.767857139912902 1.270032659071742 2.064798698551999 0.0071291548456135275
Ni 2.9067352504109816 9.23738177113743 12.90379442123297 -0.8768065989227801 -0.34507881101977345 -0.12022658359394132
Ni 1.3487176978439792 8.76702150108627 8.947798663698343 0.3931859509396454 -1.9878723204075894 0.9191264427369139
Ni 3.8577567179019563 6.500433590089079 10.460312989191976 0.6391158249713831 -2.1540969679982 -2.085580411184041
Ni 0.754755439259721 0.9489832183271144 2.20393048647659 -0.17989777420232891 0.17156817129071095 0.3153684284395343
Ni 1.71613267492403 5.770548446680764 1.6270794667248996 0.06511138778735237 -0.3523917997414189 0.5178849684826435
Ni 7.902520511555388 1.9503759465446961 7.999600582605201 0.4274548994248445 -0.0056098899876096935 0.16508899132427052
Ni 0.5002960263806425 5.2148102150169695 3.812588933628199 -0.8417529497527567 -0.4795549625541935 0.6928688503231228
Ni 3.2573415269872705 7.2154751611112555 7.866026711391512 1.0494651750641926 1.0349592681385338 0.6419478951035396
Ni 9.121018766181807 6.391857976557711 13.529072595894437 0.44856622748216296 0.05903072881091123 -0.6462647773113387
Ni 7.635052864550723 3.7214408074543748 5.704676438164962 0.37918038068917276 0.6535194019912228 0.5317655831194776
Ni 8.70423794276091 7.394374940861189 5.658979440319063 0.6718511104208752 -0.43750302768946586 0.043366025690460795
Ni 3.457254467399601 2.830241495916157 3.6328354656634465 -1.631014514475017 -0.00939635361323543 0.6639254278158953
Ni 1.5803011914077696 5.69787526685183 11.381033095122282 -0.6820825583408963 -0.049269535659089335 -0.7738560288004673
Ni 3.417275535369447 3.8094785471238866 1.1817393906699327 0.6573901978005388 0.39182095227131875 0.355433157670904
Ni 6.060893841026873 6.530111594730577 8.722119694618202 0.19121114233261907 0.5096954906933158 0.8696715305398959
Ni 2.098327243474762 8.110211703261195 1.4453992591917988 0.6312749887707256 0.10340745515407351 1.0388673449436883
Ni 2.746216273658908 6.493468810434992 13.083721551682535 0.1103059820461197 0.5206473617191291 1.29018368009832
Ni 4.421894729752243 0.701464820762096 4.085236292745687 0.02144814257144693 -0.30676705992376846 -0.0288932859955825
Ni 7.329452591933392 2.022692661273224 2.257373745158235 0.18306023109071054 -0.20698691710963707 0.2372508582005011
P 7.687809699410817 8.906234832990998 1.7934554392805677 0.402782593489145 -0.29801733875559644 -0.01185355690447636
Ni 4.284399742434087 5.133444770816595 8.058073655254882 0.30675240463574915 -0.8362893555350243 -0.18497518872523627
P 7.5485689471137505 3.7695818762707494 3.5529982513294294 1.0861401618877229 0.14652819760294764 -0.05703426720617274
Ni 9.524381877618191 2.666907358883954 4.282165894471543 -1.282245913308482 0.2040214067234099 -1.3504043154522742
P 2.08535739789845 3.867344715089801 5.360647399697703 -0.0896070589358715 0.3014978411050291 -1.8315019399032393
P 6.063306835552698 9.028584623607287 5.827629477412707 -1.3846562946566088 -0.5287941591959796 -0.9075914455141209
P 5.136497574496996 2.5943073001012573 2.526502153925561 0.7780024468686729 -0.9009112052804679 -1.467536576391608
Ni 6.5156610479679635 3.8743643355285657 8.615782499114768 0.9494921995129648 -0.1209770886067207 -0.7257455464464856
