# total energy = -340856.5664918616 ev
CRYSTAL
PRIMVEC
9.37331864846234 0.00000000000000 0.00000000000000

0.00000000000000 9.37331864846234 0.00000000000000

0.00000000000000 0.00000000000000 13.71879931159098

PRIMCOORD
 96 1
Ni 4.316094493666519 8.969291015213974 6.938817445671002 0.43527593813116 -0.7079303726419356 -3.719379687493046
Ni 7.03266967219095 6.917958999929609 8.92686362618605 0.04458961368491676 -0.8028102499409723 0.08518604705004039
Ni 4.1339334212096706 1.867211919253189 5.741810924491605 0.5226674774729515 -1.1501338911308645 0.08820632193360294
Ni 9.404719154552783 0.9078743255775804 1.7291035692586592 -0.42222733247731803 -2.100220529694718 0.9175441858514586
Ni 1.288756312351394 5.274197621290746 2.6562616230633402 1.035853497818029 -0.5771980044206639 1.5521441252303592
Ni 3.9270830277251734 2.4004225175747016 3.3127332348160583 -1.3824544019092837 -2.146440737004523 -1.8148365634324164
Ni 8.171612234358244 3.710690595969549 7.237874110940272 -0.8300248626825512 -1.2953875928967626 -0.884657719536083
Ni 1.3330921090335435 9.164068574422233 0.08888811702251408 0.8141598706258365 0.30471351982884937 -1.5245978401809743
Ni 7.687545945128594 5.745497450672386 6.432662931307846 -0.20084969386364762 1.891777596864845 -1.3406765466415491
Ni 0.469346429798435 8.792725813923985 11.343937844142536 0.023422235578682244 0.5957004341002257 1.2455164190979324
Ni 1.6832043030444628 7.116935805842646 1.2810542565091696 0.3048392467734363 0.2140512801555862 -0.4504534172025468
Ni 5.338714172784029 8.74598107437771 12.128008441145592 2.3962113249385895 2.024163184418824 -0.01295296061624221
Ni 4.590104714471863 4.219783645694196 12.013593965750035 0.03588360127048659 0.7417797170912128 -0.2984680531397699
Ni 0.3705544644092488 4.300225465382613 5.128937429252139 -1.1473419302080239 -0.03340557204363924 -0.135014026315761
Ni 2.64306961455373 2.70002189798729 7.656654299224712 -0.9245581552754464 0.053043400879224774 -0.6372492040762896
Ni 6.405688395220765 9.205479895720698 8.595020030004624 -1.656448124056773 -1.7450609374001753 0.1516727179183646
Ni 4.847824107659115 6.755144456934063 12.887782459167719 0.19948649496753385 -2.002090006668868 1.270471032160741
Ni 3.4457818674640714 1.6257927270025672 0.8190565084440973 -0.40179117611015314 0.8654896312480643 -0.33938124641436385
Ni 4.130418426758126 8.18178228497138 1.2431438696844437 -1.9376033969497084 2.5690771319948014 -2.67269413205652
Ni 4.328917193425754 1.9316534841981738 12.22091208782955 2.1713444422247377 1.1053442456199996 1.4433106139647078
Ni 7.909234301857879 7.520813354984392 11.222362153384363 -3.6007235337100183 1.4120364864417745 2.1044898464940336
Ni 6.394168586738235 1.4289905309902184 13.015257716613363 -0.09532724924910034 1.1223348666407251 -0.22029648973434962
Ni 7.574972389493792 8.665942307386405 2.0681224407805034 -0.07276941855324241 0.8951208238509357 1.6273162396878231
Ni 9.190482586060773 5.014481711255016 0.8803364530463993 -0.17841527611953145 1.1423424201109036 -0.17910253199454315
P 4.205911134258767 5.367105954633973 3.235880458795633 -0.12970084163296372 -1.2562335484051204 1.0788832232149934
P 3.0066231473473555 3.8394612460370685 13.61778775484675 0.27851783527008805 -1.8143331414334365 0.0798731194775592
P 2.975513103121551 5.7007023613819 9.897661039105548 2.0928070108394663 -0.6505315230074925 4.531798664168376
P 6.958864162027051 0.38507654681932363 10.94127695174695 -0.5878894226962391 -1.2711724291031397 0.21215354891224109
P 2.2051669191210324 4.6337375122637035 6.158629277206157 1.0445875352569172 1.1112742379511893 1.1195848146994138
P 3.8700557577433137 7.947533681401909 8.621510902855173 0.518789482574784 1.9682257498212554 2.277442299726781
P 8.074879587051736 7.870691216031874 4.200188723291653 -0.32925855615806526 0.6515118846428908 1.6416750795126567
P 6.494500588363126 4.906182388873292 8.014563219595084 -1.1071589302312352 -0.3365008395427753 0.031116004678514154
Ni 0.885204954694752 0.47832794362102177 3.9623595120408748 -0.2634709682392946 0.08003201365292668 1.6786686260178703
Ni 4.238642762591551 0.9966462134502302 8.50477746845345 -0.4204869527474436 1.8815345789805982 2.304246564403819
Ni 2.5872889959373513 6.407919245032678 8.165401473495328 -2.3188339752996905 0.4896863945612405 -4.141798052935247
Ni 5.310294270978474 6.847171698334769 2.2032388274978785 3.903755809181703 -1.3573390948988946 0.8977662318935828
Ni 5.654248194710287 2.713800676237345 7.174492668321873 -0.5669938101941526 1.6003096291919925 0.3118683857060758
Ni 8.837802102770594 3.387807892309929 2.8416986703490283 0.09031282675364447 -0.04824469393900078 0.2503236322240592
Ni 3.0420542914189252 6.798908481185427 5.6193710137642805 -1.7698931659525068 -1.02795764000972 0.5656984884214967
Ni 9.35220045078744 1.8532737945879976 6.652122312888923 1.7946323205703993 -0.5386155161617756 -0.004198354352063737
Ni 5.9391877049303 0.5649702135219623 4.94252649417041 -2.2553482960412192 0.4290808650640417 -1.2794498386205837
Ni 2.5203447549428666 5.854509145262956 12.982991004880036 -1.887922227674497 0.7035648965843884 -2.5334737809688948
Ni 9.185102301220276 6.5122724003101355 9.964018510359587 2.756471985905124 -1.6471047351686599 -2.865758011327161
Ni 6.6182658863316455 5.126961533704444 13.146299521762508 0.504157334483906 0.8381297511778726 -0.7290607268626476
Ni 8.05180247681253 4.048908048756441 9.53710321891649 -0.10868413017198056 0.9784381931233538 0.6561681524679795
Ni 5.722560940211239 0.7809802138812585 1.4854169712538274 -0.3940547266978439 0.09183723381797086 -1.0665370429448149
Ni 1.831377722484509 8.466787408421155 7.116681788910282 3.9657127105004735 1.308244651365089 -1.6826360953060504
Ni 8.566753850623083 1.5910927017769187 10.274611856084755 2.3173383645907704 0.007072847686381369 2.4289106149438235
Ni 4.056228610534191 4.591988751497891 8.279007031501104 0.7406610301057373 -1.346938468390861 1.355848112175665
Ni 0.5473708706360418 6.794671741206498 5.292575886947128 -0.12213511347056386 -0.21151720087982281 -0.7840355404366305
Ni 2.371102777189551 9.363504672943606 2.23287163672218 0.6176250020874589 -1.1587301174403075 0.6078365552421273
Ni 3.5620485106026303 0.4479265222766489 10.928107439201831 -0.1332188820885512 -3.1806924375530707 -1.4805540716971985
Ni 5.11983781161598 6.660848872447291 7.330461876789518 0.6124881950815259 1.0303649638996317 0.7615461010848625
Ni 6.579938386832003 8.230767247648107 6.0881700417601285 1.5217613991734436 -1.0148432141149488 0.717086842330223
Ni 7.181433610698856 1.8519427833556792 8.621936451516774 2.8698098127990317 0.6230384597935463 -3.940722873324355
Ni 5.614102271414378 3.5061929054379517 3.8092444790678837 1.90261248269682 2.0575415027689536 1.0697856317890995
P 0.5490299480171709 6.34724575413975 11.964247192977762 -0.2230411423590223 -0.2542589627227234 0.7943608336220385
P 3.843116840266675 2.8427962859497637 10.168058782946558 -1.131973932392386 -0.3526157428267669 -0.6843690403822278
P 0.5371408307842663 2.6283160111757797 8.804848326788472 -2.522574617557888 -0.9113660820652046 -2.492446687824256
P 0.34388831050205065 7.337836803814785 7.770739771139605 -2.681088783878118 -2.102846140243024 1.3759276565343592
P 0.17996959058279202 1.4767757088941502 12.47826310959828 -1.279642414247364 -0.019634229291159735 -0.07443600762238793
P 7.520016622908709 1.6628923217738036 2.0720329892743283 -0.4324829487670552 1.0070841389948204 0.4083037804176904
P 2.0538440646524023 0.9087179242459511 6.019136488063646 -0.6577794628191574 1.392404828253776 0.06571071193424813
P 6.833636626366688 4.961391235058886 1.5658222349999473 0.5837358055391817 0.5640948913798026 1.1170255386126697
Ni 2.3990727597053083 2.9230037726747433 4.923471474915623 -2.121070119450218 0.1553761349118808 -0.6526912496629727
Ni 5.03496241225935 6.871851646043881 4.769902773325419 0.8679843726454599 0.5174468525039605 -0.6849886762440978
Ni 8.728087409289714 9.168024114845037 8.588379971152694 -0.14907564661514972 -0.26140354418730466 0.655105258421104
Ni 8.927795334048673 6.894488210311828 2.501746216300854 0.7497668490617474 -0.8458335475800336 0.15729057832577428
Ni 1.5843157924743407 4.161940896999579 9.563580969121087 0.7987255383486372 0.8980976470910726 1.482460287580976
Ni 3.6839297715451225 5.563242645030162 1.0570525647648417 0.48789279299592747 -0.8869729979328208 2.0015932695381076
Ni 7.687752158136417 3.3080034582820597 0.40759219527813784 0.008890617621410494 -2.173817072134946 0.6618538899988472
Ni 2.1429374573508864 2.033550830018818 12.20273441118987 -0.6924415329777172 1.2726934937333565 1.4437430735164363
Ni 7.284343274921546 3.253272651341876 11.678869011450196 -0.7062817812949191 0.4908025104435547 0.3082302747328563
Ni -0.01228842060259999 3.965119954350155 12.440453954613758 1.1998235450465078 0.5383098119958987 -0.7215675038093959
Ni 8.089961256578496 9.363589032810443 13.38023318182912 0.91105292170016 1.2046937286546158 -0.4271134569250257
Ni 1.4853335487188442 8.675662438709743 9.340828740737802 1.6962022640262593 -1.0201553703564818 0.6035993772323281
Ni 6.932393910477286 5.906512316508741 3.852842595581136 0.26119117106618245 1.0147709661161168 -1.6322794972303698
Ni 3.139527430889892 8.97526181912233 4.676944761393944 0.6623244018773625 0.02947795485445891 -0.34062488901347787
Ni 4.790234438565007 7.00809283098575 10.468377096890967 -0.2397741388429871 -0.4171072376419333 -0.5252167262573664
Ni 9.11327456126778 8.790063791459348 6.322692346230893 -1.9739937626532842 0.703254307322505 -2.327708909191817
Ni 5.893745856660731 2.1226910893099893 10.158592668555583 -2.6303254372823215 0.24313457067478775 2.3668202733709816
Ni 4.634215551509113 4.912734338530972 6.1087613479232035 -0.5676059898568547 -2.109143028995329 -2.296009778316323
Ni 0.7447364030924916 2.6501464700495063 0.6917377854180288 1.6774936318731626 1.8481323493710688 -1.525814743307211
Ni 7.978859311954074 1.3529166777402553 4.293970649922571 1.1133306062595858 0.3757561854989722 -0.7422944519441023
Ni 1.8472092574942658 1.4806562627686555 10.007356048617499 -0.5881545034321677 1.0172559373214998 -0.9479253692464773
Ni 8.859595068370169 7.3103542338629754 13.625182365840944 0.505259309298833 -1.612707745746029 0.4862100059768658
Ni 5.354723800845998 3.336273386991016 1.2874337371057596 -0.5065204353994438 0.1589553676227069 -0.6191190701344822
Ni 0.5317071180281052 5.167426149830626 7.687672484928849 0.12144142983764891 0.431430853353457 -0.5854646153048304
P 7.562627728979967 4.1743043041504775 4.6681366539643 1.236204397668387 -1.8881091468743225 1.3011782314366105
P 6.5443385230267594 7.9627840706623445 0.4300019252374789 -1.5920260490269615 -0.7900573211506781 -1.5544899997547164
P 3.3173486568638997 8.236072545940303 12.55658374730167 -1.993933696110321 0.5245904055272772 0.5055205333800198
P 1.8016736760393224 2.037262664159649 2.5633992189809462 -0.042722992789823194 1.0780748683810852 0.5515923880374177
P 6.32744930538865 5.392629501011455 10.845067335614832 0.9915487623633825 0.03504362186769449 0.706949239675589
P 4.567721229804427 0.24383188444216214 3.1066083361863592 -0.8217790777339911 -0.2660325583188837 0.6175944059598395
P 2.007174311654427 7.439012404108046 3.4588792054564537 -0.8881179101705415 -0.43121128114348317 0.3854178769584523
P 7.232836889558245 1.4862427606169772 6.37564690930823 0.2993476275312458 -0.5230408016519702 0.5119189807071958
