# total energy = -340857.55869864667 ev
CRYSTAL
PRIMVEC
9.30392528688593 0.00000000000000 0.00000000000000
0.00000000000000 9.30392528688593 0.00000000000000
0.00000000000000 0.00000000000000 13.61723511253684
PRIMCOORD
 96 1
Ni 8.286643512635022 3.211249856439182 0.7167679011014778 -1.5387823592114724 -0.7295883172313435 -0.4643425164798132
Ni 1.2317373815562127 0.6874316938804481 7.049193520874975 0.932067062057982 0.17763391786881666 -0.37418832679122005
Ni 1.1805285760807926 8.95578182836762 4.810737915456086 0.004782766100624021 0.2820505310136949 0.14539511243976894
Ni 7.466986291564244 5.079161745988272 10.112090425812218 -0.2006406631766351 0.3696726983090537 3.4232317978460207
Ni 7.295821975733702 6.688815273911871 13.155543057027971 -0.4977239201537364 0.4714508453898203 -0.8738894252759852
Ni 2.265570965643737 4.7638144980260835 10.431496976432278 4.727523635210948 -3.7437576021167778 -0.32070475305078316
Ni 3.067066924307534 8.085948537542311 12.657737458175898 -0.3950417732014616 -1.1501063803270386 -0.7154482782855355
Ni 9.243989525898886 1.0656250972251533 9.494004609608094 0.04604768628768199 -0.29866191431813083 0.5838005973388463
Ni 4.1762250885420436 7.1873661171895575 8.566480468471841 -0.8057181676163867 0.937349907723476 0.332063372596712
Ni -0.043755430826735706 2.0060751819382605 3.4072910080401053 -0.19046912196027196 -0.9300790850936757 2.695837145831886
Ni 4.3057636420729795 0.6378259547537589 12.195010449310015 0.08040045273593895 0.42244279092223375 -0.5529234481440156
Ni 9.227930950635336 5.271213374371925 7.1408781234689025 -0.07204359613081142 -2.7233762317924195 0.38426756540409307
Ni 3.004218908139936 5.191711331714318 2.657443930523782 0.8929191882139267 -2.250149782559415 -1.3698737370307956
Ni 2.0329449185321944 6.128076993170938 5.99836445623477 0.344208235489362 0.9999195029255811 -0.31569393009975305
Ni 5.005409529236156 4.188803995700976 1.163874549590785 -0.8887522013204306 -0.5872481895678144 0.03216552898895105
Ni 9.474094209223393 3.6931001535997936 9.903052620801299 -0.2781334553474758 -0.2900201794827328 -0.13618156426130096
Ni 2.80231442274348 0.2604326889946071 2.9066393384040703 0.9670350934927345 0.45104425670901027 2.3603223243514644
Ni 7.682027919644438 7.428375001098584 3.477950599984805 -1.0182995480946657 -0.6428066435594091 -1.7837796941266117
Ni 5.974050507951901 8.357920885227172 11.790074773149538 -0.9538265652222605 -0.9729013224655245 -1.089211601724195
Ni 8.952069562127669 3.7678851060728 5.2728387701416475 -0.21384713456458007 -3.036143475163681 2.7152595162225563
Ni 8.610354989543868 7.438423240545069 10.588407678529475 -1.039589053601061 -0.5465265434787362 -0.7827510172972519
Ni 3.3954675796247407 8.193967111592025 6.322359702868726 -0.5168403292682131 1.551412389270657 0.43512321460337966
Ni 8.071890306242643 9.336675230867296 12.583537722611396 -1.8934498423609456 -2.570959693729495 0.33488464409559104
Ni 0.8282894030693417 8.816157819688545 11.461232181375195 2.3363892105746347 1.2766645625659625 -0.7205835426295719
P 4.2215631170816 7.804076813217578 3.310786041689488 0.012116837868192036 -0.27429376988641146 1.091740795903952
P 0.10378528798661182 3.8184054210676277 2.446935174905003 -0.030301736307334914 2.813346587604981 0.9362335347308457
P 7.207397468604634 0.2520889286838591 10.566021503592264 2.029249083582163 0.50965203904989 -1.6892482013059296
P 6.154118680403078 7.923688078332403 1.7116729308667444 1.741179342957582 -1.4941150982110851 2.14063647161792
P 1.5661297648396566 1.9620397029565808 10.848470071292626 0.4436502782377843 0.3874639608542037 -0.3337219912460575
P 8.51530608752045 0.07261155549643329 3.909603428362434 -0.37744797137909836 -0.07638644648053941 -0.7884730073826938
P 5.078808196822562 1.008405955932669 6.680465931245874 -1.596859465859863 0.3964054863182076 -2.3004279619886767
P 8.561490773272629 6.096211048630001 8.82704620359986 -0.5206201080256194 2.85140765614276 0.024119775866339108
Ni 2.857244798384265 0.45749727239100585 8.735606294244304 1.3685753299343462 -2.661266349835552 0.7415712006248326
Ni 0.9957805291466688 2.218669877634727 1.4157299497467672 2.846341297363446 -0.8840889915168064 -2.0241084199214883
Ni 5.21906487242975 2.5357662635746374 8.097951531718152 -3.132832123536682 1.9526857452041273 0.7557698607227178
Ni 1.9613326046251616 5.349719897010296 8.251567713826459 0.19596022698183024 0.44519679678929786 -0.20755050292259095
Ni 7.129653867850163 6.750556122955273 7.140428743871435 1.2990041066034275 -1.0688762326009529 0.2735774605456772
Ni 4.64260295774015 3.1473504966998678 5.820305931672889 0.9441545893501353 -0.5759528191596532 -0.20528433259623355
Ni 0.8564896009973937 5.166265095708637 0.7724295652797568 0.7499622529020051 -1.0358833226146997 -1.803183038353888
Ni 3.2511264807610663 1.3722173513733218 4.988878314561605 -0.10964340876145634 -1.7852421376047511 1.5540328576126397
Ni 0.18920183602952417 1.5398554794721806 12.445894519652835 2.644136889244117 2.1617372581522774 0.8936267558039125
Ni 6.898023340757855 3.59620907434452 6.638469872714815 0.914872038335934 -0.009724426376615511 0.568114554062157
Ni 4.231239199511549 3.0348195188246483 12.477323179699344 -0.6656940896805438 1.5863973899862742 0.9583997864152397
Ni 8.486008026393616 7.7939541423677845 1.1707064220218535 -0.5380735276153765 -1.033874262604471 0.02465199422072529
Ni 0.9196232476751841 8.848907637143755 2.2519639747266216 -1.4624100537983202 0.24383545339655424 0.7660146783791776
Ni 8.27892125454189 0.768418643034035 1.4903251021413402 -0.3277629454491452 0.4274924375309992 -0.45021790415297297
Ni 6.1287933954277705 8.862165730857868 7.5416195900530125 1.0542836794987585 -1.2290348765031416 -0.008408278668353262
Ni 6.360489049997971 4.263812242383905 12.531029158755722 0.15814829834037925 0.6323718213793302 0.06948329160280291
Ni 3.836976056192798 2.262212248569495 10.433021889807536 -0.8678043954241699 0.48930715684495085 -1.7928528600724734
Ni 4.422565121712955 6.642193303665263 1.5105602095229702 0.8773655567500439 -0.1510710797786237 -0.9642248777374491
Ni 6.066717605069485 9.27050571332711 0.27162158969677647 0.5488292234699839 0.9762396428101381 -0.3263825201618508
Ni 5.425137516411414 5.33047937925536 4.298430288062129 0.5447841068663327 -1.1918806360503473 -1.248534637098966
Ni 6.747076454850657 2.2659245148094467 2.5282710212615926 -0.9246805397859236 1.1736975373834175 -0.5764734675498135
Ni 8.969542334054056 8.508067633548817 7.54686235202347 -1.0642454186971606 -1.0545842414583126 1.3053665584863454
Ni 6.5547177969283625 1.4134151331039104 4.698572581849613 0.09457854400853388 -2.771532479782672 1.6602399869990376
Ni 8.145903032906338 5.059586286918453 3.7957903695652466 -1.80306271072594 1.1168370767509475 -1.5761721127138404
P 1.6882251780398634 7.7154383158040005 7.5173540221822925 0.30372827309744466 0.36286930223397507 0.16649847007728744
P 0.8469754068696385 5.770238717845696 10.996367130449308 -4.523218892919164 3.3097512747266613 1.8827406834735574
P 2.8781600227136153 3.479184300494623 0.728608076582586 0.25106822369956755 0.119810064881813 -0.053540395120301336
P 3.694402703157671 8.259894727071462 10.370886554326605 3.42264610054588 3.2972104619471736 3.133960323603854
P 6.481775021687212 3.398268061174178 4.521031355540719 0.8361746843340309 2.4908346061421294 -1.15316059377233
P 3.5167256395377406 4.691336919055603 4.933728366281063 0.32170748328368465 1.003186089491995 -1.345007312806419
P 3.4254913469338213 3.8289188567847834 8.592121156518663 1.009418700665268 0.2621810457832775 -0.13309238381301594
P 0.8641951120247816 9.151294517005061 0.08043150480640615 0.2567225937718675 -0.8424486902682008 -0.037127758090232825
Ni 2.328111952272693 7.03770317298941 3.6299599941742136 -0.3937225401694058 1.8782883041291585 1.981453561365439
Ni 2.2138597481959925 7.196028071749444 1.247280519351859 -0.4252231818808483 0.6177553570177361 -1.0163977030862623
Ni 3.2087191887267337 5.62030595980856 13.30201010284861 0.35824028810239594 -1.0242524232439907 -0.5085351518366275
Ni 5.845256268454037 5.007102843661396 8.409882378268536 0.17324478766218548 -1.959419721493851 1.4538444236164962
Ni 4.051143115284131 2.6023265459821876 3.350956670054436 0.8311880297527169 1.1988696657736708 -1.587450513841137
Ni 1.0453704516001552 3.7090005621313145 12.72395814730586 0.790266866058323 -0.4356281792642562 -1.8098193127234832
Ni 4.461697432001766 5.186966329753478 10.956631925793708 1.5394801566094456 -0.049404261464740716 0.2380597272550416
Ni 6.6510041210317645 5.722732874684813 1.6375950767251575 1.2351949825672661 0.16276754227994547 1.039572598540829
Ni 2.189706757822775 7.343867446568562 9.626527862411654 -4.8880849138681945 -1.701068076758993 0.28482552265567074
Ni 1.8778670897414418 2.3743245498011105 8.608693308465034 -1.5905247818910866 2.1107301709767907 -0.11283903288061857
Ni 0.6104779963935754 6.092889547257413 2.5665492311974525 -1.980631065464144 1.3233516822098563 3.176556046787194
Ni 5.059549071216799 0.3673924763322751 2.9580723684819534 2.0453336478488513 0.7880027526144945 -0.7430806952908235
Ni 2.1944145440819613 3.7552131596597325 6.314775142871713 0.43474140578392867 -1.3631076219515557 3.6360993421061507
Ni 5.2809266725035275 0.3941598697466617 9.579766333283846 -0.9684563993202934 -0.6399989989072848 0.9167733691237049
Ni 2.969943246916926 0.4290440076917089 0.7547688540600181 -1.4097132376252368 -0.7864539200701359 -1.3520549636818198
Ni 6.260909136298221 7.266719297040549 9.640798223210746 0.6205401188517249 0.06511215911830076 -0.25398076936067226
Ni 5.2023457184618485 7.347309898971524 5.282111992601196 1.7465737745002758 1.0079200046325545 -0.37736929562236304
Ni 8.300711047860101 1.3440264573706833 6.592934600956494 -0.27460821580303674 0.36648941548506564 -0.3994920956633313
Ni 7.071262431955588 1.7204911913735765 8.63752152135849 2.7309404172929224 -0.6793972981992492 1.2963525279131933
Ni 7.725644721982514 2.4389589196480848 11.398292986738545 -1.4755638175714587 0.2245076996022198 -0.6991726810539636
Ni 4.739624291951213 1.7227892609506892 0.7317890886814316 -2.919067264273263 1.245109927688133 3.8071640913978815
Ni 0.3066080708213713 6.994542262996592 12.768759339349062 1.1669332220763902 -0.7573955692515989 0.6839828606874027
Ni 1.541781392032757 4.462385922482358 4.350761146942405 -1.5377893991705838 0.38072278547562816 -3.3920183483576936
Ni 7.670788777745035 8.299436410078464 5.543358775069477 0.3247902359740665 0.7310376480833604 0.7310857277124764
P 9.240360994987656 6.332121381412478 5.469662381869838 -1.3496386409308434 1.6507677858425442 -3.7352408228950194
P 6.144191391986967 3.520530945031826 9.969396121746717 -1.0114097629533676 -2.1398921372527275 1.0816088496762726
P 9.114116031053067 3.0735052406936156 7.693969507912552 -0.26670644445745684 -0.743861539320906 0.4521449459723568
P 6.302562810374068 2.1574965680415423 13.338300063923626 3.5110498832022694 1.419933115581032 -1.8737415652987406
P 8.37612866726122 4.895827895716987 13.146487546423096 0.6897385322242573 0.8397821991796312 -1.147607782274901
P 5.2719669923304115 6.5409386833911 12.670605717415189 -2.5023858013148383 -1.8211398799426248 -0.2914126889548852
P 1.3002235765243393 2.0632198918274374 5.401071982937083 -1.3266455224697797 -0.5872744148200596 -1.1255330618630486
P 5.097062498483678 6.222065247697227 7.109830924364346 -0.6303013120035467 1.3401672111052982 -4.226144377692812
