# total energy = -381166.948017942 ev
CRYSTAL
PRIMVEC
9.28109312106293 0.00000000000000 0.00000000000000

0.00000000000000 9.28109312106293 0.00000000000000

0.00000000000000 0.00000000000000 13.58381792994172

PRIMCOORD
 96 1
Ni 6.049100863107891 3.115532986276111 12.110856496527287 0.17490726296627299 0.03359866189105182 0.31429730686254254
Ni 5.191973361965242 5.531197311276182 12.989240484977921 2.3593676737476788 0.34016800398171737 0.7413860811972199
Ni 0.33785962863929164 5.901995538988101 1.3363270389273973 0.019041332902167207 -1.3919322594927317 1.2490352308844683
Ni 1.3723395360030828 8.949349616053865 2.214692465192023 0.518399703335533 2.698151652897676 -1.1958079961292116
Ni 3.580534307982723 6.165513612662123 9.556867689498892 1.8995258733516962 -0.8412448997680866 0.1664190229896037
Ni 4.615979449018972 1.9739214223624932 2.3654044220533255 0.4220599536615183 1.6385162221687006 0.4881061945583143
Ni 0.500148820914287 9.132177867147606 4.399730910125677 -0.12068012619159216 0.1850276392297265 1.0086126598242047
Ni 6.10925162686943 3.516411236415301 1.1601310568946042 -2.8323380411058188 1.0374982325103035 -0.1602910557149949
Ni 1.5382483545497954 2.547511532220623 12.642853388086186 0.21580245851873803 0.4515409938397707 -1.8091839931323292
Ni 4.307884285644802 2.0375711581866907 4.8463259681859565 1.7640328505169875 1.7301721932138008 -1.9400729415361235
Ni 6.925393821304635 1.0703327696398008 10.799325753779755 -0.02926840994681411 -0.46580778817143004 0.19494489834343848
Ni 9.023217835275911 4.524031660624349 11.49324059389347 1.4103434150100678 -1.7385401055625218 -1.5486255705541394
Ni 4.627023949694212 2.3820667683241306 9.528586342895874 1.2363054420226256 -0.5592321639708627 0.5651660129567945
Ni 2.140646977093593 0.5688678897374896 10.99725527130096 -1.7838820240324311 4.159957240342777 2.1817057308544037
Ni 7.4310834547425495 6.531402142174712 1.215115964289891 -2.2545430265311044 -1.6363073874428398 0.5014252802647235
Ni 4.467639739529595 9.474603793545063 5.828815976866982 0.6987885582416675 -3.5227121500315457 1.0635589341530973
Ni 6.623535552429423 8.859833474026395 7.18181835559539 0.1551799597406747 0.3000816774837929 -0.23137357348411766
Ni 8.98660392337354 7.329854573343523 3.352268609867326 -1.9025296931750266 -1.5892811392919726 -0.9246136911037302
Ni 8.54032256625681 8.749694743343142 11.680738162877724 -0.18537808059060976 0.8897495322366934 -0.11024453268056497
Ni 1.548429713575626 7.42501361991767 0.278201690916288 -0.20590371134778734 0.3110808568077739 -0.12450747035748234
Ni 6.184614102065185 3.661326222586053 5.721816111837818 -1.00837123323736 2.2838536025697636 0.6138012574659945
Ni 6.4784720687706 7.649551102973199 12.743590371555978 -0.35650967856453436 0.870085735259179 0.6594743340230772
Ni 1.5549543219577213 5.769043881700024 10.645407179285431 0.9154759904685201 0.3561597514242834 0.7399290370357193
Ni 3.727723161939554 4.401020053943988 11.778895002492295 -1.3210181489806732 -1.0935511096398134 -0.9388432044395509
P 6.285323242255964 2.1922869785700927 7.55497954958623 -0.6004767724429465 0.23384594628401015 0.7032501935574469
Ni 5.847710426005346 6.601130993916793 8.717659194619843 1.2415258098813005 0.3410686614191158 0.13891310425985107
P 9.54198452875703 5.519206139114492 7.076095568963631 -1.918645624900283 -2.9623952376369367 1.865058949923078
Ni 5.0370812008147565 4.644862210448675 7.574893990845778 1.18914292540421 -0.5617870691822325 0.9455920931276102
P 1.2119900921660078 7.882358039895649 11.779166938517324 -0.46239182051134553 -0.32938633998518113 0.2494126903740156
P 2.512948741872225 1.7587671243344167 2.2349187511765187 -1.6061144087992276 -0.4742039826549253 -0.0027721634284984514
P 5.096415228391907 4.587115249775278 10.005419201964498 1.53339512675763 0.32808279068240914 0.32842577584412475
Ni 2.5773780895087928 8.12509574633281 10.147492317457303 0.830338537268228 -3.8692354068073294 -2.755548959870222
Ni 0.3639849773373864 4.799995680017275 3.603447470391994 0.4553796508595706 0.1810401153368882 -1.1830890059006463
Ni 1.5099038965143479 4.863766070050531 13.140360809931419 -0.5785540042279261 0.43146530613581824 -0.8794262959338144
Ni 8.768823076025217 6.5780210723358294 10.3382364127745 -0.7355087964808364 1.4187727767243434 -1.520224136593311
Ni 3.704835986590696 1.9555262960277657 7.015851994272051 0.3790911634094762 0.41422271700528657 2.577608309394264
Ni 0.2148554468333345 3.937410896188037 9.008095222334536 0.4798876633032638 2.599786131042884 -1.1290806700049911
Ni 7.477470357578557 4.831486428581215 8.005378927669014 0.3534798905992751 0.18069918705770172 -0.5027653392323858
Ni 3.256355010431921 3.9689202069379856 8.821236192548984 -2.718108555635577 -0.5464118722777428 -0.3817679389106909
Ni 4.331281921108902 0.14046748640304238 9.095710596514703 0.071324972797232 0.04198945705790833 0.33653966320051076
Ni 3.752420150424271 7.6980448139212045 1.2205630377741752 -0.5506220537043485 0.6087019885662163 -0.475998869771819
Ni 7.949497466689502 0.3452984246823209 3.031826808469398 -0.6554294745297422 0.3920104425743055 -0.5385101009321629
Ni 5.004476721090288 4.226442694531163 3.688033495815524 0.0033856286427812665 0.07798670108812375 -0.027183759503643507
Ni 7.545222336510701 3.1289998522255003 3.685928543922125 -2.859600733476514 -0.3416016511044504 -0.3917520467065963
Ni 0.438599396436986 9.174592462177728 6.955933257835623 -1.589790217717907 0.3358117838955507 -1.175572128698311
Ni 3.3612313613816784 2.9922058224336006 0.5632880966232424 0.23975768378275483 0.2968212615649662 -0.14337448246531434
Ni 4.074882445769258 7.7426219036213535 7.54646321864539 -0.19277797259910673 -0.5975398013018096 -0.5335774395172359
Ni 5.167861082339803 1.2839092818571285 0.330934077039406 -1.0728527007501976 -0.1421454951542197 -0.8752996753599507
Ni 4.198673664261989 5.993191558849367 5.907710836060212 -2.1033014826128875 -0.4642309306026134 0.9075467083191145
Ni 9.12974622078045 6.902924295140974 5.7140060720746115 -0.5273602549629304 1.7364778237168546 -2.340290345401253
Ni 8.54319042399517 4.104405602616264 5.619394609987725 0.5010185317446082 0.10628657647408148 0.8546722289175862
Ni 0.2073238398602612 2.1918971726639076 10.30457574466613 -1.2307148353087254 -1.3599870740447029 3.1623830977209213
Ni 5.783234672903756 8.673311347916902 1.7011695892583905 1.0477073118328213 0.07529835562268322 0.21458941204724333
Ni 2.0577760976572765 0.980436102799151 5.5307462501561675 1.7239192703255537 1.2597474750956497 0.12629901504026636
Ni 1.9383748361556288 7.220885260378824 3.363461608030636 2.178752818873667 -1.8645982082365757 1.1180444667954872
Ni 0.20678553646600584 2.276206621515907 3.771193945353578 2.6818745130042068 -0.5637560199831452 -2.675064946281541
P 4.469876482943656 8.8278044220682 12.695273001375053 0.36913199531423524 -0.12301108831761395 0.236822769524147
Ni 1.0141357514981393 3.3266871332192895 1.3623345177443362 0.9379415185608878 0.2544535952320327 0.9935369964380051
P 3.4722889202723675 3.9634814864374057 6.283398343566851 -0.061666880882177665 -0.2003375301139195 -0.4946961890710061
Ni 0.14154223697295226 1.1951170650840026 0.30644034449148533 0.9924663890816456 -0.19327136729575745 0.39049631992262424
P 7.053482185858403 8.496497245090017 9.39380723839523 -0.4031710871768154 -0.39260513873551095 0.6484805540157348
P 1.8564227849267478 3.6300210958822015 10.477036086764649 0.25434226646514907 -0.5655773894626002 1.0085779499315277
P 7.716514188999968 8.484496791835324 5.016748182260709 0.39105476352925556 0.3995489170431958 1.7424443257129347
Ni 8.469331485866128 2.015055226558008 8.158155927723797 -0.42342546655047725 -0.05796397810929372 -2.373265514775693
Ni 3.9468219244945018 1.7194802576467778 12.023757151118165 -0.03176726510926787 -0.0019296129225450636 -0.992649451626729
Ni -0.17038044915623407 0.04947472247857243 9.145060952347016 -0.5647168412345177 -1.3983767295664948 1.954156416212383
Ni 1.6549673801731708 1.499091423164218 8.74564261813742 2.038802274488237 0.4440950790846868 -1.3440927714119497
Ni 5.084359088579186 7.310763365033466 10.75644153544361 0.9345476623879905 1.6608161712174816 1.4318342378939921
Ni 8.617058643217215 6.638905042444715 12.666285363594401 1.1849594834504817 -0.24056732416824375 1.1813956773586234
Ni 1.4285922407027711 3.472595196341513 6.895540257546671 -0.3924716984814402 -1.0038203806418842 0.6683443828191974
Ni 6.948587272722637 3.094047255970917 9.640924692621171 -0.09804284840805051 1.0752461406830385 -0.029865162990548567
Ni 8.481972334538126 7.213710975486421 7.980968724958133 -0.7136400214322032 0.11921356894839469 0.49642834127076446
Ni 7.269174787280735 0.9023700452112139 0.2771687052648979 0.12094237871404333 -0.404937949269251 -0.5175671801319086
Ni 8.694017466409727 8.24133215511996 1.2049011933292446 0.14763660017577798 1.5942030020736222 -1.4301064565696078
Ni 7.867471166716586 4.461736964378794 13.350936744780423 -0.678878963801934 0.0029901929765754954 1.6694113690856602
Ni 2.8631893485793913 4.97855462832899 2.81595229762418 -0.3607185744395594 0.25096100869774196 0.5091475886096457
Ni 8.080165975098495 2.9115159998533184 1.520735860159787 1.7785405572148594 -1.233940541334875 0.018888352264070693
Ni 6.978593046405874 5.448855454141115 11.353666876746752 -2.2640982743197076 0.08389741014560391 -1.0671147698251555
Ni 3.3652315124665764 5.41052454003293 0.6266538310015051 -0.12361478333988388 0.041854217031624695 0.9658017353062658
Ni 2.190653506201318 7.951205187802312 5.74916099615669 1.0544633996097326 -1.0073363642149427 0.2349643761591695
Ni 7.000895512895455 1.6724900837654841 5.511715368950639 1.4728896131734053 -3.05173258785119 0.5274386736093497
Ni 3.9043702050923614 -0.052306383954215864 3.3818140413375435 -0.31098726865270315 -1.070922059386388 0.3839119818368872
Ni 5.27583731835303 6.034650201300036 2.0859989733743665 0.004279601211960372 -0.12405881285583793 0.12661577494973678
Ni 2.490804053963719 3.2316023353891783 4.48270016914784 -1.423568141230458 0.48532657493064796 -1.0788449137778904
Ni 3.2916138827556494 6.944197315731555 12.356764624334755 -0.006376850060621276 0.2587072283020641 -0.6912246298514805
Ni 1.716677367559448 5.350058219109243 5.5070154234532085 1.1557612646199706 0.8801148373604069 -0.889960619806235
Ni 6.377029722232472 7.472347194240127 3.8168894067607577 -1.1345095543300463 0.13069997232143943 -0.8268364376522405
Ni 6.275884370670486 6.365409793790959 6.392286911022411 2.323320036095502 0.7249677877401967 -0.8074017259663966
P 6.061788117244911 1.1330079906985362 3.6187427116632502 -1.0158438874653215 -0.07848935175615515 -0.24422189020169552
Ni 1.8230572555759181 6.021517454698805 8.253133992984358 -0.030405608875050862 0.9550257277366841 -0.45248767402375617
P 8.402730362466531 2.4889663975488476 12.267165880579546 -0.8818750145846231 -0.8098507017275214 0.4865015690753557
Ni 2.4023459565387517 0.40081977925326207 -0.0005336628477531872 1.0055072814260038 0.12139412153948126 0.12426321555716018
P 0.1947340371997882 1.9936159017178368 5.7296270797103235 -0.6651029930637642 -0.13215058872503693 2.7383925026955938
P 2.2175965191931004 8.781946541533443 7.940067876197029 1.0964824243539955 -0.2045076023312091 0.6266840269659336
P 4.26288026566645 6.661903590909626 4.054402785945742 -0.5433957111592383 0.9110724620841858 -3.3055585768015523
Ni 7.3296318271114185 5.3419743871024075 3.6013415903892945 -0.4313310945507991 0.4709304541099761 -0.11998027191109015
