# total energy = -340864.07183004316 ev
CRYSTAL
PRIMVEC
9.27860697522304 0.00000000000000 0.00000000000000

0.00000000000000 9.27860697522304 0.00000000000000

0.00000000000000 0.00000000000000 13.58017920420783

PRIMCOORD
 96 1
Ni 3.046277998362241 5.102556473127245 4.931342978753663 0.41079055139528603 -1.221659924195309 -1.162170510580424
Ni 4.169713168218059 6.528604129394117 3.0813158738508477 0.22479232072217417 0.37874972090965736 -1.0947045065179664
Ni 6.278026070645821 3.2032070773672743 1.6888716204412226 -0.7074089529208268 -0.056342126235154576 -0.07798721530875602
Ni 4.930419757364141 5.052108687249496 1.0047487971729714 -0.7151783124536005 1.1415487205650148 2.4610301211861874
Ni 4.442958863696048 4.253666003719599 8.727207155856526 -0.9391016003072601 1.1970038162095258 1.4521829767536734
Ni 4.934882767297412 6.829351615812267 5.492612406966859 0.1462497471305804 -0.6349586082698999 0.25462020271688407
Ni 1.814375913496144 8.500707082091266 0.24053118316462402 -3.381205831123222 -1.6567263174188243 0.4145937271914602
Ni 0.6513275870745958 5.938753808254816 4.179232091067421 -0.2296761311770367 -0.22877007442299954 0.9748921276433082
Ni 8.87585971748011 4.889927916722151 9.121195363313022 -1.3569765693531533 1.8637744267836998 0.026907108803489142
Ni 2.9159599640320986 2.3503360855867106 5.0070118739882075 0.62813670025206 -1.6019037131519898 -2.966962288182329
Ni 4.348307794404358 -0.08384427580046029 4.586094365639124 0.2861606965273265 0.6764821814349833 -0.7803334089946948
Ni 2.7205432234819296 7.9424504175482 9.788307716496728 0.48521704593597725 -0.41261037821284424 0.9787174149266692
Ni 6.427374527789144 4.934056971280652 7.565395667738731 -0.6763973350306609 1.6532524999376106 -0.5395290291149806
Ni 7.67609872701911 2.0420543703415004 3.5659653496191863 -1.3856726517362652 0.4020765685610559 1.656398758876076
Ni 1.3736513629338494 0.16147652426136697 11.572689605231346 0.9725102576746929 -1.3010365636524237 0.1512711116045717
Ni 6.9577118640802045 5.866529131912644 10.445901146831073 -0.1910998135657354 1.7424124440337347 1.8495852797675114
Ni 2.81589946690029 1.9195953160809651 2.4612312120305386 0.15516530445265533 -2.0102337188219246 1.209359766671717
Ni 1.7770202419964534 5.641281670082915 9.393504847351789 1.3615161090947199 0.0028210143885628834 1.4047983168221225
Ni 0.623695895637418 5.7415091821394615 13.485077299449182 -1.040048509735983 0.5648680221004013 0.2881784982883037
Ni 5.5058140089066905 4.827826200540474 4.066489593983855 -1.6208961950940923 -0.5633909233342427 -0.1827614689033691
Ni 2.5319648162390807 3.3054851615553242 10.318858460747176 0.11659181505483146 1.8438710029915533 -1.0270086458328893
Ni 7.454432807464315 4.5260302315392495 5.222937119435487 0.7466439871620496 -1.0141420742828662 0.07105295008276796
Ni 5.041011473361362 1.747839023201986 12.681891392056732 0.42504269043892606 0.14879848169436308 1.0231779592328893
Ni 2.744305735829348 6.154175225345804 0.3519319936861302 0.9376990635327787 1.730240327447575 3.7741321006435773
P 2.1114212357492717 5.80114278887779 2.5970598110163357 0.6295824315596511 -0.7395310302663521 -0.19830712994745203
P 4.408822868801026 1.4491792233430594 6.597699131618843 -0.05109501890360233 -0.5740244917886888 -0.3150141304239091
P 7.318816688577213 4.386498540527739 3.0807183315645634 1.7017051961223597 0.8811252809027922 -0.8263134752692349
P 0.15537491234427891 3.533107946759101 13.45855532940082 0.09925615198986132 0.35921370775925876 -0.5092275499179617
P 6.080837116172045 7.202843380560662 7.402664675820445 0.1791246434817302 0.37052424767607156 0.4569351682721486
P 8.427842181870929 7.942849397646185 0.834531825183659 0.1562107149980342 -0.5124853947336271 -0.2453763155211129
P 4.488340530190084 4.413684858832282 6.5324603184341745 0.2932525703771014 0.5759777588603177 -0.7701670099846543
P 6.932706018404183 1.6724781777175133 13.96273256131378 0.29062695982879627 1.96238780298324 -2.035030723260947
Ni 2.6881237708689345 3.109817898618048 6.9189653294017255 0.7233539062858575 0.8769395249562187 2.4987404912527675
Ni 6.387504353811456 8.81998394654838 5.979339362826798 0.09874347401950091 0.9725850767766863 1.0636625496104972
Ni 2.9617777250518382 2.658144591878497 12.448759897918686 -0.9891280687370321 -4.0630888718588025 0.974675897867444
Ni 5.165697393285067 2.2067867577745615 3.720249097788512 0.2771566932565033 -0.16252200192804267 1.300064686657458
Ni -0.010069144240304051 5.009640503331442 2.141893108767685 -0.25779371534885925 -0.07528215767276712 -0.07533255129472834
Ni 6.221751319616109 9.094176059933217 13.519760732153067 0.23133449271606613 -3.1351425168374134 -0.3969857843017099
Ni 0.8504112330834529 4.348382023259798 5.687378717171244 -0.2890992103303602 -1.77262316328916 1.9698375743930652
Ni 0.7417123528999274 7.433760071224546 2.3601398616688205 -0.30206296957987977 -0.2514742008887347 -1.2465965395359886
Ni 2.240644394461688 3.5208973000393815 1.0104050359574253 -1.085476560161795 1.6628509422593232 -0.6028537573155553
Ni 6.889606889214897 7.355151713314616 4.2845739712637165 0.33491755421605546 -0.4907942829134386 -0.8233266247267691
Ni 5.768426420843039 6.735711914675933 12.56036205421057 -0.5831141127947829 -1.1075592509934475 0.5775181067642441
Ni 4.827009683130646 6.786818481645704 9.283424382596404 1.173628888929011 0.6003091365168306 -0.6514946582517103
Ni 0.26804503629379245 8.968655065385823 9.39129097173832 -0.311866843044179 -0.15771198213390902 0.40032024799158156
Ni 8.943352304288043 9.084563423153863 3.66391867511722 -0.9975885407995593 0.31518536589445073 2.8206901724542455
Ni 6.357098358902245 8.562038673897762 11.063853584778894 -1.995606198716737 -2.841391409557339 0.3493211312358952
Ni 0.5178659607166107 1.8817293212001314 7.361570653588706 0.6729919088935378 -0.8197720746062913 -0.9014850755060668
Ni 8.489721211486287 5.921551271006822 6.663563322910585 0.6200616365534095 1.7383590998999674 0.5027745952037663
Ni 7.5731989761667595 5.016766473453589 13.913572646077897 -0.6891849737136325 -0.7748600445849494 -0.6731880840647438
Ni 1.3779751937631726 0.24816562094652797 5.8294546022029285 -0.5716644761969446 -0.25621222979435226 0.5086799049446078
Ni 8.911712254657159 2.6877711838055984 1.9150636444564126 0.31431607591561994 0.3109283903903097 -3.585721403874231
Ni 8.816643648053624 8.547146509775306 7.003787570372595 1.4122663430643936 -2.043335900692532 -0.23515952288911113
Ni 2.235058673089901 9.39607409361067 8.146844210303026 -0.38302083748118554 0.27327407037264545 -2.439414085578308
Ni 3.8302924481161766 8.59422616133751 6.762983596164232 -0.10637347976093293 -0.8420766516407627 -0.1967546978586676
Ni 7.71201621444467 0.805160394947129 7.977159830351489 -1.8215833952379468 1.6018134674310285 1.477909692095816
P 2.9087226506267934 0.9336041506774359 0.46013725198098626 0.995574338583008 2.422677489549918 0.22636866407035855
P 3.776801279165428 5.582371794685117 10.6517897231623 -0.9771027621413818 -0.09575893746988025 -0.404737917443303
P 7.180630395570533 0.9796631554773522 10.65716760373886 1.846095264336382 3.352042065075072 -1.472217269696729
P 0.035806144142400784 6.8549512923318 10.916766324144383 0.04558385927738601 -0.2416091351691968 -1.172229437478323
P 4.585042171613276 7.321368305482928 0.9396612252812604 0.9106184052659025 0.2782118739938951 0.01868883465875491
P 1.7372614113019245 1.2648133036463756 9.756448691742298 -0.4417391772580005 1.8291969459191466 1.1166848674437995
P 4.249852496271419 -0.019613119328376984 10.745452620815957 0.5755836087456926 0.5158591963018664 -0.5288913468954762
P 6.13078385727558 9.233791258407098 3.3613386638304203 0.8733839463944766 0.013612448577112041 1.3639748550478574
Ni 3.6885431700484244 8.585439320574913 12.770257133014121 2.8671340657390814 -0.13694543901051898 -1.3639509437884574
Ni 7.66009313006507 7.67990295586036 9.181463626765355 -0.6134271619560274 -0.25698536051495097 -1.1433145542161858
Ni 5.0368175430290565 9.398950461758933 8.528773940193453 1.418593313723686 -1.1668473472308034 1.1323943077592562
Ni 7.690127980697087 0.50700906274796 1.9089388360219997 -0.07640907218835874 -1.8795913392112984 -1.067827222511148
Ni 5.207367617007152 2.1509109868428338 10.39390290573534 1.6044807298505463 0.03605483674102823 0.638647627085713
Ni 8.119207879562383 3.43854038492978 7.432513954313863 -0.15836992743288208 -0.47322567790205594 -1.3744826965577166
Ni 9.063157676966634 4.794655180766159 11.500809165206274 -0.21424308445141813 -0.8628028284445206 0.28985640021135883
Ni 6.725097188348152 6.702039850127405 1.9569714005159013 -0.004748827538895047 0.1862939075366598 -0.5442891695077852
Ni 8.500475116918018 8.350801908532148 12.211962426182646 -0.23018109583791327 -0.11747293210820414 0.4486477314523757
Ni 9.408043496550214 1.0145043244990457 13.451588023457173 -0.9877430154640472 0.6903633102924498 0.39504742962841644
Ni 5.816925699265513 2.5006680750646004 7.9108075843352355 0.9982238603907132 0.005369748952345591 0.37069162649187126
Ni 3.2264592663335496 8.775261061146367 2.322916874248227 0.41444203210494424 -1.3039015439050448 -1.1679745188567112
Ni 7.138551913143535 3.076247898745748 11.718975194227118 -0.010606828981568828 0.054310954737738726 0.1446525778467896
Ni 0.7444912956754259 2.385947378983584 11.520011242247655 -1.0237091491460113 0.8171189532541606 1.4252411580575068
Ni 5.131245925754429 0.9493313894235798 1.7856168713169858 -0.4717030706099425 0.02398042207499741 -1.4553850286307386
Ni 3.7119067022978585 1.9780505397391992 8.878218339361684 -2.1946373513144075 -0.9958587025926462 -1.8115085275004479
Ni 9.053656383470438 2.600375985133074 9.441510503885592 -0.44309620550652723 -1.0014688496905721 1.065387502721404
Ni 2.636998646685304 7.455713255220638 4.674487942417304 -0.6015108701344157 0.062296029825744316 0.3857498063765744
Ni 6.705287362552862 2.0557959872046503 5.699913187272817 -1.1833561435191038 -0.36138089061390666 1.0709973927090135
Ni 3.2189064802926284 4.678774658818908 12.504492778303693 1.295838307280936 1.607367307369722 -1.7513200309360097
Ni 3.191070659502993 6.2029714191900345 7.018712209619303 -0.025841386543136145 -0.25305620066387385 0.5298871351498422
Ni 2.0786028030382915 6.908210496109303 11.8533368454573 -0.5242901006780389 -0.12998880518702774 -0.9958360768848268
Ni 0.915655613432279 2.9486021032114107 3.7009245431356543 0.34688115433583483 -0.0941460844568056 0.9792601748040167
Ni 0.8876796856780026 0.4345208739689779 2.0506881140897524 1.4083371832133165 2.0890141194559377 -0.7316038049994754
P 8.935066508299663 7.564040991126968 5.053116343962081 -0.048421842946813384 -0.5130790624535679 1.6737184811014465
P 5.4010121436337135 4.305616923919988 12.827321493493567 1.6486407121972122 -1.3404559459903107 -2.1756600388809564
P 1.2104963386788672 4.032593915008316 8.06883988970423 -0.832059890834709 -0.6677653703872757 -0.39490190518948765
P 8.739232230437649 2.4590813588048857 5.379461651178378 1.6536307092126359 0.5648621085631303 0.7810710584916677
P 6.828330969049979 4.09412963616727 9.554891369125937 -0.5286964572758508 -2.997192804932096 -0.6899470486906376
P 2.1776426534078133 0.1932353400609548 3.9952206141554587 -0.28047598743772345 1.5195780183688796 -1.2986523796909635
P 1.5732805910301833 7.1717322115247795 7.97410438508948 -1.1281386178066957 2.36797598424198 -0.7348521367334442
P 3.906673940362936 3.6423449861445594 2.778627302862968 0.6707396225242512 1.9276367726552992 -0.11020776590535859
