# total energy = -381165.82546604314 ev
CRYSTAL
PRIMVEC
9.31425493231790 0.00000000000000 0.00000000000000
0.00000000000000 9.31425493231790 0.00000000000000
0.00000000000000 0.00000000000000 13.63235359276895
PRIMCOORD
 96 1
Ni 6.0542564048824925 6.031697279387491 7.779125091094208 -1.7907694951808837 -0.8717294415101889 1.7684070683252835
Ni 5.14191581802829 6.205752761685216 5.46353424726229 0.9726907491166151 -0.19332664601372512 1.0076554381172582
Ni 9.22020892026356 8.332001567991334 7.014214257330459 -1.7507615873293783 1.4029548358554806 -0.3063011760309435
Ni 4.996958068202234 1.8061830633727027 11.739460605759785 -0.5433859409672255 0.07451905425449748 -2.500928500043022
Ni 0.5841993848769533 0.8809655190466421 3.2320678913105345 1.468294280493239 0.06331984310456837 -0.9443577064998768
Ni 9.024153167767984 6.029778542867272 8.683591406811551 -0.9277478658573377 0.8788783938501444 -1.969720846309543
Ni 2.110572915221028 8.160479563040695 2.9173513249963507 -1.5004112156324418 -0.4145736725868021 -0.0459561550151402
Ni 2.923139203023846 1.1002277377564191 6.955486017003835 -0.5019227887264324 0.18973738600057 -0.4144790559904668
Ni 5.15197521337701 6.663166508148479 3.3361779760423174 -1.5677188397401645 0.3126032069895713 -1.1823346442331248
Ni 2.3018783976908193 2.17557710053466 4.292105550372328 0.9494682882535648 -0.029471012875923436 0.3338919411650186
Ni 7.360627233248065 0.35641369146012614 5.821737207098796 2.4073804541815313 -0.32194299633325846 0.1538417005452254
Ni 6.102196875123108 9.027226871902316 3.9279442616426974 -0.07716626206935742 0.04185164592846341 -0.398251795498327
Ni 1.6251977753903033 7.671378721228962 8.224930481610146 1.4757031713628004 0.5545596981958578 0.704732177419612
Ni 3.690093584324178 1.3834276595877637 13.610105764807884 -2.358338718262532 0.5397133772116447 0.11210524003838758
Ni 0.47234077145016995 5.944981565779538 4.184764350597518 -0.2927743451891022 1.3556377959370718 0.20622972722863836
Ni 9.154068395845721 7.110437030968448 2.264770405959983 0.024789548239854083 1.9981099389751977 0.5078139573998867
Ni 9.007191909499447 4.774449831641505 10.487465466381524 -0.28067679059461986 -1.4111625684772535 1.8705559684819075
Ni 1.9155510450251827 5.151779614023008 7.7379011300998535 -0.7196625734771993 -1.5023063757726256 -1.1665575839045264
Ni 4.290136516875366 3.9381787649845257 5.024313103572288 0.2801425153577046 -0.0543628910215967 0.026113152147284057
Ni 7.6157819334173755 5.208345084349657 0.07190139110597155 -1.1187924007051055 -0.9926671922385422 -1.0145997306455752
Ni 4.107027578763792 7.0996138667136215 9.097551359644827 -1.1499703689698066 0.13571388059626305 0.4583083944705913
Ni 0.07872501428418709 3.2637056211077566 8.833697145349864 0.03467826810847576 -0.13493509344870955 -2.6577087143912808
Ni 8.618098223112913 8.535825409117312 4.127740618927205 0.5824134871833325 0.0029122885507885327 1.2405523902244375
Ni 5.380165145458777 4.737258011616095 1.5186576015414084 -0.8598380893892418 0.07841967486048429 -0.5100425896200893
P 4.674927017473837 2.014095862422835 4.025824972662235 -1.0924658469954345 -0.6363518890730008 -2.1310200315740784
Ni 6.844701337173078 4.4551664861241 5.557814998742679 -0.04935901004910209 -0.3351713220980744 0.66527859940968
P 2.784226404661976 4.358158520793613 10.907927700597154 -0.14258129714005768 0.46234862597823595 0.37356534849524053
Ni 6.153499791401583 1.5661453989913316 2.149263398868298 -0.7004926854169677 0.08917177117066578 0.5396305876898513
P 8.820347955151913 3.5521587827323216 12.552084641943308 -0.1627760269203777 -0.3382440474861272 0.4433044648625914
P 4.071838323553175 8.699709725006885 7.48668449692447 -0.5421752084885759 -0.5384617641927306 0.6623236305464142
P 1.0780691252243761 5.5762115836994 1.075262740207182 1.5470957641731742 1.1531932467824786 -0.7442392343752989
Ni 1.5426734765109835 0.9718493617458478 1.1264482968732559 0.14849046353564105 -0.34934144295086933 -0.15008891837101246
Ni 2.724214660002895 5.302465630644862 13.007923347894101 0.4525002724292465 -0.250019213609763 0.19653563986932604
Ni 3.7702520624455578 1.123010405370281 9.324802414827378 -0.13383157597188564 -2.3646003829015276 0.05657018308556064
Ni 3.374303084413969 6.623888295013706 1.7458956167670274 -0.05508871344402771 -1.3145302272634845 -0.1515865859624615
Ni 7.716087145001053 6.449544070812452 6.554326644751807 2.006512046995964 0.26893584800860776 -1.8876833721908137
Ni 0.7156849963396852 0.604619026009361 8.924719770447862 0.21414409697970863 1.0050750789845915 -1.2598222941976434
Ni 6.015686075124111 8.244224029318794 6.742003293492097 0.10914075809342494 -2.276926279322311 -0.06565646165754499
Ni 0.15679803072169782 1.6368964796106673 6.422569988469957 -0.08809010807071281 -0.500020686607713 -0.2576628461979498
Ni 6.917240754743296 3.937414996078419 9.216779411590043 0.6010773821414229 1.0114827822831483 -1.1415564338744983
Ni 6.147277869093301 8.498736045896381 11.800956111232802 1.390507097010431 -1.2480762094053086 0.04853702836843899
Ni 2.95424881456526 4.564124640558669 3.04579490079159 -0.5331406090901335 -0.16080501923693596 -0.46700797912711833
Ni 0.052428078276739766 8.663672872595589 11.842793881628529 1.4322859807194301 0.5305782476795958 -0.4069724632007765
Ni 0.2473400402641459 2.1644558801213516 10.68176734466954 -0.6338774593905794 -0.23502042620808558 2.3202298272059525
Ni 5.6782585609592 0.9502030332361932 7.676010700216849 -2.1133737792472247 2.119668611117001 0.3447872479212836
Ni 8.675446090855573 1.2403793320269747 13.115332541730066 0.20156343210122063 -1.3215704219397175 -2.0987192625588436
Ni 3.251969659867582 3.2470237904877943 8.97830933631718 -2.2884911013417746 0.16068417738835553 -1.7420152085953162
Ni 1.5147586544182836 9.068479707087024 5.012071378288192 0.2585318790664644 -0.43276037079815793 1.2042553555656164
Ni 7.996231991207972 1.655031334003222 3.8472679109459578 -1.8987260031582203 0.17864461852151814 0.46456157446915475
Ni 7.878825807531468 9.318166939599205 2.0919118054236563 0.1402819595829197 -0.6642293322095593 -1.5426672960881753
Ni 7.814380477514988 0.9800645346139696 8.217132587363897 1.31470120562371 -0.7788426833817812 0.21317993329422638
Ni 4.551066055115238 4.880846565964131 9.673245898324634 1.276275040437028 0.18872694245818464 -0.9627259245944193
Ni 9.257465940073637 4.168306062096415 6.513115723714386 -1.5906926749275185 0.5372541170378746 0.5966396580850435
Ni 8.02137116532482 7.829190142889494 -0.23276416268894873 -1.2831995354710029 -0.7095781926580038 1.2315195905982081
Ni 6.035208753504591 2.037651613197756 5.57961314960806 -0.3307873340977658 1.6020245550005698 -0.18546318410524834
Ni 5.528150028144402 6.629998446262559 13.432312471997713 0.15518073107162306 -0.4326143321385969 -0.00043760175805085925
P 1.7762843049751162 8.888872928837596 10.306114128179491 1.2668966845459213 -1.2223505225044302 1.0003529909185738
Ni 1.5508700208692003 3.347161345482328 0.4611077799774318 0.049848805201327055 0.21207127361107994 0.1735846875001075
P 7.38745228751132 2.8218559946701527 7.259814394769474 0.4272803215201932 1.3515893368993108 -0.8449634862702545
Ni 8.250268980782979 7.043243995740976 10.79198478637369 -0.718522032114853 -0.7490250857997164 0.7032620206319888
P 5.366855075131627 2.5218810996693217 9.68513275049504 -0.05972261267161327 0.06357438231753566 -0.28206287230886906
P 5.390066198473305 0.4370350880526461 -0.37899144546503255 2.3387435697394237 -1.760457988681536 1.5626658506972892
P 0.7931917060760827 6.578518559139986 6.209401155350118 0.7880983976520943 -0.8119106695803435 0.33635505799353044
Ni 6.207298928007335 2.6363160360159714 -0.015415091946419187 0.33015175739629593 -0.03018449400318027 0.428629636459236
Ni 3.897428899567254 0.08106754940474564 2.6880278480868625 0.566748784062882 1.458929037228255 0.44321139092815276
Ni 2.9329191707239914 6.517957273438706 4.564752421342469 -0.23659651244595378 0.367267945522303 -0.4017472102460952
Ni 5.11647858775296 3.599111941947971 7.550265464081355 0.7263065611562782 0.15851905141623665 -0.7367868918623117
Ni 0.2340951697216637 5.8335365052726464 12.584216027253014 0.819981105293304 0.24166184278400316 0.5004765431982091
Ni 7.195420293155234 2.7223052377376287 11.141300084134503 0.6977364628280693 -0.5071303010693007 0.9939239474637787
Ni 5.268151915399782 4.173587244654494 11.893778250387628 -0.41180999379873595 0.01918145802445729 0.47515529082460106
Ni 1.8976769897712984 4.500517593487916 5.213993248552864 0.7954090723808948 -0.9999709249888069 0.7957168334293006
Ni 3.4062137218812993 6.614220098372991 6.981809964350645 0.7230435741342903 0.40722777374469227 -1.5107030844767528
Ni 5.504761933958625 8.775741988184299 9.54567413679295 1.935366022978757 -0.08995801451738701 -0.4300547989415368
Ni 4.428592916744563 6.359586996481023 11.3517696461691 -1.1216802637758618 1.4664734252344165 0.4454598206426974
Ni 3.754781084969423 2.5358245393332424 1.8493238980362856 0.04339945003155752 0.5454533650192154 2.5548915845230384
Ni 2.0894761277535725 7.230404634756895 11.905747999427112 -0.5186902379927583 0.7740527181923057 -0.7122436553053089
Ni 3.8801975279050933 8.702373601923306 11.438512371116417 -0.4675042020372465 0.727896017130585 -0.4024401225480617
Ni 7.796664764595297 9.73628384441779 10.494158689990405 -0.3146166378751743 -0.25333953623224753 -0.028854719448163212
Ni 5.462568359023714 8.35172915998077 1.3384258367846675 0.22809567406379427 0.9394206742095755 -0.030490969500005558
Ni 7.263302583249192 6.779538809525254 4.095350297329819 0.48825351876945594 -1.2933744191214758 1.2663513535654125
Ni 4.0616392143801665 8.622028838702876 5.211171960727746 -0.26469635600596353 0.20228051277290324 -0.07541096994114754
Ni 8.524378189780666 2.5494419800738255 1.1157164123169632 -0.3332118843788584 1.8523803260141452 2.7720425866498712
Ni 0.9676579470172141 7.97714708281026 0.5754365338176234 -0.5375035140445195 -0.07926273958706995 -1.4094975220700048
Ni 1.9684746416653964 0.5980282592049586 12.259207209216298 -1.416217614402658 -1.2608183395623256 1.840293055832308
Ni 6.949030306896244 6.5691577329127036 1.863679027769108 -0.4473755496081715 0.6100456470783042 -0.8366961040551397
Ni 8.879409645805838 3.761505977045142 4.19745595439582 -0.09195884699749969 0.11568678674205883 0.46169453733400484
Ni 6.68291272864782 3.8359268741157697 3.1916607904755163 -0.2110112077776818 -0.21382245197423175 0.14995984899231593
Ni 3.1014419855799202 8.253715255115411 0.21081325804234685 1.927109696507236 0.9494271506029842 -0.3315764056579644
P 1.7923979660429743 2.9453909581054147 6.922249961056761 0.30476339923017837 1.2915648767165626 0.30316802971860046
Ni 1.7789388676365843 5.9425226024720725 9.763873599012646 0.7473662100400548 -0.18087376496235302 2.630740413332553
P 7.698492517395746 7.919547730183882 8.966080650990019 -0.7314834773715273 0.8160645438477172 -1.5614342922830335
Ni 2.5257744582394746 2.166383930896523 10.99122135693555 0.6400941297242524 2.0255240693220924 -0.3300124036049542
P 3.993402982598011 3.678758136046962 0.07271079986134546 0.6799009773085452 -0.04320121797782238 0.20986989508438697
P 0.9289488348600399 3.074654188336475 2.7268384856230194 0.8465747966214324 -0.6567826461235269 -0.8505355810413932
P 6.495537861767992 5.896724410870537 11.385973453205741 0.6331416096658193 0.2615940629315559 0.7808941665941712
Ni 8.673965124318123 5.013304585643906 2.1649951754831025 -0.4864712300580525 -2.8285006696375996 0.5022495759382318
