# total energy = -340889.4126118155 ev
CRYSTAL
PRIMVEC
9.11387261817674 0.00000000000000 0.00000000000000

0.00000000000000 9.11387261817674 0.00000000000000

0.00000000000000 0.00000000000000 13.33907382106265

PRIMCOORD
 96 1
Ni 6.640877863882411 2.162311814622293 11.574727412750363 -3.1953047881496066 -1.723781973416741 0.4422338575062319
Ni 4.773408937776043 0.4680237819439723 6.204110107599636 -0.16319434540471894 -0.24847680882330755 -1.2881329682168783
Ni 2.4649561779788605 1.5966046360784463 4.813138130679466 0.2716972128038288 0.159553406218022 0.17134757063947265
Ni 3.3369988382326166 4.147668681223653 4.841803993782589 0.5872373909345371 0.8822920475173837 0.06453520356890821
Ni 4.970177444562814 4.54760363327632 2.699361332548246 0.8052463701862907 -0.6217189696511745 0.26809252617170604
Ni 7.22021028177995 6.2176660815225 2.576682229291892 0.3669884666086712 -0.5198660034684143 0.4100827266949841
Ni 4.978844737288809 4.832138732020321 11.404694450876006 0.6601286797776245 -0.4560270546355824 0.021444028806388873
Ni 5.731067316082366 7.891456103611931 12.517640456775522 -0.20283355706289583 0.22965119147637225 -0.5826903949938029
Ni 1.942494324340212 6.6275989516828595 0.5808699281844744 -0.13490526865203864 -0.003116434141794633 -1.1368921956296096
Ni 2.596852140471596 1.788296715895313 0.15799353633173066 0.38181910386360046 -1.2011661751173313 2.0026119406106093
Ni 0.7726303620449213 8.993651385537124 4.765024175096848 0.1935207643024022 0.2604380949502418 -0.15388849462276077
Ni 8.473786985554531 2.2296268767402685 1.2629995365289495 0.3549181657076984 0.6481781922839676 0.057416076025623694
Ni 7.576116115894364 0.3222464802809303 5.014744280977234 -0.6451453189949147 0.5084009402516083 -0.22203764079517246
Ni 0.6349634954995054 7.548482854542929 2.6668412127744365 0.9879535888129566 -0.4364848708375967 -0.22208160665923043
Ni 7.633724903823922 3.7487089135260665 3.899691147760944 0.09880235228189435 0.18346672250050983 -0.9525201877060111
Ni 7.460069177639804 3.7988990092590327 12.887692843749337 0.5321268231136385 1.0276583636017462 0.11500390174242128
Ni 7.983433304653714 8.634182027284051 7.355338934840414 0.5253090288608566 0.5589066623106439 -0.11653885032970897
Ni 6.775836087527548 0.7235594498521779 0.4951020084615348 -0.1624656947688105 -0.5879161621691165 -1.0956373027448807
Ni 1.778526644599555 6.555799864306009 9.2560497994208 0.6547802709815175 -0.4783658273420987 0.085587139143201
Ni -0.11624926622355806 5.05468127017314 1.3792998404383807 0.5375168837809582 -0.7527128190639487 -0.33926580388242217
Ni 6.618002043964172 1.931475652515052 7.060838727929639 -0.26450506593076384 -0.004859384974830341 -0.5723918412812723
Ni 3.4695509995437233 4.189756544324223 0.5423027540219186 -0.3600506018382573 0.9880034682142855 -0.017550607289253645
Ni 6.127019505862416 5.9247006507369155 4.632140268827564 -0.44078966886053766 -0.0030986935299817603 0.8099594593912438
Ni 5.2348898706685 2.9119825091221827 9.606120932375191 0.8391396804996258 -0.8751888608136992 -0.6457883518955524
P 0.40175772654814407 5.732644016020954 12.497951758062626 -0.9178676306291482 0.3147066264858193 -0.3558252509030001
P 4.000589007183592 6.169207621560237 12.831228758202936 0.3543836333604671 -0.38151725635246553 -0.509000264398504
P 2.5421415639898455 8.5650441906706 1.398174670339048 -0.47199849036317426 0.4429452817509597 0.8300713996497705
P 6.366140178051601 7.9237921231616975 5.8903085415562515 -0.2662426174471608 -0.5082821552855569 -0.8739228496170821
P 4.558804582551027 0.9568199020384035 12.679429920994085 1.3784113421881614 1.0813265425491636 0.1696303308380498
P 4.036041971120626 6.2307353746550715 8.364745881073336 -0.2815877324446634 -0.5685902081469949 -0.23733364772229448
P 4.373920565474768 1.2489286288111126 3.974150574513942 1.3568176751777858 -0.6458739696308231 -0.7413158900809168
P 0.19761153999092904 5.569760887105105 3.632202636098646 0.09840151729904989 0.2546826805237033 -1.0717995768953348
Ni 1.3076675369278674 1.2212315703523358 2.401847168009199 0.09850204743265616 -0.09770757655581881 0.7316559983936496
Ni 1.7772962718151075 6.626623767327779 4.861665856072557 1.195770972243689 -0.5630564228129593 0.26223966693535483
Ni 6.116301591829009 5.5918893694802 9.135998225599677 -0.38140489914431736 1.069772519162977 1.0438123476537895
Ni 8.570886182928604 2.290270584204797 10.42105789046014 1.2452659936500232 1.0024440691196477 -1.9819438707382964
Ni 2.4204713664167383 5.332772861075629 7.107431578195781 -1.1853929714434746 -0.6764364157987124 0.3000731928433606
Ni 0.9413263188268468 9.005116637113677 9.04447854095626 -1.9115720058829528 0.7532265254755737 0.9711097777827404
Ni 1.5012279606025984 1.2097663187757837 11.438588942619406 -0.4838561610327087 -0.5077069995083772 0.39336052884429673
Ni 4.224471284590588 6.556100622097764 1.6697981459443358 0.5306872624536344 1.7508220082536685 -0.4604164419525296
Ni 5.645524509009618 7.922926305276346 8.007192258815012 -1.031105184499766 0.3941056345404374 0.9792989984617521
Ni 5.427174352196397 2.982350718520083 5.003939785155292 0.30108132239290086 -0.28352942955206656 0.00027665070015436225
Ni 1.052424424326186 7.55921899632129 7.092771914315905 0.037053967429503926 0.18256940749722106 -0.8734495095250894
Ni 4.978844737288809 4.617315643855847 7.16186873850321 1.7611434447843346 0.0725282490767138 0.0632797338952523
Ni 8.52267379752323 7.112028615473375 9.413971336159959 -0.8765937115810257 -0.08768773042597156 -0.4031340632912928
Ni 4.912568656633255 0.0989857689768929 10.559584195180173 -0.5916594312616326 1.739078237454179 -0.20482127691688592
Ni 8.557434107151982 6.965814759318666 5.122644328624258 -1.6014339726044227 2.5383393365913123 -0.737679321769594
Ni 7.147162593873699 6.246921612174909 6.946735778674506 0.5878076616157103 -1.2226531413465136 0.8489288986759057
Ni 2.3776817351354094 5.453969137279913 2.635574250466267 -0.8818364480372038 -0.7028658136348347 0.32004063710422304
Ni 2.4194232710818384 5.0651986790120445 11.657443096580627 -0.8308887533447432 0.6383771470331457 -0.30111217563083625
Ni 1.317063939452053 3.6045639064237243 3.747266187512896 -1.601974675599241 -0.5096129582818385 -0.5458107483586342
Ni 3.433460064533273 2.6854298670793133 2.6347868118842204 -0.20667915606123116 0.07977104668205617 -0.3441447292412783
Ni 1.2472425624027963 3.3617521158811976 8.326903259772733 -1.2060155327898325 0.308665562498062 -0.7842833947813783
Ni 3.7936220770946263 2.783486021063513 6.995730134338439 -1.1297075049557124 -1.502241583972961 0.4110934273476856
Ni 4.130972066845081 6.492987055191863 6.081136626262262 0.4957554835734559 2.031093850100386 -0.5627229507329405
Ni 1.0174362678855 7.803179134795967 11.324633638098407 -0.37959664229098494 -1.4813071478131392 0.9312592214447057
P 0.17056885757602833 5.700043694169343 7.839199892988342 0.16315166509224158 -0.30388485327996695 1.3301998154799413
P 8.527704655130748 1.6167554081259474 8.192752525229093 1.2447499732455531 0.2413286278143005 -1.2090646040288016
P 1.5661734158764533 3.079714218196001 10.426939983757045 1.4467234963009987 1.2657972808341555 0.7349164143124762
P 4.019564089681511 6.226397171355836 3.890754084409619 0.2919328231244134 -0.7836737862218375 0.27580403588335084
P 6.985272877057886 3.9899531180024823 10.482711414995164 0.11000696274846214 1.0603725660053158 0.0004566279214443749
P 6.515954013834876 7.844711051675416 10.19582767131374 -0.13446792400430388 -1.8880811218498643 -0.34663484265298367
P 2.7621595594664288 8.56936416622488 5.849037281429656 -1.5902147068498356 -0.08159215905119498 0.18663175049205277
P 6.86408571472608 3.9286349839746277 1.705507209697983 0.17329132462940477 0.5633541565590363 -0.056884629002185896
Ni 5.354819318598427 2.749473048977907 0.612930708785424 -0.4388757396672764 -0.18575449009342201 -0.3577471505160613
Ni 1.391569846954686 1.191046424707232 6.976388674166929 -0.3955678209082607 -0.04672285797783566 0.5503677716016973
Ni 6.890898727554551 0.8433631263419166 9.268122034904346 -1.5849794265928252 -0.28973118748740423 -0.14572318520314903
Ni 2.8428811279986395 1.622223731612379 9.298947885784612 0.4756967651503678 0.6454494804988948 0.5115690535669448
Ni 6.202017562478827 1.67386293306925 2.77560798969406 0.7491878366298259 1.2641833993798166 0.6614152597995319
Ni 3.9518480171745303 6.991843979114081 10.354708898824768 0.3432065336977251 -0.5215197370217535 0.5755193311666604
Ni 8.230072921636742 7.364154783687789 0.5107514388924549 0.5653681016652714 -0.5540182238700909 -1.15968296827188
Ni 7.503123111222977 3.8523700990838585 8.157417130247019 1.1895311619815643 0.1254101846774098 0.3660718683316727
Ni 3.259676744134471 8.264213487937033 12.429081869300008 -0.4625849103587582 0.2309398283808087 1.1361272924391272
Ni 0.11585645831978272 4.7519639958367526 10.139030018034669 -0.49113058320693487 0.40935921826539823 0.41164981407178786
Ni 9.015223921691097 2.430824725551049 5.543839211004924 -0.6563879817882695 -0.5561488970598487 -0.12304014178333648
Ni 3.5197775507665994 2.8492881803502423 11.710599757804982 0.7987810741769211 -0.16945523871276624 -1.203552930181953
Ni 0.7313673044035548 3.3161645257493113 12.600328798988354 0.24340839316146468 0.4282663395825463 -0.3259369479839999
Ni 2.968442949119591 8.756800067594808 8.08101098033285 2.0294629993651823 -1.6063666340193496 -0.7253447114636411
Ni 5.701374319551042 8.38246598333112 3.5024675727702994 -0.4400131957058293 -0.49270101301784824 0.9375504537700564
Ni 3.092273134469839 8.192268578600544 3.649983801302027 0.28549760902203086 1.196010599058321 -0.8710779239691191
Ni 3.3902694228629398 4.141926941562899 9.499994444312266 -1.0356313545048939 1.7660735350961005 -0.5785848574658616
Ni 7.307056372616965 6.09161211128777 11.477192572271871 0.8201952781866392 -0.19062750191500719 -0.32650567600327635
Ni 0.7958069397549148 0.01992383662281425 13.617193627069522 -0.7303185105291486 -0.2554295859920569 -0.4659222022621073
Ni 4.579201429155418 0.3777836849963793 1.63726435536181 -1.1327370358106554 -0.5760052696641434 -0.7886547843761965
Ni 6.193222675538149 5.719401559311312 0.2471846265571765 -0.946473467291299 -0.4017605799825339 0.7491348719047034
Ni 8.071746728959587 8.987481293869934 11.033788094051062 0.8495217950648982 -0.8045814829087821 0.6250020112778204
Ni 9.105688219901634 4.923632897820802 5.75060837006113 0.7792054660378387 -2.012368762887057 1.2137563530775162
Ni 7.848028501257184 -0.2921378911646368 2.4356350274446132 0.28546212779840513 0.5831413664882925 0.37338768526679567
P 8.399472469373922 1.593961613060004 3.434651247666068 0.8252153571090499 0.31191286579076605 0.7070695673035371
P 1.5521198245163237 3.403630359914788 1.3291197699651394 0.3703440133444654 -0.37886876298602495 1.2423341647152089
P 4.727766664409293 1.0548487144051708 8.301212164646229 1.344722948796781 0.9035720399420826 0.17763494631008117
P 8.504163522521658 1.3995991686072635 12.370096886626364 0.3820317340950388 0.40349710305766634 2.92148487257582
P 6.2420548042719854 7.6780730072988845 1.3063150382522235 -0.25108442164948375 1.0900405253833936 0.6326986085911297
P 1.776175265500389 3.4182125558786063 6.1684010438459875 0.2183167403001595 -0.92440517463735 -0.6425927277763901
P 7.009406411378005 4.218301192923397 6.021858176894845 -0.961687713137892 -0.9415744873277848 -0.07562874237890846
P 2.6739646155027614 8.848567649569612 10.432462990478342 -0.1645158924296199 -0.9725922758655378 -1.2885155483672777
