# total energy = -340892.49933337554 ev
CRYSTAL
PRIMVEC
9.02876267788861 0.00000000000000 0.00000000000000
0.00000000000000 9.02876267788861 0.00000000000000
0.00000000000000 0.00000000000000 13.21450682041126
PRIMCOORD
 96 1
Ni 6.654360694150366 1.8584444176955446 11.407079757911479 -1.7284852924296812 0.6744972897944707 0.23951959963001979
Ni 4.746348368736306 0.37525434196498175 6.041712189264852 -1.0821431249131879 -0.41484286708778884 -0.42757188461868295
Ni 3.003670747537449 1.8855307060663185 4.663716228803586 -1.4952317283140315 -1.5221414082206817 0.32189851624856824
Ni 3.3994555932111985 4.145384888653943 4.755861073212122 -0.2364381324912186 0.6528617138025659 -0.3204353014394804
Ni 5.121962958336619 4.180922098996398 3.123208858251628 -0.26456265864157663 0.37152980612245046 -1.9168592224238215
Ni 6.771526948879544 5.92130641444653 2.7377023561383083 1.5259978058522945 1.4486479670172212 -0.1807711779462177
Ni 5.0902268571288625 4.6385900848345765 11.68909045503635 0.15290890431831086 -1.26383912866652 -0.9451704322091593
Ni 5.742798745320338 7.752131846766676 12.215437530791181 -1.3440539477542142 0.7920836075520874 1.016694922611707
Ni 1.8248122763018337 6.421915196115175 0.3959645180532756 0.14011895164249416 0.5795881019193954 0.47073864981414415
Ni 2.8506061319542053 1.5721242920908831 0.2535899576136973 -0.3564513145227732 -0.8597092771208614 -0.2712490695228167
Ni 0.44918365744417227 8.924218745909597 4.466846764790847 0.4276325626532893 1.2382347978348547 0.04778240959060158
Ni 8.507432997985708 2.5843388885067067 1.3070768344963484 0.40907151182165036 -0.36178558225149304 0.06897369895623605
Ni 6.8169325969517525 0.7215218409918404 4.866876934728576 0.6545337021883502 0.17568707855509097 -1.0038373499227484
Ni 0.4780486120846271 7.423593226354766 2.404260214655011 1.2258353957292374 -0.6916164659732605 -0.2787834302266489
Ni 7.630424124353997 3.8940963626754828 3.820855941797189 -0.47294259944399836 -0.2278624750070656 0.478324432581202
Ni 7.468303659692125 3.9049218492610023 12.562965445103561 0.3670530012980195 0.3352934494982355 0.14555169262229126
Ni 7.998463581973284 8.845162898918097 6.765206814926365 0.30796905065166963 -0.6666109450678583 0.1024548614328171
Ni 6.934550289820443 0.5864804416905095 0.3634916698018337 0.2593160655306566 -0.36126596230259717 0.9844489180938077
Ni 1.885187613080289 6.43191003652399 8.96659795269451 0.28806845507300066 -0.6557259227242385 0.27535383571980965
Ni -0.11617670232736571 5.064837976162656 1.3199166380603742 0.19640014273272627 -0.3750002811695542 0.7343713404422837
Ni 6.467049981303674 1.7170269061117336 7.203808762380354 0.2976036482569455 0.9658968661232334 -0.6962755620118266
Ni 3.9193678697254146 4.429258219542445 0.7588223687072331 -1.1256443906299325 -0.6329613753342131 0.4340940020079169
Ni 5.791861042322601 5.653558453901429 4.815656763419442 0.3927228952602978 -0.21320641565678763 1.6865290026025535
Ni 5.3860813562400365 2.7286185178950295 9.19573711779591 -0.7085168412730249 -0.28641137908555186 0.12076137305148879
P 0.25055448756361254 5.615393873587008 12.447603137179875 -1.141375428211944 0.06551170854956459 -0.9044639556287327
P 3.8690325171697264 6.093087655293979 12.617581334098112 -0.07410382109394979 1.0600090120183099 0.7493752700502836
P 2.3362104295048365 8.554292276867146 1.5747336045372677 -0.06915599017037122 0.49524152005151484 -0.6489006722722889
P 6.181434099196653 7.661401809487372 5.755908508891793 0.11301206812337312 0.7837609466190051 0.43358852312640805
P 4.873058025734787 0.8882189855120945 12.574647761277875 -0.4757857253197484 -0.5589339160041535 -1.304248128611186
P 4.04621295816575 6.213206315455571 8.206711092854306 -0.9351451867626733 1.1535593718726456 -0.206640846624128
P 4.738809351806441 0.9565703313394638 3.835787709699718 0.7786907311849492 0.09900161277689401 -0.6341916481968884
P 0.17654933047698387 5.671516663091252 3.641588050844059 -0.6821663763039543 -1.177539536837327 -0.38621080517339296
Ni 1.5281181022511656 1.6422777789711878 2.584757823100175 -0.08183281430709131 -2.2790404974518363 -0.48223868003394366
Ni 1.818176135650994 6.47564536348 4.801358814664789 0.5582664576234837 -0.15249907047440187 -1.1555067254070035
Ni 5.9171712410885915 5.612658158461561 9.28119616335826 0.3546240315060473 1.5621158917310904 0.4911223556768187
Ni 8.63314949107726 2.363387005503513 10.220601913757164 0.9964246023984451 0.49540169977846293 -0.43208442777705586
Ni 2.6524338174708326 5.103408850802639 6.699345601876548 -0.7014475931310694 0.6409374515611542 2.248099842008922
Ni 0.835882859122085 -0.30641002568926456 8.985931242457289 -0.5017047591783553 0.8897713866135644 -0.4391773300680953
Ni 1.4466515755946678 1.0150767142203356 11.25601140178116 0.055895268505723086 0.4448137024182662 1.0121798083501727
Ni 3.7944910515733565 6.858555193414841 1.6326919415167707 1.2608018845020932 0.6756067208085654 0.5824163153968098
Ni 5.642182212785704 8.072345947885966 8.020981316372188 -0.30651277782111724 -0.8396094210471927 -0.15478298141257213
Ni 5.325543501731356 2.786158823157344 4.952295350858369 0.44327284029370756 -0.4957991923271977 0.8575595777677103
Ni 0.9560647206232092 7.321577235587642 6.7937629858793915 -1.789230432828538 -0.939479295361653 1.680399749776364
Ni 5.0558272708979795 4.543038688225276 7.45337821192355 0.49013762316604625 -1.281527804195535 -1.7420517182602062
Ni 7.988044389713326 7.3902319478447644 8.86760840321468 1.3608782184004047 -1.4676525331441819 -0.35996626965456713
Ni 4.678163152144278 0.06690854953348589 10.435548766628557 -0.47334086332368164 1.505074682546382 -0.838998012715439
Ni 8.087667758341032 7.090142958984959 4.829862618793634 0.09920061616157755 -0.12035642430358627 -0.29390974434512607
Ni 7.237402080094067 6.200900111772449 6.9187589837002825 0.10637733641567487 -1.6424926903179455 0.4944629900142774
Ni 2.1852043718377714 5.139686419693895 2.672012689581507 0.2964415096280443 0.23350296112229466 -1.4026092795906038
Ni 2.198901004990593 5.419794756498859 11.349398603949636 -0.40211282111563007 -0.9219551704349606 0.0033252077184910476
Ni 0.9400567241960819 3.5394646177997293 3.7680774060304567 0.20548539286344614 -0.5542136277103487 1.0373141415239555
Ni 3.8397070956269688 2.342151355420826 2.353305488971911 -0.5718483100729765 1.5605794004819058 0.6132939788122728
Ni 1.3419450135160458 3.5364038672138314 8.365932421784226 -0.952585750836624 0.24229356283073109 -0.5983052187129244
Ni 3.6456067531620024 2.6437932914805558 7.033091109789598 0.4370764816750085 -0.07872357925414829 0.2415749394971517
Ni 4.009610353814043 6.91415431467725 5.898228896754631 0.027907525043545486 0.7889250073184477 0.1760804573387677
Ni 0.6841265112671497 7.487580068249326 11.209218935744369 -0.18369580779218042 -0.7243404385688429 0.1699702306759718
P 0.08201818406298264 5.434412323456287 8.143743598278768 0.4186524706418661 1.5962488288590573 -1.0204106809003974
P 8.69823784203223 1.3885063432254063 8.071314863175317 -0.5335846386060874 1.5144594661953918 0.056650915724825016
P 1.8370643074082138 3.3469443088230584 10.48853947832086 0.6102163683282136 -0.8348855332089622 -0.12641394335157585
P 3.87859397696461 6.014862454479183 3.7649579684864225 0.1287284504173654 0.8478091832491658 -0.4255178303031317
P 6.744467746797142 3.917029420162738 10.362816665095355 1.1266358080089243 -0.03733061812965829 1.0537550606887982
P 6.4477555152208925 7.830077155934973 10.123938173572103 -1.4458009844867294 -1.146342285298916 0.9196735734896355
P 2.2188274844686924 8.508308787976363 5.7046368736347555 1.0240881297519848 1.2064649616224252 0.10586131601120477
P 6.8765495176558264 4.128925454087303 1.6777003240262067 -0.7776831158560413 -1.494885400718206 -1.2148035633951078
Ni 5.45200035337171 2.6013671351291334 0.40558376193001644 0.13369762149718264 1.6555356395448326 -0.3045353423797723
Ni 1.5194504899725179 1.2172668281453731 7.042129804218925 0.16084641399783267 -0.05248881392733541 -1.0988835775963206
Ni 7.107649730035269 0.6350398366053541 9.284988243730169 -0.4271170564694515 0.8618764599755093 -0.09627007277834387
Ni 2.6375905314436485 1.5833380154763834 9.188641413119047 0.96941362102724 -0.29001915104146825 0.41744868014175207
Ni 6.313660330259981 2.0232283673805433 2.5629271775496103 1.1763264903658321 -0.14081546348888654 0.6524063714327022
Ni 3.9150882361628327 6.776176761716528 10.507726502126438 1.148471415826777 -0.03716323931385858 -0.8273953954795039
Ni 8.089825632647905 7.203760909937566 0.13465677400646578 -0.7397590871167582 -0.258496912063471 0.6089647553092996
Ni 7.605369307611031 3.9069804071771808 8.306533094263399 -0.2348903283881245 -0.8328003685451594 -0.8882701194776896
Ni 3.065192737190267 8.236868063450046 12.396172595697731 0.4615050470310181 0.37917318160032115 0.7252763201195509
Ni -0.08994634066910819 4.991668882510406 10.311768943155515 0.552160601836062 -1.0841868948160942 -0.5261914314658099
Ni 8.536009032216874 2.4446187843274645 5.773576894796049 -0.07462395526347793 -0.4950481730937862 0.15211469055178964
Ni 3.821757915199936 2.489807742092706 11.298218159196779 0.1141019587534422 0.08076374961262865 0.06845742144144984
Ni 1.0018495767326077 3.5066811801083024 12.546619772948079 -0.2385973449260665 -0.8271575684370851 -0.20851543793902153
Ni 3.0938590590493362 8.411186386641557 7.832384004827883 0.0905488540238505 -0.6670084376165932 0.1622543500889528
Ni 5.5632076246593165 7.938602884673873 3.6084461712698586 -1.4450949595586402 -0.43087240974682567 0.037945883116154
Ni 2.9820378318919913 8.41267613250195 3.6995725712356533 0.5671719876432296 0.0981030122220246 -0.5011157194441046
Ni 3.5908924506530386 4.4228207116729905 9.506304888750087 -0.301829513412835 -0.4327156336031516 -0.126766184484672
Ni 7.173054087687898 6.148740949133129 11.289047644830715 0.538256333050144 -0.39792526539684375 0.4760279232375414
Ni 0.6038535870515239 8.858958848461612 0.2889827077515086 0.7947357004629539 0.8358229574215669 0.1632689073963962
Ni 4.757309286763679 0.4397675607302122 1.5482775238092537 -0.24400128955045716 -2.586945270524474 -0.09564555182046754
Ni 5.955480281607656 5.747466615682903 0.38307686204646135 0.29052514414360936 -0.4690142109238697 0.1498922289791741
Ni 7.842202784362289 8.871553972554022 11.50162896185106 0.9769500386136012 -0.9698921033255555 -0.6639976758147274
Ni 9.29565301833802 4.81052481464946 5.821875358466255 -0.9571959959151257 0.6976937825155919 0.8342232170346149
Ni 7.653357181841252 8.628535793291437 2.740398344707479 -0.24096635937887534 1.0003241945631673 -0.48515765345295153
P 8.483290086284558 1.6450315516222163 3.3594184474940785 -0.551073025198838 -0.01836564699138127 1.2071612163585017
P 1.976540634992119 3.2850882549470004 1.2874627502107918 -0.016357101201784734 1.0941496624557607 0.87635434187671
P 4.594394290976264 0.9526518482884917 8.155755464294927 0.032156015907254296 0.9869961099956938 0.7949349609579536
P 8.685398941344483 1.5452546940270753 12.517375610270433 -0.3842086871416996 1.3246701439109638 -0.18948361811855108
P 6.233683549463875 7.569967528710429 1.4010418774834004 -0.12096449020123036 1.5599983311674552 0.18338264742713578
P 1.77918993792266 3.2376962790609363 6.019273907978503 -0.71514514522282 -0.8679434921051954 -0.5136624457608637
P 6.684868883618648 3.9787681001225224 6.113387925551594 1.5931138827745013 -0.13367808111315688 -0.05418008558682927
P 2.454216359173509 8.335904562496387 10.255461966890351 0.4673797606442402 0.602607188522388 -0.17185844883762016
