# total energy = -340868.4895667846 ev
CRYSTAL
PRIMVEC
9.32479200410762 0.00000000000000 0.00000000000000
0.00000000000000 9.32479200410762 0.00000000000000
0.00000000000000 0.00000000000000 13.64777566242866
PRIMCOORD
 96 1
Ni 6.695461699261987 8.199550637424508 11.52718376301073 -1.2726983788293629 0.1924630124618492 1.5018967990390328
Ni 2.346742410418767 2.1714456469437686 5.416720345253865 2.4205427025951023 -1.0173495254765705 0.8559426109895775
Ni 8.868846902927006 5.833449958960945 10.94924155155835 2.0008494493935474 -0.7780160737154278 -0.15055300249162457
Ni 5.035294393790326 1.9013810230934096 6.534090580053895 0.3666344257033621 1.8974661626091902 0.4016803615639018
Ni 7.164377511000231 6.141112143869404 12.605604341922943 -0.8722734869391171 -1.2188754194716362 -0.07828494905483292
Ni 8.355796850988371 7.428959157196283 3.7877491311809814 -0.6602428367579855 1.803546078120262 2.1226212659874215
Ni 9.041178382568555 8.75576515120291 11.690084148095194 -0.7357227122638555 -0.12302625782626556 0.08856293394207329
Ni 7.571441977872809 2.9652185599077154 4.230278579197473 -0.5107668693806235 -1.6870416805729138 -1.39415189285187
Ni 7.177124501567299 0.4295754470685978 3.9938717918151716 -1.1342177341212403 0.31519745007930877 -1.6318429239135832
Ni 0.46616033572319693 6.891189081853625 2.240063993312377 0.5963236695065214 1.129120779214307 -2.4631098865333514
Ni 5.656521356898357 6.233623404597924 6.30644629964736 -0.025468576584749686 0.4719784357585162 -0.7682060296035415
Ni 4.933066699871692 4.522915726870585 7.757764375324764 -1.4480882378590092 -0.2910681611312729 0.8231258215698728
Ni 8.524659508032297 0.7322768426707786 0.06781641426270654 1.5688197861138273 1.3690291296423132 -0.3556406456960198
Ni 4.962700888622346 2.552214200576307 4.163280881666141 0.8108367197898746 -0.3336880526843285 -1.012305792405076
Ni 3.9241521875197374 1.0230135977487416 9.557591886956013 0.37785960499522026 -0.6714456474523404 -1.5988279024401433
Ni 6.453874989963074 1.546227672890087 10.640679524228736 0.23114448819244707 -0.0015496038753070084 -0.5023951003771605
Ni 2.7539187747944935 3.2468832249178647 7.679931269571828 1.3421608444965594 -0.5432159910482645 1.4304900651612718
Ni 4.631624151179938 3.627465282711821 10.174293528540856 -0.47645446925199875 0.7940245333285422 1.8461181471545172
Ni 4.60480604959187 9.130481914873467 7.116960011561606 -0.4730019919270241 -1.4435219586445656 0.7323113725894614
Ni 1.3634151271202408 3.9460747733450323 12.728707447533235 -0.8083967428898141 -0.40242521014972626 0.4046916375863998
Ni 8.373224887103845 6.416007009939032 6.456244419592257 -0.1975558536037243 -0.803087671972075 -0.36500254652689396
Ni 2.24710700865642 8.307867420472839 3.6946168393099836 -0.10293797171682272 0.14295950641508284 -0.9624924684273747
Ni 9.277216840669656 1.6148021927366287 2.197537347240561 -0.1652273166743477 0.6717156132842754 0.971388485365424
Ni 3.054177074911252 7.512406720169727 5.766908243754947 -0.048215126252646 -0.3621277960822602 1.2070550297979405
P 8.093863445700181 8.933262565573173 2.214337824859206 0.09190742493427398 -0.29011968117507453 -1.7264512927187878
P 2.350155284264815 0.7681260052421723 7.5317435411930855 0.3718609642096241 1.3580600322253191 -0.16929017388981168
P 0.1215281482534687 6.156208982002603 13.05711356456715 -0.2745328824804111 -0.06019312455012859 1.5754810001840867
P 0.7134845894960796 7.612004822764358 5.680381634486517 0.23228734354763866 0.44354563433912003 -0.16295883235514516
P 2.5653714819882554 4.224895376816809 3.8128197667615376 -0.19305847995400297 0.6963822627930201 0.03718483658041338
P 0.9509516057207195 7.7239023259134605 9.96257599274921 -0.02539838546844658 -0.1755487532050138 0.15870211396132022
P 5.19625895207031 8.475620427277203 3.9536101377029316 1.2238664449283245 -1.5880994602790457 0.5269334518381571
P 1.3375295047250817 0.9962141457445314 3.811223362383277 0.9215846744694192 -0.12122725694431379 -0.5783501157472362
Ni 1.9806137801149035 0.5304146794689903 1.732803704682515 -0.039337107036725806 -0.40334489375051824 -0.8295229833454683
Ni 4.983103533363199 4.247974236841311 2.2384675889341166 0.21330720290071004 0.05488791028713128 0.5076116115810935
Ni 7.941002131606577 7.915358953801575 0.1733973033590423 1.060765173458044 -1.03940650527661 0.3046811239290172
Ni 7.587172901857186 2.926707169240566 8.668152203674742 0.6620243541384406 1.2712855576422364 0.17030961629326152
Ni 6.955884488257665 0.7475853535807687 7.836498255978052 -0.30110394810072016 -0.37289017680508685 -0.9835721719158094
Ni 7.246249184137657 5.287427442761042 1.2257131272657622 -0.68496527920533 0.6892865322885032 0.7126961694616951
Ni 3.37733706400586 7.400639764107632 10.288676088739061 -0.21608990785216978 1.8461510572749817 0.8997074147803538
Ni 9.322498030277327 0.4405106305638439 5.284582448743476 0.18664614866975598 -0.7430434142949849 -0.1474640791536557
Ni 1.7813056774224936 6.869844633127934 11.894296158863114 0.01395903328325338 -0.7533113718798962 -0.5944017698934603
Ni 6.114461888536059 6.59982663323722 3.3152898985096826 0.26990566812104483 -0.989669800173115 0.5650621403890784
Ni 5.5724117336979475 8.733450924116593 9.407643637861058 0.6177982944405295 -1.294032364420449 -0.10150458170440584
Ni 6.8972874957752515 3.9013157720853915 6.391853933884298 0.6043018026159914 -0.599522121839161 1.3522339124618454
Ni 1.5774097771009703 1.6990237134401867 9.569383086350351 -1.4805227042386309 0.19253603179162967 -0.5462601771912269
Ni 3.5178989775449914 4.8199103498121625 11.999656982869922 -0.842415265927104 0.3254124429390976 -0.6569052877443202
Ni 0.5856323673563009 4.266148256311111 9.18581243274312 -0.15844757474835292 -1.493259692189325 0.83448521244675
Ni 7.0811444182411565 8.454089482712929 5.877223329713682 -0.47026248150867395 -0.024218506227732483 0.3789001304445926
Ni 0.6997463735469486 2.442013809558299 7.0122957495119 -1.716600110956321 -0.85006892581762 0.5937273695342549
Ni 1.0117585738903276 4.705541776801851 2.1158279254827 0.18430773034456643 -1.6690305887074737 0.7956188743988556
Ni 8.776969728049664 3.5847577356765803 0.36949208275268713 -0.5635328482287456 -0.9341663677891717 -0.9563256774950304
Ni 1.155201848135548 8.23669128367808 0.12731884404143476 0.006226183415369922 -0.085167277996963 -0.32374739653184886
Ni 4.044031712560143 4.2205686733617105 5.482543119002131 1.7589217545426672 -0.10060109605352999 0.38155685134114936
Ni 2.8456840521686866 2.2594903323382542 2.9386662148896265 1.0065298091532473 1.4209921529731655 0.858402899604612
Ni 4.168004821257419 7.371956704133744 12.633991805992677 -0.6017355845507121 -0.9420159457405777 1.34361788865806
Ni 2.9612648481297805 3.118126497960964 0.7736108478548641 0.5504042812665876 0.5475606411702054 -0.5729425715784197
P 5.431476828481653 2.553640893741458 8.727806627561915 0.5560630222142616 -1.955240650415497 -2.7154608336000847
P 8.279296258002102 3.738299759581007 2.445831379374069 0.8440849403200431 0.5161494738487755 -1.2866759240553776
P 1.9774433508590121 3.6219450058897986 10.758213864098973 -0.3341786191675019 -0.8690020152766968 -0.6613319560571062
P 4.673147449640185 9.02663170715917 11.568864650454579 -0.42486322743826826 2.3831694041529667 -1.7483300950697505
P 6.872921814464535 7.468496274975633 7.813788657713942 -0.857680933836923 0.7400797036809706 0.5830068977929572
P 3.1097714843924975 6.058708957592019 7.549758106720898 0.5532276096479956 -1.0955691685111069 -0.6983928654651456
P 7.657407234667106 1.6232038302647407 5.733580504921179 -1.4659604901537397 -1.0016575686626104 3.712008077619324
P 5.0466240159841735 5.45748367317189 13.268777016565606 1.6852159402180846 -0.5731901688128516 0.8204906979398707
Ni 2.555692347965858 8.076426084792779 8.280364879157176 -0.4083194641469742 0.27417215670688266 -0.43438350822387767
Ni 4.433994511034765 0.3816292319275931 2.335544267791121 -0.7098324747606549 -1.1708446413156546 0.20400623721475833
Ni 2.4311504269609068 5.568989535059971 0.40984511982583227 0.018788336351096675 1.5222987597341524 0.32396465474897757
Ni 8.426786491944547 5.184770808413669 4.157795106574256 -0.403516386331376 -0.2419528916618607 -0.6260001135250315
Ni 1.894200933308009 4.496181548409879 5.981751449801223 -1.7960001474522036 1.7138803980323127 0.9634646025326569
Ni 3.756884069895687 0.9310235928890571 13.40040950935344 -0.2074427737001331 -1.0705477067661047 0.8999791803845016
Ni 0.5455590740410284 3.0653108764745878 4.4841134026952485 -0.4239985654451278 0.46081727693537405 -1.2964193765953864
Ni 3.876101534709127 6.100857017111514 4.056733011646759 -0.04164801455808956 0.2835353430893375 -0.9287271990514715
Ni 0.7310720795535398 6.31386323914776 8.180162530045541 0.6915118220745962 0.7284387770079326 0.06395876224014792
Ni 3.9335888769519785 0.443661477756684 4.913894927665479 -0.5419019002225312 -0.10592302248707564 -0.02886526097112448
Ni 3.1675945191447967 1.9579731853110682 11.386502492134907 -0.11030778181833262 1.3316496605525905 1.7761473743923346
Ni 7.968575541340902 7.589578698174892 9.89923641109166 0.19015159071985313 0.48689314808681955 -3.457613360649684
Ni 5.022817822189202 6.0453372059657005 9.956926101319374 1.8398495405369861 -0.6696183644356144 -0.12259456960548565
Ni 6.961749782381064 1.8540483792613394 1.6572766199736422 0.3673185962545803 0.2361547969228449 0.17085854681819604
Ni 5.998694596736383 8.13237483636733 1.3329538293254761 0.7051546096690114 1.0182452978179624 0.5857178689662171
Ni 7.021475074686898 5.335655266618304 8.51106675883726 1.0861028808918842 0.9220526152447733 -0.18675799165727194
Ni 0.18855661759816697 8.934250993517658 7.474203980115431 0.23248686115295444 -0.257967264812246 1.076190506874179
Ni 2.8529573898733784 5.152842720848458 9.5998593038122 -0.37713481101405366 0.7903249729897679 -1.0978337961755673
Ni 1.87108477411579 9.286672179685755 11.29126839216309 1.1693508303789475 -0.14138676261132424 0.16175221364155368
Ni 5.2455404774155605 3.2588189585871024 12.751894475144114 0.39730845774845125 -0.7472520530596937 0.37122358773594133
Ni 6.137988338573158 0.7033970295871881 13.033775475327017 -0.9303595924485718 -1.3660160538476023 0.9051635527989186
Ni 1.3618019381165078 6.104624233050867 4.22978716266281 0.18106634058913335 -0.1200355506290578 0.30610140131531155
Ni 4.517973587148167 6.462388524994336 1.4066075633357944 -0.7925350932672093 -0.30452737195997237 0.6194648835096751
Ni 8.69486493511401 3.301899497299507 11.28422630929824 -0.2992537822658588 -0.1283713241882628 -0.6813338531003298
P 4.928422953491005 2.183642474787021 1.5248254104544354 -1.487528960353135 1.6923612930136143 -1.0982215185322892
P 1.558303278438261 1.675804981536748 13.521301706797345 -0.6195692702980232 -0.1493137307678848 -0.6957675120271565
P 2.9634934734008334 7.98111738648553 1.3729795662019102 -0.08968444914102619 -0.8447544555832419 0.1864096071789177
P 6.895581058852228 5.138137523976281 10.658025502175233 -0.3773181306694534 -0.5401646058164503 -0.05294055675277334
P 8.409022763319628 1.1412985833692721 9.37192781981425 1.8177118280976823 -1.081665413945821 1.280248680372795
P 7.327729216014062 2.2639289332965022 12.591615289070917 1.122640313696286 1.9275069319456546 0.11058288985659019
P 6.294337124848242 4.497925284500619 4.524469237205972 -3.3996846066537 3.157177385150266 -1.1421621857792974
P 8.946279975106187 4.326227890710251 7.325470751408837 -0.5518189022259271 0.8218693234549523 -0.9112151583096372
