# total energy = -340891.18990008696 ev
CRYSTAL
PRIMVEC
9.10173565446478 0.00000000000000 0.00000000000000

0.00000000000000 9.10173565446478 0.00000000000000

0.00000000000000 0.00000000000000 13.32131014784646

PRIMCOORD
 96 1
Ni 6.554396593351735 2.015406459511902 11.527742493469843 -0.142961820407928 0.392931154616362 0.19576713713441768
Ni 4.750805729333512 0.5084821229652654 6.0037151825321 -0.2925894828718058 -0.08909386674487882 -0.41963488915979347
Ni 2.4976619307749055 1.3678270592119788 4.857575461460434 -0.08050921039966136 0.1170103906494888 -0.27161005240666125
Ni 3.2950559023117645 4.635231888169077 4.859440407125467 1.3490737695663089 -0.5191576645474801 -0.0014557586099200734
Ni 5.099666160739376 4.495929821778962 3.028666298972601 0.6320638032206082 -0.2938593507231649 -1.3830740377711535
Ni 7.569203727898113 6.252810577681269 2.7440167932752635 -0.4309855382859223 0.06477097372879813 -0.06179826425371938
Ni 5.334245197464135 4.349482892787328 11.73455577496888 0.6250650033052719 1.2236260467827442 -0.23570202565614243
Ni 6.1394211531083815 8.02661146043227 12.146557678126992 -2.322263055585897 0.22734054106532461 1.0864818614978577
Ni 2.0213225877806753 6.505219914834532 0.4375268110303381 0.2015166380236852 0.21791050600067632 -0.22445422065646506
Ni 2.843928367478307 1.7836762660919518 0.26987465797626103 0.20517248960871762 -0.5513159944475796 0.44537240313521365
Ni 0.2636954895429223 8.894871546893233 4.348461678030779 1.5873669529883951 -0.3979396635745469 0.7390816014337594
Ni 8.504270555117225 2.3595977004533335 1.3533789638060547 0.35981997388469 0.6665602943355812 0.28769693066619484
Ni 7.102466716170891 0.4419193087265073 4.892118369161432 -0.4383026407726258 0.07653994133926818 0.11511651606088562
Ni 0.7793060919852696 7.376119504676949 2.408786211227074 -0.09021409639225109 0.14569053219300068 0.06369908082085804
Ni 7.669595873751296 4.104700810232884 3.837189873043392 0.4809173901193588 -1.4673753682233956 -1.0158996804039215
Ni 7.673737163539438 3.936901209058877 12.873327640911974 0.056741161445786156 -0.260116707055081 -0.8292306489160299
Ni 7.781310578937332 8.547139730726336 7.300144585449362 0.0280929015814742 0.6603143134258692 -0.14696502803005013
Ni 6.884516550749284 0.5755591852766169 0.303180639782295 -0.40325824757398293 0.3525200977891671 0.06810569452898593
Ni 1.8478526052044448 6.412664363503524 9.37870889983795 1.5149158370065199 0.44433599145089925 0.01458046891733618
Ni 9.051994811976053 4.963668024443975 1.2867023778698201 0.6401023572543686 -0.3312339347168812 0.8519990529607971
Ni 6.451637996191042 1.9895029194304732 6.96811144318705 0.038104520181205345 -0.4643880250057679 0.43501985625629597
Ni 3.35425359194269 4.309498967426218 0.22838621568772374 0.2266211464007968 -0.11127580215855674 0.6797217714182036
Ni 6.212053004777321 5.608198343251531 4.786000321317655 -1.6156714563600432 1.4625190685723588 1.4027262647844423
Ni 5.457528208849572 2.9203829481824535 9.196073469313019 -0.16614700027513965 0.5909150968964404 0.48175659819120253
P 0.3444934185699287 5.708153605786404 12.568203780536782 -0.7355208806656945 -0.7607161489843995 -0.23019035180929387
P 4.097656066725144 6.142979931805443 12.619357356069335 0.15517276065182306 -0.1337575282008406 0.677975221040742
P 2.4354151596516127 8.565725475226083 1.3694972277309325 0.07974379298854653 -0.37387336665396254 0.7050635926171018
P 6.300467266320188 7.653067121541924 5.929661639731495 -0.5863519030057902 0.45241491180429183 -1.270131132322819
P 4.866006399330225 1.0292788944653775 12.659108276994013 0.0681126365075214 0.038736497338249416 -0.1396353271378563
P 3.9952524372605778 6.072268546389906 8.478468044303156 -0.12696415942809103 0.3688861978520163 -0.45768387351271494
P 4.443349094073264 1.2751713887871912 3.8386953001444004 0.7188932994113425 -2.778580387768389 -0.05103459797931211
P 0.35083368772689405 5.704221655921621 3.770956541640526 -0.14310297397148258 -0.5800161905957495 -1.3572815021880817
Ni 1.4507711775401804 1.1652406238175854 2.444566954996615 0.04960377907005651 -0.4967047348606026 -0.09651072803424025
Ni 1.8869263569857426 6.729122615468105 4.903854147299518 -1.0643708885314314 -1.2037038539375204 -0.37089834318603865
Ni 6.15827994968207 5.803912968118349 9.384503064847028 -1.2559383857622046 -0.6967157348730388 0.5604974038365316
Ni 8.70129582993897 2.4334218795118256 10.147947561856926 0.4097852500592233 -1.039698325485416 0.46501511706680554
Ni 2.509093710937335 5.207103050100299 6.90464868016113 -0.6178623149092456 0.14680613385468264 1.8894774879767586
Ni 0.45197308608910264 9.16380963625587 8.933603983582103 0.31173365990042445 -0.5677348021252351 1.1968775750443064
Ni 1.5668911228525026 0.9475271035267288 11.613931380610072 -0.7285989567348806 1.546557375171201 -1.2317821002309752
Ni 4.284496499188802 6.845779563192517 1.5345481046939091 -0.6425402772718999 1.066789268164937 -0.9408980300860506
Ni 5.3262720769049885 7.936012782297855 7.845478726487607 0.1528042604196465 -0.19713059314084758 1.7341864565795166
Ni 5.318544703212391 2.8603570005939005 4.887961606422433 -0.4083194641469742 0.9881955296204337 0.779270257837503
Ni 0.8623703532260061 7.273934316871538 7.243222329767966 -0.48953778479851817 0.17309643500977928 -0.4431993067432948
Ni 5.036126943132751 4.520750255300415 7.212437528778009 0.7028830400260152 0.3880506865956091 -0.26460919560879587
Ni 8.360681571166198 7.05506487613432 9.25031799432261 0.7089498150453855 0.0056044906709709925 0.6003073367446178
Ni 4.6415575945487655 0.4065381311585036 10.48436410007961 -0.3273163448300298 0.6833323715875973 -0.013266635201919088
Ni 8.21189549607445 6.923790540718141 5.1737834156905675 0.6046478731015006 0.9976844429474753 0.17696568815719846
Ni 7.137927078840339 6.156395890371861 7.343838378321783 0.6383244394183394 -1.231489508691221 -1.3496715510513078
Ni 2.7387942172743065 4.959153563488111 2.636007404732639 -1.9159323397341776 0.9790917675469526 -1.0798584426440692
Ni 2.291880786115375 5.201250633982112 11.530247291161485 0.002592186207208439 0.382486048023638 -0.20136468582685318
Ni 0.9563193803077056 3.1663846633338446 3.7150336565497617 0.46314463951697005 1.7218125083951958 -0.16206460267564993
Ni 3.4525432368265094 2.682418065740796 2.7134577153331 0.19517064120099936 0.43719243842758254 -0.7084883020279347
Ni 1.3653513870748921 3.2737851457515754 8.435160165028575 -1.2081004403433195 1.6404700034609618 -1.2731856028784265
Ni 3.5545554916517568 2.6958431260430125 7.259594532121611 -0.05980977306878086 0.019940447677668886 -0.45921162301115104
Ni 4.030330527026504 7.22227286448145 5.734451251027892 0.857625140898323 -0.45221076621328565 0.30218663964193765
Ni 0.8408392870219906 7.565180760675347 11.488897195257078 0.07716394807651226 -0.3954778322976157 0.011026947238122944
P 0.3013257060266396 5.380218064980403 8.178711477528111 -0.1085226648934518 -0.202863896080199 -1.3616235812068616
P 8.496461265802445 1.509122405741881 7.798441866056541 -0.6742291237347485 0.6218177000125678 0.5275296906612592
P 1.7206012370110304 3.1581931011155437 10.486042460160782 0.7776391499919834 -0.2444959697986886 1.295228184500763
P 4.14928111217204 6.438931973016876 3.571869723660507 -0.5622737790106639 -1.2073692186042495 2.255599749930393
P 7.1603901627900814 4.012363700561029 10.45977303030027 -1.3191594985053798 0.150483839816586 0.296786808782605
P 6.582320718780345 7.8920513983929705 10.068645958195129 -1.4602456991571497 -0.2475663811938962 -0.6835354887373388
P 2.135294523444643 8.569666526826666 5.954465690128512 0.0016712170548358314 0.47591093804370294 -0.6283920107959757
P 6.715096840603214 3.7966252569383636 1.583984182681358 1.4423881021504386 1.2576875072428277 1.041393968020284
Ni 5.228592248319643 2.840287673159062 0.5328884275079048 -0.7904100765044065 -0.43670624281978343 -0.526739590659796
Ni 1.45882621372151 1.3260591936344392 7.110436196035719 -0.17526618896758847 -0.4875564927024313 -1.4965735870539065
Ni 6.73450174132479 0.9393264395726292 9.39737200909198 0.8393602811508641 -1.0400917042690927 -1.7688256439199406
Ni 2.507555517587454 1.368263942530288 9.232107241337749 1.2744426152139794 0.3764257007621711 1.7416172018259488
Ni 6.278249929236995 1.8852061289198994 2.7373297479843903 0.5949866958626527 -0.013311886617557719 -0.15201133220470595
Ni 4.207222762262825 7.208802295500242 10.753774569530167 0.4535425976508318 -1.9474350383281491 -1.2339076312144104
Ni 8.32517569981776 7.374654125213453 0.20812939249544402 -0.7877731531021916 -0.2302667135731841 0.779606043910367
Ni 7.739633730717774 3.7065817846876343 8.20891103690625 0.3856253649835681 0.641632934966282 -0.408091150186252
Ni 3.2495836302643935 8.537646620288905 12.66327778216313 0.6519266035828063 -0.5187198056791131 -0.18310111163097498
Ni 0.0786499193786518 4.890526475570341 10.297346183767889 0.04342490395285425 -0.25959503022365615 0.8761026308772203
Ni 8.609777876488948 2.4100577237180705 5.680686387494861 0.5261034997376939 -0.25555916959138564 0.30418875767363096
Ni 3.722018328601233 2.8018328394120355 11.434573485146043 -0.6410816904485024 -1.86837413033924 0.6071454427123737
Ni 1.1587692896651274 3.342029960765825 12.71825499690447 -1.2773721301559486 0.09439085347776002 -0.5692661511680971
Ni 2.9383770798553224 8.540723006988667 7.967182586712071 0.4056414030941788 -0.9340342130866817 0.29271161027196685
Ni 5.444667456166839 8.203958782458496 3.56245124745662 0.5584250946885351 0.3647888878541911 0.2753258106953516
Ni 2.9017972036827073 8.382789687419814 3.6077706103425826 0.4963213833792549 0.6106567982997418 -0.9065136390689098
Ni 3.5234821656370006 4.1913584367667145 9.62046374506594 -0.1805706318996374 1.235010377360286 -1.261345415710389
Ni 7.304224893607657 6.176146657053765 11.694605526030223 1.4093203730621922 -1.5702344070731666 -1.6507847551234085
Ni 0.6794782537515691 0.046950393940984755 0.27944240264723713 -0.20892012957660794 0.25958705980385616 0.5116011923564608
Ni 4.4567923578470765 0.38952061573677227 1.5089849695313293 0.40465487081119345 -0.13362485927771825 0.4073267612164017
Ni 6.112962407143266 5.793891957004627 0.4283213154441268 0.2106150007805276 -0.7878446297700754 0.17236109950565154
Ni 8.03625019864247 8.961168590446686 11.145234765165517 1.7352030707694892 1.0991368312577072 0.6424338336010226
Ni 9.276398108078524 4.833768051133311 5.747505870683125 0.0525507775135224 -0.4025434808951454 1.3049562104218042
Ni 8.040609930089765 9.180192760692472 2.2241529496944583 0.10109294808828398 -1.6002594926803473 0.5328729572510437
P 8.595961441547413 1.6309946480786106 3.5479048533040762 -1.4929138788141323 -0.017106063552667312 0.7093611915511913
P 1.6384944783762556 3.211793223230629 1.53208426481336 0.3529363593909792 0.5490233417586609 -0.08686292053183105
P 4.663720321217171 1.0515053332843687 8.248848543414788 0.11367875517309455 0.022960979671547553 -0.22007383220058227
P 8.586359110280403 1.6293654373707485 12.522844370013308 -0.0992137287877001 0.19324308516098332 -0.39776688544210853
P 6.437220846686832 7.6214932000582705 1.6040325761238612 -0.039022404009784406 1.7732798230365525 -1.0507561259614744
P 1.8146130660697368 3.2404090805798957 5.778384419551803 0.20197120906260058 0.07095679082453585 1.2551104905442707
P 6.942467302575867 3.88451161780494 5.9677869906426295 0.07043382844153032 0.9898040117581339 0.624855201287311
P 2.5417416372451656 8.500010942763708 10.452032914177552 -1.135736998979244 0.3321944988579376 -1.143126863685412
