# total energy = -340897.7347119289 ev
CRYSTAL
PRIMVEC
9.02719396122490 0.00000000000000 0.00000000000000

0.00000000000000 9.02719396122490 0.00000000000000

0.00000000000000 0.00000000000000 13.21221084500582

PRIMCOORD
 96 1
Ni 6.506638787017194 1.9617085074897729 11.363478471464239 -0.6248397746683432 0.21445982844791453 1.024384835056797
Ni 4.669207656294413 0.33814333276320185 6.066545035862667 -0.6610769026235066 -0.3576121676000938 -0.5637326229443775
Ni 2.7415768053235183 1.4902091491751992 4.834017133132865 0.32805193744447375 0.6633808681663349 0.3962555910039046
Ni 3.488947205549856 4.582663949527132 5.001310893699527 -0.6013234367139579 0.13995491526080414 -0.42628684725867233
Ni 5.207553384548667 4.516891815647252 2.7511393116944975 -0.8232903721721949 0.39425810095790165 -0.17150595059420787
Ni 7.287861163917914 6.170556362593929 2.5351989065676808 0.5457130464385054 -0.9627009848937551 0.6056842847858149
Ni 4.8706314311038765 4.434184666236403 11.525763944921847 1.7636736674053561 1.0873169558046434 -0.8264566857153186
Ni 5.774063957396006 7.896456514166846 12.311639840216074 -0.6118071098541011 -0.19083756104328423 0.5124468281862078
Ni 1.898969510719918 6.56987427944494 0.33693910511297187 0.31433741607185867 0.17997130775274164 0.18225496158059576
Ni 2.799251546382885 1.6195507816526784 0.39477182206348616 -0.39843640070530734 -0.6966270318139745 0.5393937890886968
Ni 0.6708640302228567 -0.0800802360209183 4.5771853456221505 -0.7334200322726079 -0.11305577687711496 0.8829451077203503
Ni 8.635151781170762 2.431763514799573 1.3724448927203585 -0.0065390866700984155 0.5302949121112223 0.9019504451782595
Ni 6.783403521113162 0.7729065259907361 4.89739615794171 -0.30773610870525714 0.1904750354975429 -0.21620689304600826
Ni 0.704596847939345 7.4444739488042755 2.539585220025303 0.30301016398449754 -0.5571143462969115 -0.28465814383987104
Ni 7.550480285360881 3.8988811022859537 3.6949270050600025 0.5150405570553129 -0.01738759934882812 0.8031815172374619
Ni 7.657226851807432 4.063203110660294 12.492171077741485 0.19301502831057726 -1.3632271782485557 0.38968359421334176
Ni 8.067566972263622 8.818918364946867 6.715793450579708 -0.6088439134607192 0.4782228740063313 0.5663780309870245
Ni 7.005869684623422 0.7147578572579274 0.375224336652631 -1.6577012797375836 -0.4561520102492208 0.2531862984838349
Ni 1.78490189011792 6.413992697254745 9.251150333038536 -0.1709845308730991 -0.004696377034404815 -0.5630775058588818
Ni 0.2438064496057898 4.9098184793021415 1.3201124449398978 -0.3759387338234235 -0.5168806955878453 0.6663206675209492
Ni 6.262254597009496 1.9952174508005212 7.125556733353367 0.35098334942966647 0.4168030761379531 -0.772201781026496
Ni 3.3141085164220074 4.244884412673258 0.2545063823930285 -0.49263724965944833 0.2826177163710745 0.9521913436116828
Ni 5.972698329327501 5.683864237147892 4.816155024800705 -0.22164580467339248 -0.1076078663886663 0.05721912952346919
Ni 5.340361459437601 2.6133996808436377 9.34408529300194 0.22451258469822621 0.35756460219161 0.0811797541041247
P 0.2447200016163091 5.509684533165971 12.406794587129937 0.8479030285145527 0.6212129765490334 -0.8487754038171768
P 4.019069160270679 6.145144812103693 12.54118873996599 -0.05607190329290343 0.7150266173670846 0.13685082241418367
P 2.253160485865533 8.547091505848469 1.414341001771952 1.3012286250585718 -0.5433836269743803 -0.8382151118028274
P 6.364812545542203 7.7154341972998095 5.696589872219326 0.010484444471091621 -0.04015600339359535 0.9957458311638658
P 4.722702806633716 1.0014317419660208 12.607488061962613 1.1852261068483072 0.0525705750078643 0.6395860797395824
P 3.8042400026981613 6.158477977316509 8.215946956422775 0.49585909903085573 -0.7737480424676934 0.264519464108467
P 4.776595153499333 1.103321678159021 3.800955006881679 -0.10576798496645012 -0.3133719668347958 0.04284383463840363
P 0.36551468702304024 5.487522772436476 3.503944082576296 -0.5036091752899197 -0.10631074484379756 0.034368964398173066
Ni 1.5073337357755465 1.049248787417808 2.709691854173762 -0.5140954195332244 1.3543201055669127 -0.855147625892108
Ni 1.8631766873828712 6.6294898671669715 4.64693305564267 0.7548239518696807 -0.5432576429194773 0.09983979240747322
Ni 5.8166181488741495 5.68066861054983 9.265525236413545 -0.02617100196841299 -1.4281747867645338 -0.5646469072285308
Ni 8.556867956712031 2.2519147331239155 10.177576927326662 0.8497783911603947 0.3288289248198143 -0.48102049135612646
Ni 2.2382114529661257 5.243806594768484 7.032133402206474 0.22822551477343922 -0.5286902866282637 -0.436699557951564
Ni 0.5257708473189431 9.011703115309029 8.935483810067746 0.5657054304000322 0.6082065369870365 0.310825032043226
Ni 1.3671504435684854 0.9366345450143636 11.619505033289789 -0.04375580492971174 0.9938295879777594 -0.7624331316755062
Ni 4.094030977418432 6.92813651898526 1.4978687230973895 0.27757886839558643 0.09372905152404502 -0.1094246078824309
Ni 5.475074272214083 7.71758266941941 7.811376115511277 0.3969397615551229 0.5531286221762861 1.0107451327861756
Ni 5.184642366735444 3.0444391566369897 4.790694727464057 0.49400121988651047 -0.9394358437182272 0.25918725326227615
Ni 0.8310976225343099 7.405115383924194 6.746299949239283 -0.23796896731344822 -0.31122021059911564 0.6627476054577102
Ni 4.858164876493924 4.47489731018346 7.054673402355345 0.8695794850467218 0.8413698553817253 0.4360066456495975
Ni 8.271455170974981 7.175969097016856 9.176659735406092 0.12754445741159326 -0.7586942334583644 -0.6893166141954904
Ni 4.682387359212972 0.3486645271135998 10.575053296646587 0.37901043077021174 -0.34195903444386916 -1.6692015670676996
Ni 8.245790859058909 6.940521828851194 4.764429204442249 -0.3290173866815365 0.9133633150008915 -0.13821813507535552
Ni 7.201461892251111 6.073947334762131 7.057104425640254 0.09738156067496777 0.16405592207406586 -0.5078481530719318
Ni 2.5286523856385443 5.032073764662449 2.6436841105362285 -0.555457784530095 0.26331361672582393 -0.2777431618875926
Ni 2.343775457027519 5.182403622678046 11.37441852760602 -0.4810644572201844 -0.016416750795126566 -0.12531479675012613
Ni 0.9770854003418052 3.2731792198242347 3.7848360496684053 -0.08643766006895437 0.2191991429051128 0.14312997055467608
Ni 3.5739111534056653 2.6937236510966116 2.8523576246702778 0.16254951273186843 0.18732389146307094 -0.6778374099112972
Ni 1.095928406453336 3.3435732769193898 8.227269765580822 -0.41734635023593286 -0.17488643703066653 -0.2825115298105135
Ni 3.541007032078166 2.6336837852669275 7.264509619048237 -0.2260022818698753 -0.677173293964737 -1.1272374461486652
Ni 4.014365992311386 6.8959636003539275 6.100302227002361 -0.1451598565005113 -0.20601529722498713 -0.9777581363371934
Ni 0.836952660419911 7.4137453811777165 11.338362110210603 -0.7443531342453439 -0.5361218032056444 0.581104795674238
P 0.23668489643287777 5.6305947666530844 7.820359978760969 -0.7098291323265453 -0.700269256552252 1.75090891154052
P 8.485101766162341 1.6595954132600275 7.954160142246308 -0.20157423073449798 -0.2361188014785869 0.7163615341284244
P 1.8047617164335574 3.186364697243559 10.411895796269844 -0.6251166824788137 -0.32168717156871046 0.11574283679097486
P 3.9883857286130198 6.340439122336647 3.681899861716322 0.15062010828413416 -0.6596134307041027 0.37945985960280454
P 6.893535285227152 3.98782604259867 10.437976261819166 -0.4949435291951217 0.25747695543938887 -1.0244467986429842
P 6.3914969303553955 7.574573865559262 10.084312474790295 -1.8931585363727716 2.6765788118229064 -0.5367373253024563
P 2.438588073297128 8.47578570218155 5.807691156945269 0.6241633174266089 0.750857768133081 -0.15024524144321866
P 6.878947340078938 3.876502688905742 1.599298272407618 0.3883954715295376 0.266234904137677 -1.0465120059731394
Ni 5.209963645287883 2.9107103079825105 0.4168992794566183 0.6820604468537093 -0.5270123847052085 0.42221704806467286
Ni 1.5535710223158625 1.1225134921349507 6.953137332158514 -0.8865197124454861 0.3187162618658447 0.014756075263252006
Ni 6.8300109225984516 0.5449084981321938 9.022513179860383 0.1605185983447687 -0.6719575540917524 0.6842098890965442
Ni 2.7616713386774308 1.5021972625148203 9.248864647573482 -0.37314651579026703 -0.4827775832565492 0.6903082886847982
Ni 6.473012490187308 1.87530923582297 2.6044302611039933 -0.2727454515626851 0.4925647445503 -0.16418679122497531
Ni 3.9538837939864897 6.9319730763416905 10.270115593483132 0.49234157279590046 0.2907758267018347 0.7240151940189402
Ni 8.29835620843889 7.128386758603345 0.30015148502138733 -0.3546867664231827 0.18485486109728808 -0.09769986324633496
Ni 7.57405931551381 3.91494048002028 8.165740412777463 0.36915667790458356 -0.44777124238469335 0.4785257499587307
Ni 3.1960869849444418 8.379844686689463 12.2388273979073 -0.08930623986600103 -0.6780425839435678 1.5322630700357158
Ni 0.08800520944023563 4.742598741724473 10.150333759218498 -0.2501806788882917 0.12694564748532977 0.26505939577233706
Ni 8.527619848865365 2.4440675799214886 5.94941900200806 0.2751818289183196 0.2861534974384749 -0.7116137350307938
Ni 3.6980982582348587 2.5625133895067065 11.479257648006893 -1.0208799072273322 -0.6582391760643955 -0.45581031063908595
Ni 1.081511977986939 3.3427066663165252 12.61958991794386 0.01857570611965833 -0.06765009504880608 -0.24368967184730936
Ni 2.9154586119107035 8.3548032511442 8.088370140329252 0.8143223643456298 -0.3606108452171015 -0.3980916157713789
Ni 5.6490824595141875 7.953255617429568 3.6328957402824864 -0.42321052232619366 -0.07874183408659342 -0.6542058865352863
Ni 3.179142942219691 8.49723431460244 3.5710359921867876 0.26582687006598094 -0.7539040111585726 -0.35651893453591504
Ni 3.4627232076194345 3.9392416856755967 9.264203655244177 -0.19413088708257534 1.9834189126219262 -0.12129461984713949
Ni 7.318011991142564 6.222200938208366 11.230748933161186 1.091558761800133 -2.0583179759236616 1.8171806381845608
Ni 0.3442935598854036 9.256123414091848 0.5929810131679504 0.8241588908200774 -0.6125036217004934 -0.1676940330472854
Ni 4.685005245409124 0.3482077511083402 1.5607846528653289 -0.015463385742921757 -0.17008952986265546 -0.02567606460986546
Ni 6.106986863996329 5.522403849201759 0.320877921939889 -0.9608719021048161 1.0027880827226279 0.32053248913897703
Ni 7.937142076532563 8.903024729393593 11.275538257819218 0.16048106023861394 -0.15692188213244587 -0.01906601549251555
Ni 0.06136234971842995 4.910739253067684 5.727559465919806 -0.012091898167527561 -0.905586242158634 -0.21827714531147568
Ni 7.8258548316147545 8.836783181437161 2.584889997448162 0.3266874529967793 -0.06851218593878523 0.3533562205372172
P 8.425495205634089 1.61671624280581 3.771267274697935 0.43371733539478846 0.19424864360736224 -0.6001296735161729
P 1.7579557166851119 3.109931447509694 1.6595854833468695 0.5057187654337548 0.39724083773530944 -0.5984052346258985
P 4.699295293162604 0.825563952747271 8.210847494656544 -0.04834393852102641 0.5363583446964827 0.1901549331539628
P 8.500673675432557 1.761133288895614 12.474705263216261 -0.2060829172381289 -0.18134890482655863 -0.9545834979929432
P 6.382117676018146 7.634153344506173 1.343946041957419 -0.7347415792975087 0.9470059427560013 -0.6378636977318369
P 1.7910584362757678 3.2265537639513857 5.898446049610843 0.3567469913863211 -0.00128503736001069 0.5010473281000145
P 6.75062578049858 3.9235343684986836 6.0600978140651085 0.47654728607612123 0.7442441194713053 -0.44083517738649236
P 2.282038478767226 8.514079058195613 10.238406672612081 0.5365876870984695 0.08061308296737729 -0.571197563862855
