# total energy = -340871.3029995184 ev
CRYSTAL
PRIMVEC
9.14618452906660 0.00000000000000 0.00000000000000
0.00000000000000 9.14618452906660 0.00000000000000
0.00000000000000 0.00000000000000 13.38636556878952
PRIMCOORD
 96 1
Ni 7.953110521075603 6.870238853092247 11.356309763483226 -3.9228092262687277 -1.7827689934739104 0.9771454424538593
Ni 6.471565814005399 2.333017905510849 2.7890494118721323 1.3940205094803282 -0.23636665582333488 2.9765656156000477
Ni 3.748106435517917 5.4642507767292505 2.6254013045087734 1.1625664604672623 -0.686124589620754 -0.3462412067589908
Ni 1.1989276039528214 5.035102650665472 1.316755155872896 -0.9425008557967962 0.006899041112678441 0.3861372716229801
Ni 2.4995424879204986 0.6995761090088459 11.371208898142715 -0.2554064460636053 1.4440981428630095 0.9537219213235963
Ni 0.24823110761964487 3.122946428000785 6.51946804105611 -1.5286524698663222 0.15744972961145787 0.002550277225679479
Ni 7.329221833213271 1.6157832579586782 7.180031099794821 0.06544845941179696 0.48573538033329244 -0.5961521769256636
Ni 3.0603865255631506 3.9671301173416054 0.7533401257484872 2.540438642322502 0.7434565905730035 0.44547884680609084
Ni 5.894770830478064 1.7539729605800547 0.8812339684028984 -2.4580751523229214 0.5116729261346608 -3.271729286956933
Ni 5.3861606528970105 8.769325178010826 6.316102627210964 0.3796002418354108 -0.25500741085297374 -0.08967030807363911
Ni 5.594995485113166 4.737568120519466 0.7536794491959193 -0.21636964387611768 0.12997363567837616 0.5641889937555058
Ni 5.7521909592645715 7.003965217644974 10.20991509982734 -0.13760158453727916 1.3102511402721564 -0.35653256138266987
Ni 8.268013655714164 6.255807320072096 0.8703939104542019 -1.6944289741759204 0.11348052311935938 -0.8384501106317688
Ni 2.6405949463113174 6.365781043304568 9.741806971363914 -0.1824447089938987 -0.018084882526168855 -0.19034108102283995
Ni 7.386083662665723 3.1826893055918126 4.982592575829953 0.17135785505211776 -1.3430589308307967 0.25933997679005655
Ni 1.46964552094866 6.061551506055587 3.770524648509859 0.48438477984266903 1.0710087055629234 -1.4239489216086445
Ni 3.4221364175534013 1.7799938556729014 9.241196961423533 0.5162093805524336 -0.32690831075833376 -0.014765331234632638
Ni 8.895094361990346 8.30041858763471 12.969701294177659 0.8376718377048477 0.1438089988995717 0.9086718230624931
Ni 4.972204339398862 1.6307006849873011 11.253877069426167 0.6376970902469856 0.07045028350176255 -0.2858778751795851
Ni 1.3643089132916084 4.602680190526742 5.306168122674854 0.7085618355783474 -1.0371575613414332 1.3365049317623627
Ni 3.9560998187539176 4.5938815609733785 5.071505379860213 -0.07439769818528477 0.5180410344445336 -0.5221368017804621
Ni 1.0961976588973374 3.549085459342051 12.777499713214876 -0.49057471070346476 0.604676412346591 -1.4635192277020987
Ni 0.273115131970825 1.3999515945488397 11.000607328728613 -0.04593044398352735 -0.10032495957400786 -1.0389719888423525
Ni 6.000884863823303 4.2936397601955685 11.231977445099169 -0.631479648582364 -0.09279676951776275 0.3430162720637899
P 7.380760583247785 3.7866576034674244 7.139925995087396 -0.633730906510386 1.0794468090279474 0.8314027168666842
P 7.133758722833932 1.7502961943841588 10.451846315517303 -0.2503547425723108 -1.6633517931551418 1.2135606921269422
P 7.7894304020662615 0.8263586902383782 0.9801856246137933 1.7052000966494953 -0.03630809040241489 0.30776747616382477
P 1.5716346250542246 3.311302952971639 10.589404931403562 -1.5386049530933439 -1.7100319708205 0.6379881391248432
P 0.3117568471475444 0.48412126840316405 8.010401306584242 -1.1527600158998017 0.05744975747703654 0.5410012427851328
P 7.38890068751233 4.520776107730103 12.96415962094857 1.2834401907268993 1.173733275717359 -0.65981217697847
P 0.5127844962173895 7.732632595905777 10.954571837948007 4.129223301594031 5.002240351567391 1.0121913783143985
P 4.69880659032492 3.3491498647094944 3.3213710729428887 -1.4550343301595394 0.37988512006568126 0.0938681482050706
Ni 4.191120177385124 7.085329675552167 0.60748134736776 0.7186338751023688 -0.5454330533042412 1.4383039047787356
Ni 2.958004135521209 7.651387038397955 2.7031758849734553 1.1584719786829145 -0.5076342372889129 -0.08488137132542801
Ni 6.8638822548182485 5.221456161216174 9.031312147219097 -0.1922516677819915 -0.5279372105123231 -0.8500259883948263
Ni 8.12919286635767 3.8529217106546554 1.47729264586505 0.22226852585905593 -0.9696817870869622 0.783604880657115
Ni 4.604271626641384 8.503939486617494 12.226089050334533 -0.3599271888865156 1.1154142282614918 -0.7193645826208063
Ni 0.055013385551480526 1.9887372260433878 3.3060173729104245 0.6348393090832163 1.454402095892179 -1.3800074830306879
Ni 5.276607654154614 8.730124630957068 3.4383151034338004 0.3828992243016567 0.33360783426569646 -0.1896805646207056
Ni 3.327272191225456 8.642568206098082 5.118075922437983 -0.06338797733834245 -0.524745957268535 -0.845760271139937
Ni 7.863340719551425 2.4843872600931367 12.596596414047596 -0.9834042788793773 -0.25036811230874945 -0.315254014348857
Ni 4.833154895428196 6.7280614139997 4.621321029292552 -0.946106056649551 0.35555091419569085 -0.3470505900341636
Ni 2.7730316988401107 2.9190322430816247 6.13130305341818 -0.46284382044709965 -1.9138880556106395 -0.29642274057496687
Ni 8.376039241633887 5.408468197055693 5.511756059369757 -0.5044967201011956 -1.6505649258031188 -0.9552694683163742
Ni 3.106748535132795 0.8028731175074778 2.9611979831719726 1.0011155801162113 1.930679673246681 1.0555435200477885
Ni 1.8209230316098037 6.746536706824849 7.531476900251994 -1.7056376984075465 -1.0494502626658573 1.1367659544643907
Ni 1.0162691519671494 5.649826861591764 11.452236776457847 2.907516069100554 0.26937833486266505 1.5500286215492531
Ni 0.9692303247395538 4.378379160207949 8.938692394583871 0.6246963071119435 1.9068807710548707 -1.0951606202187785
Ni 1.1922325968498464 8.71005790201728 3.6788140266205835 -0.4192463954721231 0.4533533644581612 0.06896701408801671
Ni 6.745301971908317 0.2123103823515798 12.503762640693502 1.3370302081382135 0.17510832323348552 -2.3226209531459485
Ni 1.7705915779381223 9.110029699312626 1.2739473536259511 -0.7523927167203687 -1.4134295101345593 -0.8277185831468777
Ni 6.1938144810776095 4.800658501661982 3.770510929233009 0.5036798806268551 1.0764617582576945 -0.4593057253868541
Ni 4.108649031145336 5.989433840745537 7.209093101256163 0.3003588424045795 -0.5071601258659717 0.49311264663397014
Ni 8.430230385192802 6.3808082245479945 7.533243943110321 0.46641276874528065 -0.7187889126229943 0.976717610887821
Ni 3.5673046589993267 3.8512205203252106 10.832675148514117 0.8244401695059221 -0.3898229480046835 0.06311261218976871
Ni 1.5852350015052132 8.741566507850267 6.521168316767098 0.21684401240937493 1.057476218294127 1.1445512548367645
P 4.146130095500515 1.2590820598493595 7.120770226130469 -0.04493465572916132 0.36735047793378023 0.1608063047885166
P 6.825907296496456 0.8558405015713416 4.715762701893506 0.35789190362404166 -0.18583573695331865 0.4069071571804799
P 6.038493974762419 7.204211782552806 7.91735259789283 0.594001449131248 0.8953473380394451 -0.15783462375470236
P 4.001474040390336 9.001619973641095 10.140278794390293 1.234786691385254 -0.7835372606439731 0.22532428196624416
P 0.8196636831354033 6.976389471175754 1.9041304457072274 0.3148074137297417 3.3485276241639106 0.480389799750663
P 5.8684481112945095 6.625038791038075 2.4688744164492076 -0.277933680631844 0.24878251298918444 0.4197444181544642
P 1.8964705161324442 1.66395621207257 4.568164319208154 -0.508868109696014 -0.4744891179955118 0.4335376152838146
P 2.5903915392235723 5.858067191811071 13.170149075145963 -1.106700502537578 -1.2464782687905696 0.5853239759619081
Ni 3.6782112930576245 8.126631934678937 8.13876343388848 2.004453107584406 0.8424612886736911 -1.0184859530738586
Ni 8.479308811578816 2.788388142727945 9.208922819942295 -0.7017173018526882 -0.1969128207030867 -1.4059455430526884
Ni 2.4093611080908097 3.5820025775983444 3.33313855400667 -0.26191390816481985 -1.5130803264596782 -0.5740242346783727
Ni 0.08739545201060982 7.515831436931846 5.3206922637671 0.9740495771373547 -0.5092051813204584 0.49078888359679984
Ni 5.757276237883771 0.40154128256703003 8.559161405177099 -0.31868900817233503 -0.4757566718540258 1.421190642137217
Ni 6.205256357970808 5.750078190629617 6.246881558553253 0.46904275016895997 -1.0071167920049688 0.7974674975718201
Ni 3.5438904265080486 3.76290496214717 8.055847783078741 -0.08744064741217199 1.2832183045240804 1.4476539785350682
Ni 5.166377837754268 3.1356413321796497 6.413836011637548 1.861445007319575 0.7517190876921118 1.4222401664476536
Ni 7.915007516169874 8.495616458661608 7.08008891179533 -1.0331813503025045 0.43716312785154393 0.40728510934518886
Ni 3.100766930426039 1.8365447148500786 0.09120941097500945 -0.2685707513597052 -1.5413416352982163 -0.9852230772556709
Ni 4.106408215926444 6.125154073533849 11.716885285375085 0.8035201315238033 -0.8624490446495277 -0.30972022901482144
Ni 9.120236841289294 0.9224292983106979 5.397877829945673 -1.0098059088013578 0.03775587859253497 0.4692566659519789
Ni 8.392977975451794 4.521114516559078 10.920837965409891 -1.124506420370747 -1.7124500933436895 0.013881900188414802
Ni 2.383367651551664 7.7545651464972165 12.291655303639308 -1.8203150700484845 0.11073432783278994 -0.1297322090915314
Ni 1.9573566667943347 8.682162039088217 9.360844604072422 -3.041652320797052 0.6456428274566235 0.4714744995389042
Ni 7.037623176851187 7.686160832121329 5.001199573712867 -0.7569253144833996 0.39928820718264135 -0.46487422061356715
Ni 8.05030702446811 9.08206066690703 3.086159559054234 -1.2245007360782139 -0.294853339205318 -0.48208801338869234
Ni 5.883301515031165 2.8653258473047547 9.145632137357765 -0.44995256630672836 0.5830336372658346 -0.8801765438362777
Ni 8.186146157655791 6.51001637392467 3.3884510197934876 -0.22000466952554368 -0.47336323192118474 -1.5802398550253107
Ni 7.907434475348477 8.724957036676768 9.71325441238295 0.36315983689120035 0.8492669987416148 -0.33062175505417896
Ni 4.729958494959801 1.5487874560060944 4.839988009918131 -0.08492430874822149 0.22342783627447974 -1.1517251468773841
Ni 0.6387594693496638 1.3289863484942188 13.26501787456619 -0.5770553081952127 -0.7336362620484719 0.5125008213525948
Ni 1.4408350395629077 2.2233368601845167 8.089862443483064 1.2893431864748954 -0.6694751539895308 1.0413512877078066
Ni 6.143638512543565 8.528496992179635 1.1995879584785518 -0.16395359216824668 -1.610466772230652 0.32342498019542365
P 0.02622302577177506 6.272133259524022 9.590072684017407 -0.8324069897614825 -2.086982947958522 -3.2388564474883124
P 6.129983258985176 6.904866307862552 12.561805242573543 -0.5045903082562665 0.7799053203183407 0.6512367766046332
P 1.345522650191184 2.695161083437476 1.354124636776359 0.18548246737895796 -0.09506705360917822 1.6103397597344848
P 4.731485907782473 3.131745057554148 12.791555569657298 -0.14456284634646072 0.9790760838176686 0.2365612883326442
P 8.874222768808668 4.218952017022218 3.6202089343896793 -0.3553807071664138 0.5977053803453964 0.26164008567814295
P 4.473033024290855 5.341518126025943 9.470010719207638 1.017916196613318 -0.9256035658208251 -0.09829790184165006
P 2.6055284746818015 6.369128546856056 5.694519692477949 0.8413719122642542 0.7480699209752988 -1.974741439452586
P 3.971209315658445 0.20782052034768583 1.1048078770486223 1.2950399797493568 -1.605250003916403 -0.22287787730828068
