# total energy = -340884.64132980857 ev
CRYSTAL
PRIMVEC
9.14025623263194 0.00000000000000 0.00000000000000

0.00000000000000 9.14025623263194 0.00000000000000

0.00000000000000 0.00000000000000 13.37768890771861

PRIMCOORD
 96 1
Ni 6.852349526303781 2.707316464083908 11.92889808821614 -0.9148884933961662 -0.6753220996886111 -0.043948380556492056
Ni 4.879763416169848 0.8289663953167181 6.336569439368319 -0.39016079096007644 -0.08066141970680947 0.18396345963127025
Ni 2.742506450433274 1.7069611248614873 4.824155011507275 1.4070462323160347 0.740348383961325 -0.007167978503348945
Ni 3.5882452158671567 4.837617694856361 5.479367878640738 0.6276561610712159 -1.857751617628388 -0.1777997540227196
Ni 3.9472561986802432 3.0507433100851324 2.5839275755843594 -0.43482213842319306 -0.31842058500229675 0.9500650412972993
Ni 5.336383194885499 5.001630452012988 3.181455371847827 -0.400219203637343 -0.8635618180977321 -2.045978223411386
Ni 5.65588999042535 3.5754488571946603 0.930327266387183 -0.20149118410238845 -1.2795843073159188 -0.5080075614679316
Ni 5.789922707263558 8.13779859649323 12.983154432243973 -1.4455988957782522 0.8860517716701322 0.3368337974021618
Ni 1.968125665110948 6.129218157464804 11.660127026761499 1.0134080243303192 -0.7800698709206629 -0.6715302367463467
Ni 0.6611448934037838 8.18532792870536 11.38572465346534 -0.8568008452248147 -0.1866453773388076 0.2985009632602343
Ni 0.8267809600605797 -0.002317054945341346 4.709361619933167 1.1648699117894583 0.8964454561996302 0.10981875799705602
Ni 8.688014598641999 2.4167842806810675 1.3053684305144297 0.6240206212011576 1.3319059995377707 0.632199300357208
Ni 1.5852768941422397 1.2389891479520927 2.652180610666598 -0.21310999928823943 1.8068026373843467 0.3475020757492854
Ni 2.0908427447801903 6.524150347122827 0.6608981064865285 -0.14865270014511817 1.1336127535473897 -0.6545756111698792
Ni 8.394164502240505 4.462254793711063 3.9190210332693796 -0.15231060861267962 -1.3021601357339059 1.0769476967551777
Ni 7.7009857529513654 4.580566269894488 13.27964332060886 -0.11676922117296018 -0.6221131197657994 -0.5190303949409965
Ni 8.307825642225932 0.5239624442809035 6.668242829928856 -0.23970908993300652 -2.5590104917874186 2.223546835259906
Ni 7.144636638895992 0.8669587842153604 0.468563351485188 -1.0923018106137445 -0.018647439897858206 1.1316445740774252
Ni 1.8583054869323434 6.992615897866733 9.344328866646917 -0.2801309453934788 -0.2896568826060431 0.2316859625182139
Ni 0.3148608033161147 5.160817153898846 1.4475862467749374 0.6206252223663634 -0.635130357961074 0.6188568176120309
Ni 6.926952297364436 2.4310522206009013 7.2402857638704265 -1.26536662105464 -0.5009660812401178 0.17247577070664488
Ni 3.3618776309506924 4.516456512945281 0.3856374631336934 0.34671197574782225 0.08560050887963967 0.09550439825691294
Ni 6.1099230766379184 5.7513965274031476 5.082919320480023 1.0908190554206312 0.9928553969899482 1.5196260979979956
Ni 5.497580753134178 3.346933312072455 9.869831444096617 0.08640706394133506 -0.7802691314156626 -0.6023184536373756
P 0.09812065024946488 6.004078909903982 12.64187554644849 0.783133083227019 0.2288333235607672 -0.15248235830385354
P 3.9524844252235773 6.666144227106566 12.766596170275598 0.3618552591471639 -1.0629894348028726 0.4200526934235024
P 2.4045911789174172 9.0613300823997 1.2943973810040028 0.8818966118511781 -2.0082711957789154 -0.5992930365474904
P 6.571515154723454 8.012220616635066 6.244570932718025 0.19652998344237121 0.9612495971592091 -0.21775983935542495
P 5.097712825131049 1.1798242696041852 12.9991407403284 0.5455659793376798 1.3563415068723157 0.8011693719034395
P 3.837125251791021 6.571880764971239 8.24979324162054 0.8210627683932569 0.5689877006957298 -0.12408863765250887
P 4.894278143006938 1.3553628898222545 4.056690658047434 -0.7046815266873347 0.270981674794043 0.13816105658517494
P 0.6359296686396293 6.445114551807771 4.19517650770367 -0.5354859693938584 -0.3415777398450504 -0.34897660341228287
Ni 1.0077863675086631 7.691251380104073 2.412358568631623 1.3795732237067466 -0.9652826295780019 0.24929339118733196
Ni 2.4015931748855754 6.762711033802942 5.4266331705257596 -2.9528675006521596 1.3868885264212372 -0.36725483289618044
Ni 5.825597127191239 5.811758779312553 9.548499339394697 1.0098727574835513 0.9263980366976625 -0.33377135642675415
Ni 8.994523949873072 2.3529944326986723 10.390062835798869 0.03188913539911282 0.68106620126124 0.4676101314874915
Ni 2.1205120163879934 5.471933194252016 7.501351589352985 0.09809581313317299 0.4115917071403428 -0.6101806299942718
Ni 0.9209265128909954 9.190161993463155 8.887869042414671 -2.195048213599581 1.135855269724663 0.1879548401788505
Ni 1.8173022976431865 1.544538772282727 11.598897364539223 -0.369131481093603 0.3714117924873474 1.2122743692153508
Ni 4.235329653166725 7.29529548175225 1.557684288741859 -1.1951760189721674 1.206330235816774 1.189388722866429
Ni 5.502617034297424 8.41271008205943 8.227172021564424 0.7516584096575054 -0.4275582577719282 0.8417881738660664
Ni 6.965286531844757 0.9007366009826541 4.817613330148771 -0.41105948878595655 -0.7118579898311159 1.2434847333798842
Ni 0.6315231511281931 7.798841335771185 6.880225479646195 0.13981170481472052 -0.9883737070695108 0.36431349087966935
Ni 5.452254222664956 4.724680689315384 7.244740724739693 -0.0698797557102732 0.08978060839925828 0.8379947682619051
Ni 7.868206740032311 7.810065570378204 9.248090195147928 1.1593680081346227 1.4684151223418194 -0.6203791677938283
Ni 4.773425675601401 0.8519477414669024 10.872622661594908 0.6407783002754707 -0.8855483496711521 -1.4373759936478279
Ni 8.123174186581807 7.920278779573178 4.738617751960971 -0.9563444465481078 -1.7266770355763488 0.5961439493955475
Ni 7.269483398258585 6.289318884970125 7.422089115684302 -1.0084465665599858 1.045189173396658 -1.6637744825148573
Ni 2.7040808133910055 5.4454081707751705 2.9190651232426648 -0.6738007779480782 0.1308714649022972 -0.5979051550610284
Ni 3.6421818676717304 4.74029224689583 9.404100658006147 -0.6954013869369895 0.7023888739984161 0.7025549672626351
Ni 1.6028718873169223 3.5902103709490047 3.994149369061226 -0.6136750163007754 -0.0697915668718411 -0.722955128185542
Ni 0.39281073619524715 0.24205043649522862 0.2053130047721104 1.3326397923800017 0.4731305470850884 0.046551108286661765
Ni 1.1554197855644952 3.522499353059108 8.345376556750372 -0.4172468485435911 -0.07356106121660234 1.181661015204868
Ni 5.355586873150439 3.0771495102314486 5.361991450666023 -0.028908455504234085 0.2518459824058566 -0.5079378845722607
Ni 4.464759223908395 7.411038545944981 6.121389528034094 0.571659591100938 0.5642085341395315 1.46950424164094
Ni 8.196506462031406 7.4916830263502945 0.34573933081846847 -0.014477110570252489 0.5332408821134236 1.3071077095471682
P 9.00423090195178 6.191518143687474 8.534537814800935 2.9448574858634897 -0.6965655824484197 -0.1589311992529908
P 8.79906871140688 1.903156724079444 8.3802923354139 -0.359392142318652 -0.7247893531808034 -1.7087009107139024
P 2.385597726544954 3.963534994962898 10.964782036754228 -0.598520420047524 -0.8225848614647382 0.33086138186881087
P 4.069927577068512 6.524799305312646 4.160033136660897 0.786538252253826 -0.09747463460940632 -1.408354152494181
P 7.249429676167543 4.463863478801319 10.735809478822292 -0.7257869412073822 0.37603232197849434 -0.057120913382708076
P 6.308294056830198 7.9727438501304135 10.526006780207375 -2.062693479283538 -0.01218162966785644 0.3939439121515925
P 2.5822868995974217 9.120750887921057 6.0532836510765895 0.20018094993139715 -1.9620036801709437 -0.6620467227359437
P 7.28450083918638 4.385147592453077 2.0659163521117865 -0.5211093889572123 -0.34739820318156944 -0.3820160503657549
Ni 2.99156929148103 1.9478982781522087 0.618217680185655 0.41240803239405105 -0.5589483141818568 -0.5207880010620515
Ni 1.6526040212719608 1.571310582676829 7.082950877889603 -0.4444401211289314 0.4609088082079159 0.36651229830320103
Ni 6.92544415509232 1.239519282811382 9.471283369087994 0.5370152615541913 -0.47907570892492973 0.07770233707848553
Ni 2.987949750027953 2.149724275186064 9.617675540352593 0.4270692339506516 -0.17376672160392656 -0.7365362093040864
Ni 6.699624985547533 2.0253619494017863 2.931506839974809 -0.1761964140913417 2.078887058324265 -2.1395509518632245
Ni 4.141386099998211 7.249914109745861 10.53373943694804 -0.28906295777578606 0.9089024510160605 0.3336055202728513
Ni 7.02761393883601 6.511088921020686 12.026408169351804 0.9817574873045738 -1.2036282635045787 -2.5434594314266974
Ni 7.842010765778472 4.28288640614744 8.476076736180014 0.16417007905442693 -0.6447190300907736 0.7958381894985133
Ni 3.3906694379638096 8.992933545295205 12.577261247357338 -1.003628576346052 -1.1670404370782157 0.4841821769135597
Ni 0.24394064147628028 4.81386216900649 10.31964264597288 0.7055883547723203 0.6324078168235883 0.7170639595120877
Ni 8.832512908823071 2.3526196821946916 5.689490486222468 0.7970658912580273 2.9844118511173443 -1.5837275564635949
Ni 4.0454499709792655 2.909599473927495 11.95434273341078 -0.08818369622578362 -0.5244839618563999 -0.02911080132302728
Ni 0.9904198807388465 3.749780963595037 12.86311636166538 0.8026313011609468 0.5213011932530441 -0.7184670105072013
Ni 3.0886205317557223 8.88628503601614 8.116203827207773 1.3917083164073838 -0.29970938174603867 0.37333034966629897
Ni 5.6840145587362585 7.940835215754924 3.7928827557064837 0.15628681965160826 0.426916253312555 0.9908270537060098
Ni 3.1781767619508092 8.596730860026126 3.806180000418446 0.36144131153819686 0.027309229337914256 -0.46875118707047014
Ni 3.594542852385264 3.382854518917392 7.523210512042468 -0.3515888442241493 -1.709949695519339 -0.9666219172147159
Ni 5.295352584827758 4.844893338787295 11.86069898064545 -0.2841279823680139 0.9428091310658342 0.6606521563812622
Ni 8.538708513702549 9.134735479898856 2.6520334525418643 -2.534482424739067 0.17365462150609448 -1.0821009588213428
Ni 4.883044768143724 0.5203163960848615 2.093247546185 -0.062981228818227 0.07434190524668487 -1.3623375765547505
Ni 5.867953074397202 5.997607608518176 0.7802954451058773 0.8656400407829996 -0.650210392222648 0.14813128042400941
Ni 7.4785210574300125 0.2312174048533408 11.620181365114062 0.8618900868222641 -0.0692043269098034 -0.22915445434561177
Ni 0.1612944449643416 5.285718754798607 6.08549757000898 -0.7867830212747805 0.5246546831063094 0.19681254767979653
Ni 7.970723853511398 6.39023645361515 2.7906792566815066 -1.1254561858785261 1.4582163274319468 -0.21468377153326254
P 8.786327194271552 1.8542380729257284 3.5601645207859827 0.24902085425223563 0.844974542013848 1.2084668225438027
P 1.7437415157887204 3.4001753044062357 1.6243460052206105 0.6316017759825252 0.6716217680188885 0.8767371791374257
P 5.074670239264361 1.6168016377575543 8.503902418113357 -1.3640823271599993 0.14177628474025908 -0.7360402435042742
P 8.830794540658477 2.0703777111603903 12.502387010687702 -0.06037592998489602 -1.568723626855595 0.817665826896566
P 6.66034016442297 7.994196031419235 1.9332235968317135 -0.3295192660186196 0.3963777184040657 -1.6132435636448412
P 1.5813191632099601 3.6800042478051522 6.156091424702666 1.9474898028254848 -0.7905666566869287 0.42019487542832146
P 7.300231220097356 4.2024978529155765 6.0478388004614425 -0.06953754187950605 0.17770256632322298 -0.04920088720468301
P 2.397973633432498 8.980073204829345 10.38188961870962 1.3205959738415902 0.05264822232333514 0.5267280206955703
