# total energy = -340863.17618339794 ev
CRYSTAL
PRIMVEC
9.32029013043681 0.00000000000000 0.00000000000000

0.00000000000000 9.32029013043681 0.00000000000000

0.00000000000000 0.00000000000000 13.64118671526045

PRIMCOORD
 96 1
Ni 5.872947873982987 8.338723854210622 11.794852436397113 0.514764677686107 0.9348556805467125 -2.0111243489569945
Ni 6.8702841694026215 1.0084460813601828 10.111515752048323 -1.4946786840240387 -1.1100784178708751 3.4952738513149355
Ni 3.1870079982120445 8.751631351474172 3.0222597522213515 -0.40210562202677846 0.39339883828139993 -1.65794527742759
Ni 4.81194467608023 4.2870538918404355 7.3625306371518375 0.9250808605481358 -1.3249082280636988 1.6946745145278233
Ni 8.142289417563822 4.384572088397443 8.197684562477955 -0.6700371971405881 -0.37441226987656806 0.12069143904550182
Ni 0.47928380811321397 4.603365901278618 2.1071405329068797 -0.04724299214736379 -0.172054109788194 -1.8652533253220716
Ni 8.51817672207917 7.953236650770137 11.474338840128393 0.8302657750487636 0.34363642214629203 0.21385356232248331
Ni 8.82642668047828 6.955760550997224 4.05485656959592 1.8145432005617137 -1.5781534048099273 -0.6692836068040151
Ni 4.133213181492548 5.474076733788619 13.134157636168638 -0.8170464481450123 0.5416882415498284 -0.12499597995812665
Ni 2.0204059121327704 9.091533015455582 9.324774210204579 0.23402180974024214 0.44854951531161463 0.615027930784244
Ni 1.2668604479605434 6.932767395027986 2.332997261715695 0.6429053739208024 -0.20150326828724655 -0.37014835239389154
Ni 2.684094458307664 4.149654173438123 4.528137178779346 1.4226204326052079 -0.8211941517647986 0.6474667680392397
Ni 1.1226382771182302 5.943129659328897 12.131312117200798 -0.7472479392946356 -0.7146923739561176 -0.44868784066169176
Ni 2.512461313932505 3.5500239819355333 0.13292131895228465 0.16125881894490293 -1.1653951881653088 -2.095890534860797
Ni 6.289061551081728 5.424763078242111 9.835390969974615 -0.57964158086515 -0.7709229143140723 -0.2431980769228715
Ni 5.339230774906198 4.288088444054698 2.6010879536209863 -0.5561434977432099 -0.09333490140941991 0.41163927254882654
Ni 0.7560032247028665 7.835484104148591 13.562354137506746 0.36811846644805635 -0.5302548029019062 0.10804906769114295
Ni 7.33165717580279 6.992398611846462 13.350220604015767 -0.25490122429241263 0.6274234762351194 -0.5651564998750976
Ni 9.357291770748184 3.243982932318226 3.863320877488005 -0.2702792494103796 -0.22499852319570926 1.7070181236948407
Ni 6.354350184062884 4.853876661773622 0.35201804126556385 -0.5893161278404367 0.20881420012636295 1.5138115481987475
Ni 2.573462613413114 4.128580997253913 10.739460985234961 0.4407336188116216 0.2620388637784584 2.763497268183021
Ni 4.395187898956405 3.2099545527301894 9.672911282623126 1.8506322329747869 -0.531841944883368 0.14802560808408055
Ni 3.8467913427853526 6.727087230484352 1.523734170587773 0.05150613829909194 1.070780134491885 -0.11188901026252344
Ni 6.971959215397115 6.793913711351574 5.034662331143426 -2.8144444486548497 2.3109730844943748 1.2767949174962399
P 1.455661566918327 8.714462034082475 11.574151692137214 -1.1208184299961987 -0.8421697255752011 -1.2227223040215522
P 4.957863139742325 7.722913638888578 13.500259567983496 -0.43534484369588256 -0.20978273468721934 1.3497170595772627
P 6.421791804084531 2.5156768140579153 8.779536300388601 -1.036885024406337 2.215462001369242 -1.7140459770758996
P 1.165138800514957 5.4006328468662055 3.915947896207219 -1.5888818469710249 0.5914617134285297 0.8093151409390256
P 3.0377994721027903 7.907138495349038 7.4767619781288035 2.316951413564997 0.8152227646727122 -0.3350898181278616
P 6.441671983120764 5.628383458647437 7.036314887327391 0.5261472084914358 0.82874651019076 0.34864724509732214
P 7.174628926200146 2.8085296530159307 4.185212012651029 0.3952533749916354 0.5491706659698026 0.8403941217320172
P 3.6907417236556603 2.4696532209585653 12.069558670299552 -0.6037924670797408 1.1721181087114394 -0.10240626758306878
Ni 4.040737261943792 0.8325321276876304 10.828401718703807 -0.7076079563055103 -0.05857358666883461 1.7088310085338638
Ni 2.1200491348596135 1.6963953429740408 1.7071127446963863 0.3302656572663409 0.7581159923573911 -0.9783392056516441
Ni 3.7769637284677477 1.3008422260974877 4.769108622235634 1.7446577884244858 -1.2639728260309069 -1.132576084752759
Ni 2.0039928810578505 1.0506856366307893 12.608331094790897 1.2592782487687153 1.5963588720743604 0.978021160190593
Ni 2.895189711468291 7.172401376837906 11.192729999290071 0.33418813224919863 0.7027382869180349 -0.8639441411378153
Ni 5.829440759242654 8.350411498144723 1.8271282577830028 -0.6519294317962837 -2.1060993570729987 0.681326396901162
Ni 7.960786085847187 -0.15248740420815055 3.9581809272746726 -2.376027908012179 1.327642082055094 1.670320254053175
Ni 5.8952326878956125 4.108933825473145 11.932246562625293 -1.8076804120036092 0.28637872607540354 -1.4702208080919905
Ni 8.893290442506377 8.559810458485568 9.088127381409713 0.8586052454234052 3.5534987963950995 -1.2692564430273496
Ni 1.8895490374639012 1.9246399301368566 8.017785252707936 -0.7279286701407335 -2.5150934786894945 -0.37095567878653535
Ni 2.4695320571857238 3.991293122334223 8.497818412154725 1.2967065688185022 1.5846762935301095 -0.9781769690421669
Ni 7.778546451203284 4.9764198375675175 3.2999261102972115 -1.5125193117498854 0.18363230154409665 -0.19946129815655328
Ni 9.283027698286535 1.3280201923748682 2.3664319388168087 -0.8240524471492002 -0.6412596107872633 2.3047420159829985
Ni 7.249293771141194 2.726753426638106 6.4670278326604125 1.4878354358499601 -0.2542692471353686 0.9768819043798272
Ni 7.07862061665855 0.5693672091628592 0.8897372729622115 0.5815174577316243 1.2615865851869177 -0.08491351011494408
Ni 1.108490076566425 8.462767596729709 6.811821716977555 1.0664758506895762 1.934371520275972 3.1777009590249143
Ni 1.8239901160664067 6.822778650158518 8.746551793305047 -1.0412916381144648 -0.6337162512223666 0.5473372123054896
Ni 5.3813584866941815 2.6922590325391402 5.3064084408724455 -0.9211357598574588 0.40396735782586557 0.014996216298516109
Ni 0.5994251451177811 3.301731450512551 12.30209991125313 -0.22570711922695966 0.04242191660963662 -0.7868488415157094
Ni 7.365769438002794 2.770465587763248 13.203891115555033 0.15255203519952437 -0.9162871735159058 -0.0748862077859291
Ni 8.056999441773591 4.978684668090633 5.666153002729212 1.2429538005770786 -2.6813119556325176 -0.005636372350170938
Ni 5.464719162409164 1.3067606103862863 12.905339851157377 -0.729781407078756 0.3212698815256338 -0.6909770326170487
Ni 7.4602678605289805 2.816945875083309 2.105162767322497 -1.2603005193856422 0.12082719329241771 -0.6270054148610944
Ni 8.34845423719882 8.204698080867436 2.0597505852614857 0.6265562431388177 -0.8933274793959388 -1.981541235983239
P 0.7461302412743244 2.803720383263143 9.657291408245806 0.08479729625205397 0.04333620089378988 1.192811375394733
P 9.106622565319464 2.9527891050191184 0.6813132149782286 2.2649467383629314 -0.3804098822208997 0.9352709137072602
P 0.4281610842352785 1.1018819908014514 5.946329314960936 -0.5588292721054893 -0.600417894180553 -0.02844771381773165
P 4.330933818189512 5.664918996304272 10.97292959506529 1.2242729363381237 -1.7845348271250814 -1.0948163495054823
P 4.06359993384997 6.261967467416315 3.5768142241398206 0.5141905503501919 -0.451853382873867 1.2730002263404978
P 3.523004460591869 2.6271754459427927 2.998591807240288 0.48928761646092506 0.6565605028103918 -0.2523884851728879
P 7.065246000194887 6.368498384614689 1.7515416361393374 0.3434153072744215 0.20923508971386545 0.8951737885760583
P 7.618889879759001 0.4398477961403564 12.352408041765964 -1.1223721476365638 -0.07699194127502225 0.6649389566820743
Ni 6.236681520053307 0.583833231611118 7.497809989529423 0.8400660489686371 1.4014653957941479 -0.5471549210913544
Ni 1.498534901923797 6.619969135002207 5.751274281266484 -0.7989541094196757 -1.9850070830446525 -0.684703283793195
Ni 8.594286212004098 6.629969806406744 7.156521466363488 0.20515294922469188 -0.12420433729476674 0.5711579688741711
Ni 0.6875708578309836 4.996318657184187 9.664849231584054 -1.68900574627782 -0.27148406835175826 2.083594233991947
Ni 8.298068748277174 6.676403492275712 9.498044929571142 -1.2465320048466402 -3.3780495448824275 0.827479470552878
Ni 7.713229857351473 3.1756372441453764 10.934447980810816 1.095125653215785 0.8084450796292465 -1.823691185609569
Ni 3.607278524748273 8.293268798814607 5.048644630529341 -0.46166959763334037 -1.4551572288906487 1.7755105121392842
Ni 0.04610281556620805 0.7733016833485518 0.2588701287920493 -0.10967734732318532 -0.018851585488864307 -2.2377629788592883
Ni 1.8062256429097923 1.5885968663059398 4.1423507940228435 -2.908198182769243 -0.0388110593299267 -0.33352787295738046
Ni 3.5777891264966843 5.894487064678126 6.265274306385868 0.07198831741284376 0.615617741849443 -0.3234334648358559
Ni 5.454131312720857 4.9908476468258804 5.114899777606164 0.006876929625491383 0.6015448086961447 -1.3173427570116152
Ni 2.840554170206973 4.655773893177695 2.0343779591994444 1.2322893788846971 -0.30293663043408475 2.9046567452748877
Ni 5.16154876217918 7.908294211336142 6.724436539946188 0.9570473861524034 -0.8134289059970831 1.061736536232378
Ni 4.568293649186099 9.202686796602372 9.021203037495196 -1.509823510085277 -1.4914545206597862 -2.160278157108247
Ni 5.223565973293615 1.241033923764857 2.580830302830902 0.6613818354584351 1.1772813980799335 0.8122022326788335
Ni 8.69604514061056 5.003420718330744 0.10077004581426963 -0.03379175173846439 0.9060852932822395 -1.4472724268259332
Ni 8.247105401361976 8.769423785501441 6.629712566396711 -1.6447112952358192 1.8738081568706182 -1.2588509314233094
Ni 8.44208587273468 1.7348508604159034 8.758951507411846 1.8863690242547642 0.7166099026938046 -1.9184923871518702
Ni 3.9369744709403363 1.2315365480321236 6.933432863749592 0.13621935947777186 -0.446078942283935 1.489772504971673
Ni 4.229873911349444 6.256319371543856 8.74263633938422 -0.03126358599997196 0.270327843260128 0.14821458416643507
Ni 3.8762900613271594 0.29001387855743577 0.9384469737025565 0.006866130992213982 -0.8427942465330776 -1.5834272516143568
Ni 0.6774872358435015 3.1806795211536283 6.2601183218369485 0.18940957034750605 0.8205796581092514 0.29541229703258154
Ni 0.7748358031185301 8.641018147160061 4.661261680058396 1.7375651432437622 1.7922368237550297 -2.007761088911716
Ni 9.23144921221691 1.2141635270646898 11.126884012953845 0.886993566758111 -0.8141511288750882 -0.46878923939725714
P 0.9263781298985166 5.1268120405345305 7.541366501807914 -1.189862320068738 0.6643213777027334 -1.7179285999597576
P 3.144255826979416 3.25912840392342 6.4940231212495085 -0.2106733648222888 -0.872233377729801 -0.3261701470407286
P 5.863254772155663 8.695038549266952 4.765317128174715 0.017669135144988926 0.5158139448862278 -0.1606705505416007
P 1.4896153841846156 8.94113149219835 1.7011244582309484 -0.625581023709742 0.9146550372291216 -0.29458131649085395
P 6.512133377173233 8.559335123684422 9.138776634544545 1.7987969934710504 -2.748010485401332 -0.5167814510058196
P 7.928379436757183 5.468568442269438 11.358565923149275 0.6786516782824764 0.21189258194137056 0.9296545959617473
P 5.414557360452765 2.9339248376167117 0.7705866828078793 0.6148343267161992 -0.6784081948131027 0.42602536606716956
P 1.9173048617348338 5.734056909145701 0.46776299737402666 -0.46489350388727674 0.6132335578879826 -0.8538168228958263
