# total energy = -381170.51414871064 ev
CRYSTAL
PRIMVEC
9.22583887866230 0.00000000000000 0.00000000000000

0.00000000000000 9.22583887866230 0.00000000000000

0.00000000000000 0.00000000000000 13.50294776100607

PRIMCOORD
 96 1
Ni 2.451794382782694 7.040855846312629 6.1508087159753995 0.01972601767401764 0.7606986654829029 0.5961038401862315
Ni 0.5758648746791123 1.6692956250260664 9.81637292482838 -1.1098351915118176 -0.5778724047798693 -1.0648092616204305
Ni 5.528316451161148 6.66217206010627 7.832547230015171 0.6147769911157026 -1.9770430910025696 0.7620724059019779
Ni 6.433989384955418 8.7275883069848 4.464452669533049 -1.1690847212017543 0.7342839229347999 0.31847869193374184
Ni 4.004503080792979 4.745171884676887 1.2111616813945432 0.17685873026568896 0.6687542166631063 -0.5879274750230261
Ni 2.9694285296588854 7.657667762075396 11.612953759735424 -0.6460575463965389 -1.4000338055539436 -0.8197373647136141
Ni 7.149462422622653 5.160934317688375 9.009760591765813 -1.5283866177994454 -0.6392268966279507 1.8426114195528394
Ni 2.275405567588049 2.8714962490327465 4.9604429981945515 -1.2446173043224307 -1.8013359578428203 -0.8081272912785114
Ni 4.9573569550603604 4.71630423455167 3.7374943849368005 0.9496341244074676 0.3710616082367803 -0.631661425575867
Ni 3.335094657083946 -0.04054387192083185 2.3742770386209466 -1.1431991116842442 0.9541140145556921 -0.4095415094795334
Ni 4.117252058798824 8.893644182537308 13.131981687431828 -0.594353176043712 1.339116658353597 1.1236749256083876
Ni 5.673475801455229 3.876116305739437 12.58179047742784 -0.2753972873632354 -0.46532416366679213 -0.23427583473257715
Ni 0.8567178644879603 4.176721816774904 3.567735257623262 -0.9617314218916341 -1.4910097198128838 -0.363680999501993
Ni 7.0973364324636625 1.8565709302008186 12.782417416754464 -0.78646626136531 -0.40872107046076706 0.02671864694176689
Ni 1.9744956038666979 0.903378467643378 0.34522351344376984 0.9337717034539144 0.1981214962992072 1.1679398089640338
Ni 1.8880587185924353 2.071053234486874 2.696484851595755 -0.29640011486714757 -0.5808798241476253 -0.6328629020831359
Ni 3.9572114302522734 5.1312640195730985 6.571871393472966 0.002821785719511269 0.541677700026867 -0.4376097284706592
Ni 4.783837375784202 6.473761976738675 10.184382415350854 -0.5943027824217507 -0.43870347575547025 -0.5486142792457003
Ni 0.6737196582579352 2.5535738382577353 12.100328999970296 0.8235945336761752 -1.903392555395954 2.0029564684342214
Ni 4.011496266729353 2.166928153023552 0.43979758868621455 -0.738898795998992 0.2572506983611957 -1.224905170605484
Ni 6.525795708508006 0.3830780533059564 10.737841417516668 -0.09180303814592576 0.6143571299694646 -0.4381853984684712
Ni 2.57197938699529 7.4652075354016425 1.0244823654170074 -0.3139553501420916 0.13595607851405617 -0.8151931969863573
Ni 7.452457425950364 2.9609592094879202 10.576278525540696 -1.162047868959631 -0.31457061512858725 -0.3030973243816651
Ni 5.6310092646938426 3.043465887362584 7.729303633896195 0.7539358928377725 -0.025792021362439452 0.6719549829885911
P 5.462176411612511 4.350785720550068 10.242634362583395 0.9476803431152065 -0.5533605356814342 1.1477751610907008
Ni 5.817131339997821 7.520341149063611 12.135909370527317 0.40516214946491513 -0.028574726313899176 -0.6179103945383616
P 3.7529790330576587 8.072830515554081 4.737400960515663 0.5787208688230936 0.46496935143053464 -0.07513689034415447
Ni 9.028581303256848 6.4911526831899495 8.825202296166605 0.7344065645555933 1.1612693389223938 -0.21809485409734053
P 1.2115556247183998 8.044147382208187 10.277985009750157 -0.5546532863509287 0.13548968040059892 0.18637438306560805
P 0.25141610541941584 8.072802838037184 6.718472742397463 0.19106330390084514 -1.474714582197286 -0.7564550597152004
P 8.880192909324599 6.177022092230044 3.24729696056217 0.7809990676031516 0.005083328060178342 0.23409200085654522
Ni 4.714043904004952 8.55775906329512 7.19952920552439 -1.0510381759782674 -1.2350162908975568 -0.9209632388353365
Ni 4.759988582056593 1.9531746900158258 9.909300187815358 0.1708793727538025 2.742290295088103 -0.6527200460183791
Ni 5.851949656256233 1.5214238780759248 1.571904901147243 0.7234415809036573 -0.19025083530187878 0.8766631313663805
Ni 4.043187023578227 5.750908267898487 12.407481166336174 3.8952912233541173 -0.24651737110409155 -0.4916946832405209
Ni 8.373196154776426 2.4472183666554623 1.647467290032054 -0.4675630802996399 -1.7539374139541988 0.8433814864951154
Ni 2.131482479715438 5.5764753305646755 13.02808951483353 -3.5141413776433996 -0.5997542924546252 0.9973352871381727
Ni 0.9847383737345444 8.220960585995277 12.576551123478938 0.10542268581188942 -0.8860764542604805 0.584488110324174
Ni 5.370176345441633 8.222722721237819 2.3422209385490125 2.6222825123731868 2.517719089237799 1.6253637439471427
Ni 8.668875067803947 8.190321574788548 4.2628533267793856 0.9950454626627313 -0.7993793698825523 -0.11729552599007541
Ni 3.8468058153438416 1.0385711441022807 4.319214899607755 1.1661883734905658 -0.5075457913401646 -0.517879826276321
Ni 9.001568046763834 0.6593015171215687 0.17346699199405102 -1.115472849413569 -0.12867291458908162 1.019738080313405
Ni 6.726227060048548 5.845085632065385 0.3783636495942318 -0.7692031034094882 0.5858549087647137 0.1587072561676428
Ni 8.459134844746515 9.019300109256857 8.804529958795056 0.4617181914830886 -1.4224386556117052 0.10515940484817371
Ni 2.5868145360529287 5.0450946836288555 4.755400572338705 1.5488024624516359 1.3192908818769213 -1.1658286761583017
Ni 0.615054393439707 1.3736259378375126 7.426310475736277 1.643023623120751 0.49612006600172626 -0.9263620412534046
Ni 1.7723943754732736 5.468689853922642 2.005282228496884 -0.015265410799502742 0.5965237013324693 -0.4744785764725506
Ni 2.6880681187068967 2.9546579614740107 7.188401921147264 -0.3290798644883558 1.0839246422936428 0.18750978222163192
Ni 5.579981149371829 6.54938617874456 5.211341534047964 -1.3637041178849738 0.11905621743492399 0.7300693706328201
Ni 2.4323924434367896 5.45010901424473 10.345040252524242 -0.03379560839320631 0.6377701095767662 -0.2287073395058642
Ni 3.1629589536527165 0.6696602891128103 6.490367564293927 -1.6387252528557132 1.135041001353484 0.3664631902328205
Ni 2.1883690027809846 0.8694310705833741 11.50823864230134 1.044655155270059 -0.4546497146720815 -0.9073538755820181
Ni 4.577566068178059 3.0161112748278223 5.215932311517542 -0.770844238557337 0.16049931507105905 0.15588392778623478
Ni 8.256221742524065 3.855229006319976 13.265849533415187 -0.5247775818374188 0.4618891698433142 -2.6090403026513003
Ni 1.5679774614993347 0.5036809880237214 4.6721013948968455 -0.310167086744253 -1.0393458272420035 0.18644765950570472
Ni 9.00559973839206 7.1765310341494635 1.2414611817273145 -0.14588696447452293 -0.10183111180588915 -0.42259320045716897
P 8.132973759774693 7.624833001194714 12.520095447093112 -1.1045826848636269 -0.37543993981013407 0.21263357387245316
Ni 7.585134216123185 2.6486737863212526 6.2247510475377466 1.4576278019183284 1.8817284401589593 -2.6442147936699043
P 5.91808969580487 4.335203278536167 6.064241746371714 1.3622920680287958 1.5723709938001953 -1.003982360141045
Ni 8.231782495102621 4.669741425289293 1.7569088047685186 0.11928144607185262 1.4381432108311554 1.261959395145304
P 4.7986356214859756 1.3273583554220547 12.001919743469605 0.6702446851657038 0.9476698015922453 -0.03969011950077036
P 0.018330819441928915 3.9631344188685693 10.93000180442402 0.018838987083374007 2.3701123138586926 -1.3479476263816654
P 0.5448531395781511 3.6866821542465957 6.12769153127781 -0.5207697462296064 -0.591220286841685 0.16882043334224475
Ni 1.1425094458954113 3.463536787171285 0.8136534933615645 1.0875570968399078 -0.017665021379930868 -0.01290873764186809
Ni 4.280613989373204 9.054459781557018 10.329228087120082 -0.6202128174192931 -1.258296087361104 -0.33580612746859584
Ni 6.705634987476006 8.955032915018357 0.3912263142808981 0.06355972702951636 -1.1197876747388391 -1.6325108965148853
Ni 6.733497021153908 6.429653240641308 3.2795421903329114 0.5900900298919837 0.3629361509161685 -1.1273127794712907
Ni 4.046093162852577 4.278990241715154 8.642385838964215 -1.1756793437001365 0.8681414670486146 2.390271048194754
Ni 7.253354595220952 5.588874858135239 11.541050338584606 -0.7820344508462016 -0.7622734661691905 -0.3375249099319155
Ni 3.8468242670217743 6.748775010481924 2.987418915642962 -0.24724679307094838 -1.686643673803547 0.4582073501163528
Ni 6.625204123368735 2.047960959554493 3.88729617739867 -0.8935925601318676 -0.46869745101439925 -0.1314885296610058
Ni 1.7223626507596086 7.300609342405793 3.7561822443467205 -0.23969057799024523 0.1082293020227491 -0.29119620206870495
Ni 1.7731970234633323 8.413974363007 8.048918063537606 1.2611759800120603 0.40992383251961656 2.0018262114845204
Ni 7.020595903942868 7.400700469350021 9.935333660210162 -0.12500909258424922 0.3296298234545549 -0.39883106504056476
Ni 7.394925094157184 7.401226342171094 6.3862189133723675 0.20110500440756335 -1.2812799498507867 0.8785181822972482
Ni 7.736142748321833 1.8412929408728032 8.193413153426121 -1.1461893046608196 0.5884434954274962 2.7228499269753046
Ni 1.424930828328512 5.127739749088013 7.564310574992592 1.8973931432794098 0.8816253604676623 -0.4125800391955411
Ni 0.3032025847044505 6.0006609545522975 11.41309625537858 0.7331999458420019 1.3103200458368789 -0.06586292124139624
Ni 7.740414311763181 0.033628183031773555 2.3057225970148565 -0.19593503017084962 0.5071071611408493 1.5370278384142109
Ni 5.626746927091461 1.3401453682291982 6.258251913991788 0.6783832551124381 -2.260530611573107 -0.7300143490251686
Ni 8.681708209805922 0.4621693255953359 11.392450672940033 0.15291816028969146 -0.8666466276706428 -0.3013577159827391
Ni 9.21226775707375 4.027364709751206 8.790540819170618 -0.6448190460037475 -1.4729819157768955 0.4945108125330774
Ni 7.771459259884421 4.2043163011227875 3.9970615190828473 -0.9655130004212533 -0.13975771164833348 1.4708365872991185
Ni 2.231997995252111 3.0915140566985175 9.925098514461066 0.4731732273975658 0.7509665257968035 -0.9576348832247572
Ni 8.105010241868163 0.24797579006892248 6.1717116993211025 -1.0222379639171233 3.085205265687338 -0.6029776844879293
Ni 7.740202117466958 5.081490618350487 6.903787556791899 0.747566756086635 -0.40543391506906307 -1.382845209589799
Ni 3.048217194430174 3.396077452650482 11.985135174638412 0.5474397993216249 0.21564896366000924 1.275020084984004
Ni 4.070301764299868 2.8571592952792826 2.670599915208307 -0.04350589370243475 -0.7182348398917373 1.389471199546749
P 4.968308025913232 7.248308061306445 0.6998767568948856 -1.0566876609545608 -2.6904835948294568 -2.0338480158067553
Ni 0.8048179073836413 9.054690427531174 2.370037765615981 0.8039973282705379 0.7711849097262073 -0.3558226797998388
P 6.267499894971499 9.416629316013893 8.108777151918058 1.9340699298751527 0.4616076340471534 1.8598722635158162
Ni 8.976049376183344 1.7446430518629648 3.8993681876859334 -0.23238401702650302 0.2679495728359385 0.39621085380889826
P 3.251859137930952 6.5437676428141485 8.408042148551738 0.618532858613709 -0.1886608651069396 -0.4990665502245598
P 2.9761357145873077 1.4861258181912702 8.64025282499523 -0.3303890702180826 -1.4963941240532488 0.34924348392042437
P 5.897442268198531 3.6775947028648956 1.6246748548660739 0.7109660741444659 0.9032452527302831 0.02146896850705335
Ni 0.5187716928207233 5.769406075025704 5.360737389595321 -1.8119821247027568 1.016026692900089 0.26145753735369165
