# total energy = -340857.8536431085 ev
CRYSTAL
PRIMVEC
9.38969823092880 0.00000000000000 0.00000000000000
0.00000000000000 9.38969823092880 0.00000000000000
0.00000000000000 0.00000000000000 13.74277248620635
PRIMCOORD
 96 1
Ni 6.445210882813493 4.115739445798993 12.38505506510083 0.5605755653726346 3.1141679714682753 -1.2641813424972872
Ni 0.6794338639783087 6.012383356449378 11.446121868965406 -0.6981840918884492 -1.1772464310769402 -1.5202768442081172
Ni 5.549959501486259 4.128856854127929 5.289414156954165 0.9281312173386854 -0.1314067685804769 2.0309097591140377
Ni 8.074483138369766 0.14081073051054682 6.291495890122231 0.41691723311831425 0.43462827724483205 0.7898403200438656
Ni 0.779756216024736 0.36154751072527574 7.868767997270738 1.0695241505975968 0.6395264301462406 -1.1592739057589196
Ni 6.965400160854362 2.2019593360073695 5.408179754125644 0.23176900915032345 -0.7652263781499272 0.1660492983550108
Ni 8.424080380247341 7.131522700693695 6.170546249158833 -1.564846917509008 -0.571465729922577 -1.1733206136599728
Ni 4.01436826446814 7.828191355643918 5.5201415760106896 -1.0506427403120613 0.05812184384339667 -1.1803908902431928
Ni 3.305230090361992 7.902125838952471 1.13783329431023 -0.8836704159221491 1.679665442713501 1.0758076696134633
Ni 7.815411976448726 4.2769230044063855 8.96680211696176 0.015426876078031495 -2.40593343732236 0.09920704391948076
Ni 4.617562474239719 3.3047793848503324 10.196244123426327 1.5124213527194403 -1.3333388753295552 0.014606951279897423
Ni 2.027179494464901 6.681690430962576 13.117063727014274 0.2464872891971045 -0.3593448340204844 2.0547266590279776
Ni 2.058372071751034 2.1261938615576983 3.5291161753394453 0.24578846335786697 1.2193834694563064 1.0647709521833275
Ni 8.307000233895508 1.1657685853048039 8.83579141442037 -1.6966627486024457 1.7673855690393045 -0.911352969439082
Ni 7.882491980100784 8.259788831549127 10.502528565633378 0.7490775363042068 0.5427711902013621 0.01040088361834983
Ni 5.079807924937805 0.8618475301245178 10.811878744289537 0.3267519876861276 -1.2221183518889662 -0.8193447572608856
Ni 0.33921223571307685 7.146527438352708 4.011528819744683 -0.4882591751964107 -1.5438109227743153 0.6016437961678541
Ni 0.26878198775768053 0.5329245256547114 10.63579279573307 2.44519983902215 -0.08025955628270048 0.5530113798721314
Ni 2.031987019922607 9.035800435947822 3.7775037386945125 -0.41561779758060036 -0.47259035831090224 -1.3996455689765894
Ni 2.372917570398888 6.550948273788551 3.0884961384726934 0.4047512871797416 1.5978871357934288 2.0726940421396756
Ni 8.580700545549178 3.9243492282122228 11.475819606304533 -0.13422469764524625 -0.08101571772243467 -0.7386152033203021
Ni 3.5524045047148416 2.2502411639439424 12.044522637826518 -1.9114187681345403 0.46137134966663124 -1.5686971444930338
Ni 5.263188729994451 5.336644338696866 8.942957917455319 1.8318773209647872 -3.1289998942747856 -0.3667295565203297
Ni 0.6325464062184336 1.715676258020752 13.419803558166086 -1.3111381708628 -1.2787322437282687 -1.9175323372314463
P 5.97345366787975 0.16506056497748456 12.935398419811385 -0.7189375223857166 -2.038172868434354 0.15504754792786846
P 8.456333993425508 8.509780155349851 8.442184657268832 0.10267031987773287 -0.9855897165664703 -1.013761551014996
P 2.5486739405499526 4.6186047307354325 12.586812448425597 0.33057727496948874 -0.9938082478215207 -0.18482015120461073
P 3.0203466482002597 1.0169137003809428 1.7172969199230959 0.2452423610464099 -0.007102158262420027 -0.6474667680392397
P 2.1086069569048003 0.5225151062749983 11.789251486750661 -0.7734076284091389 0.7807105898284554 -0.1275213174831417
P 5.184812919456417 3.578714438957992 3.3341343982066354 0.0632769056817749 0.027296630932423956 -1.6268873796805206
P 5.208155709081138 7.371016341952006 3.115582600753641 -0.8515928186613141 0.512337299191537 1.4703593905523837
P 8.825048660755991 1.9131697794112503 4.280021604799048 -0.4215138513500612 1.9643793794919717 0.15071292510825657
Ni 5.832514298504416 7.273016062260444 9.95503028946518 -0.9809403907199171 1.3301710191245348 0.24936023986952538
Ni 2.6309464758242145 1.3240131683882475 9.508019624031016 0.5364241649374116 0.6238694403352739 1.4577159907567603
Ni 6.2784592331974665 3.5818036496524943 0.8645836881682202 0.27346716022005807 -0.6354771997775314 1.1358105325296566
Ni 4.903760474143793 1.0549419779272518 5.53106742878918 -0.19778236779223357 -0.19604635893773334 2.4452016387943627
Ni 3.5566110894903344 6.527314403520882 8.517605529796047 -2.483649658357916 1.3322451280447443 -0.7112072436209945
Ni 3.2383566600694462 9.361604182689014 7.746677507980951 0.7788084877097362 -0.6313462083282934 -1.0454018036280963
Ni 5.514381935159602 6.7571272659766635 6.9681212953810086 0.6125463020129709 -1.1594713664817062 0.5363061513023086
Ni 1.362388864766461 8.907462041502647 0.05599077012559036 0.037518822881064416 -0.1093680436128826 -0.3209055562076796
Ni 6.507971625312141 8.997612533532799 4.420033271996214 0.23065983524654468 0.02001603811061069 -3.078920461119891
Ni 4.770595774844595 2.6375474336304006 7.697395677190381 1.8831916549680472 -0.6029175206739551 0.6178782557488456
Ni 6.838423272642328 6.003369246216178 4.475100095822902 -0.7200125006174503 1.3269296293691017 0.3121290955666302
Ni 2.722937348693644 7.006564597585972 11.002821073274093 0.7623444286164419 -0.48284468904905875 -0.4880712275553207
Ni 3.9840958776016464 3.205473937114588 0.22237997739265583 -0.7550841475096028 0.7508004325325844 1.4201259483181283
Ni 3.3320564580039194 5.658448074022076 1.3515099604787688 1.1227030486134213 -2.66843972765554 -1.6003129716261022
Ni 8.984889492526564 9.267866825961903 3.935641279218937 -1.3110085872634711 0.3156767037085725 -1.0134429913333127
Ni 2.8244963239876886 4.552191395652706 9.92188277702222 -1.906641144240239 0.890926326153614 -0.3411928457018059
Ni 8.53250322489604 3.8465931377527203 1.9661098366047924 0.38911897995912337 -0.6133292029255825 -0.23405831940513236
Ni 0.7818416679859793 1.2286983423703257 1.9805943849857646 -1.1601038578593825 -1.0551324006522989 -0.5858785629137974
Ni 1.276660920569473 2.9657737224967664 11.40537433483208 0.8311363505791749 0.2122484226188925 -0.7133057780212361
Ni 8.08206062478455 6.925991597678594 1.2574627437123906 -0.6935450504545411 0.5289833923886503 -0.5272851787506209
Ni 0.8094220283901208 7.286518448213924 7.536494748497592 1.0927959766413438 -0.6501921373902028 0.6273782248194808
Ni 7.828782906627972 1.5224926080855021 11.011931897398336 -2.88624173310281 1.3134907302553764 2.539460337569633
Ni 5.456269093249946 1.0986228537656295 1.5884580545660167 -2.3089655671460427 -1.6508207505676666 -3.0662040419944874
Ni 1.5649716025594533 8.446493589754265 9.489549148781302 0.7965133611886669 -1.615230512167883 0.8732345653008058
P 7.025794699416797 5.4690578621432975 10.719005239793105 -0.6337224218699538 0.15766570227700588 -0.8883788771414118
P 3.766376946375407 8.2945964426267 9.739626857805092 1.877955089159456 1.7467326686756435 -0.6501905947283061
P 6.050148722447219 5.775377985203356 13.742195088596088 -0.6667058187745099 -0.36925232294218346 0.9728838389640276
P 1.9498083816299414 6.5226289441392495 5.6037943969144095 0.4785033813612275 0.2801209180911498 0.039001320963861864
P 1.7702304043279264 4.288697685898502 2.7178809962347086 0.7324137024952805 -0.15640174796291773 0.33076342283836585
P 8.452700180237748 5.620307120097852 3.104093366085576 -0.9106001504334574 -0.23686390717472755 0.15827428239528227
P 8.032229496651645 2.5154531884613496 13.204591676348455 -0.2170687268256713 0.9631118471789285 0.1327231733990553
P 8.840992368230964 7.443176172308397 12.433154732893108 1.6233446566345848 -0.9703528450120579 0.4431008334922175
Ni 8.064098132205268 9.196927656366256 13.199341896107432 0.5286774311124572 1.2043175762621194 0.7428824632370883
Ni 1.3702949906168296 4.427543152584248 5.097400463409599 1.1499685691975936 -0.5669243904087978 -3.307920135055193
Ni 0.2079132694381871 2.4775939254819135 7.071866192406604 -1.1254978377497389 0.9712236776527854 -0.8368061472704427
Ni 3.779738486856493 0.15423424299948593 13.052775280625061 0.5062460986921347 -0.5610743593859241 1.1969930175762482
Ni 4.595299499903349 5.488954632543452 11.323810721768867 0.3127155641977195 -1.158154704552812 -0.26292049505246334
Ni 6.701925230496477 7.219598069430579 12.27266695091934 0.025065941829692313 0.0750373886518127 0.2806279396345554
Ni 3.790893448270077 4.545890908187626 6.811467327165799 -0.04936878024111498 3.0033472545692663 0.9561313020960372
Ni 0.84830289052932 5.877735084840966 1.47306054212438 -0.2214681414449476 -0.34240460662172 0.8526107184028672
Ni 4.389890462964322 7.13592646913054 12.832615966847149 -0.3508547942716022 0.2929988024950825 0.8378528433674021
Ni 5.757856808437576 2.1808606842427873 12.689141378968726 -0.35204984302096787 -1.6685328231354488 0.7539837153565724
Ni 1.328323039843496 3.492732972910695 0.6417464324751926 1.3500960401832363 1.6115800598994892 0.7333601255689499
Ni 0.9711107527584993 8.745733880401998 5.7005017151693975 0.6719873788884234 -0.08440237480648044 1.3995460672842477
Ni 3.7866962531927437 5.126643739357802 4.150647526646873 0.23284295894079257 -0.1255719070662547 -0.16500208803741906
Ni 5.9909654549473705 5.5647294966912835 2.2159255730499323 -0.09158577992879711 -0.20566357031252325 0.03557892554587421
Ni 5.62281416950646 7.890811252670174 1.0692208919185289 1.4761099198829157 0.2581588119977618 -0.26558698614103293
Ni 3.432441721028016 2.9294262009210223 5.323139135833938 0.9660454758859556 -0.31167375319676643 -3.027953997374353
Ni 7.766181788998035 6.394722475809417 8.42087004244658 -0.26082915974107335 1.5556043158648178 -0.09108467192266248
Ni 8.22754460806912 4.144528260356273 5.163654173623613 1.294986243693286 -0.09117543186425589 -0.6182047858503289
Ni 5.886223371977228 0.05306400120924849 8.422491643318741 -0.1250116636874105 0.2276591007470079 0.09481020040336575
Ni 4.033297895957858 0.5243160503820061 3.6207802867129213 1.3246251496056414 -0.1736440799831332 -1.5760661832635954
Ni 2.56739699868016 2.6932377334148847 7.257255453899584 -2.4989538928151545 -0.6918195831230021 3.3667837421606213
Ni 9.162908779934089 5.171498327466129 13.430427062663838 -1.1561325319164604 -0.022377082143619526 -0.6433074944552276
Ni 0.8951987990175388 4.854652352769177 7.085704729554196 -0.4689059674807795 0.8761106012970201 3.31035831218304
Ni 6.6631927255882 2.0957618498224915 2.910472156216089 2.486267041376105 0.9898904008243531 2.3142733525122012
P 0.9732703833352033 2.670486494774216 9.140688998209253 -0.3582749979950733 0.18009266382195438 -0.3272163289170558
P 6.379098018071872 2.1946259817447356 9.462462686500354 -0.4814264685452935 -0.05030029091644885 -0.8675855945451446
P 7.029109262867129 5.067573148235869 6.677434080786838 0.35099003429788583 0.6313045564570805 1.1589404336789009
P 0.896542464824175 7.9926800880034845 1.9869164687566112 0.3858403092078516 0.8585425105062698 0.15287676552879478
P 7.73367465396956 9.053039921768814 2.0419147477867337 -0.8286896888108954 0.2804356211180912 -0.15675064666190422
P 0.9509416811117162 6.041932736557585 9.313326110631705 0.8629992607260427 -0.4187509438929434 -0.6436998447976398
P 6.042843537279064 8.692287718477656 6.3427289001903615 -0.8877183607392777 0.4176348280106291 1.6421718166434167
P 2.3971242122542913 1.0833270354636697 5.881412090640258 0.2975817938800746 -1.1744393006454483 -0.7562370301671233
