# total energy = -340892.98988755053 ev
CRYSTAL
PRIMVEC
9.07967342957743 0.00000000000000 0.00000000000000

0.00000000000000 9.07967342957743 0.00000000000000

0.00000000000000 0.00000000000000 13.28901985164653

PRIMCOORD
 96 1
Ni 6.169020618062381 2.0458592364264114 11.407746077215384 2.7409528072236022 -0.19985467694023 0.149536131191336
Ni 4.76970676096898 0.6022592726076881 5.9869695356871055 -0.633907027076934 -1.9539923798306928 0.0460253176901788
Ni 2.692586209226261 1.6121504799018649 4.77617966009445 -0.42204015616717633 0.0997559744444153 1.0377144622861676
Ni 3.1123485874975843 4.317057805853142 4.857761433039133 0.20914227288974305 0.35883601270486587 -0.11817587171249971
Ni 5.41962069911185 4.512089189238057 2.928181941233637 -0.5040434346138609 -0.01083642849387166 -0.9661871436701424
Ni 7.3465906927988724 6.093314301737267 2.8126612573041077 -1.1181827921455645 0.38145117900122044 -2.2087920455482344
Ni 5.174233447372524 4.54165260563942 11.613885532966833 -0.20521799813467234 0.2792616554146481 -0.08762370995725555
Ni 5.632802349507307 7.7983498399272 12.483040895493572 0.03039095358703153 0.3392308368794286 0.556867520393428
Ni 1.695710713667758 6.526823305448291 0.6117330037726704 1.101179829829665 0.42645242630225916 -1.1653666489202188
Ni 2.8713104992890486 1.6387539227937553 0.08012266943863354 -0.6103662636425164 -0.16211731029045628 0.2434233055598001
Ni 0.4844959093626995 0.10554484682873713 4.676313240973763 0.5257440595157462 -0.1575857409686899 1.0969634777554722
Ni 8.588036269495927 2.43539538214241 1.368782547513787 -0.02965381831069087 -0.4181099678748348 -0.11584336692458114
Ni 7.052391117173266 0.6270504127005266 4.693243199887148 -0.8527726979020281 0.4596160575384214 1.4530486671880782
Ni 0.7766244114990092 7.612843033877981 2.800408238129157 0.84738983632356 -0.7386812806715471 -0.39006977390816694
Ni 7.647209597477232 3.986784688039999 3.9443272275257435 -0.010213707308208217 -1.0820238257265045 0.10239238362599785
Ni 7.531244009553948 3.8981489168759604 12.562389068796138 0.8176030919794307 -1.1349484416396778 0.322265926890316
Ni 7.864676853690086 8.635096216427213 7.041638968001737 0.06658334434718856 1.198734425747387 0.030523108289521626
Ni 6.875528160145576 0.6965616679044325 0.4518036375277029 -0.4511447868426166 -0.37295445438411895 -0.035537530784977504
Ni 1.8127658623920748 6.458834711463829 9.187974777597415 0.03176880777116465 0.6134029935863113 -0.6634893687197412
Ni 0.19068766765813044 4.808894631112802 1.3682241476032573 -1.1010870130055423 -0.2602964271660549 -0.08565450204602668
Ni 6.37089807514712 2.052759788166288 6.969280327237799 1.4459215692249936 0.339909351003692 0.07694026210148039
Ni 3.453099648347328 4.372380255525594 0.3433242402748501 0.16670904342619675 0.04426616890722699 -0.5417427489368477
Ni 6.0036888461789575 5.876473542985007 4.8091370583910305 0.09510227772248782 -0.46399541755303964 1.2759891337654927
Ni 5.382938818810405 2.9079288218771007 9.134672555243544 -0.10196686605280503 0.32119300554111135 0.7501088057821985
P 0.09670760076502492 5.61901940537424 12.523134009069587 0.8537733712524006 -0.21427368057903742 0.789761130066498
P 4.012761633471295 6.237708346894172 12.655731742620638 -0.20943769264297477 -0.09710568130576179 -0.2715403755109904
P 2.368823217199291 8.422286832638775 1.5729281069993437 -0.10642258783131349 0.315849738951327 -1.2197416241266734
P 6.297806704744486 7.890463125981202 5.781667225817785 0.06174709930080979 -0.9111894472780243 1.0034545126620331
P 4.892745414425636 0.8907994878392622 12.802123315912771 -0.764422137081077 -0.16149613176668962 -0.5065780281102567
P 4.0281516797858865 6.254796292123707 8.384214854348677 -0.7712108778681364 -1.029917334839252 -1.2618843189329947
P 4.758230053864764 1.219599882636342 3.953909006803495 0.06315606383319447 -0.06871504597821068 -1.2789387033121198
P 0.20840392628292778 5.582110533239245 3.421377993592585 1.4065343256766227 -0.6319375620553891 0.8914330905867034
Ni 1.383497066131738 1.1947851353928143 2.598920299030787 0.6775455897024911 -0.3526640795661991 -0.9226663375693723
Ni 1.8223267584211398 6.513548823022372 4.807687942525657 0.6950938829988996 0.6659815390139756 -1.0513500507917313
Ni 5.973816720883968 5.640937736821688 9.312267333942593 -0.21526844039213897 -0.8994184227850252 0.2673679893008557
Ni 8.63910035237101 2.372890910856481 10.169475662286008 -0.6391633903798669 -0.8181368529957136 0.9258737887630765
Ni 2.547511188568711 5.291533747277073 6.934888340553191 -1.584343335670723 -0.5246816796895029 1.0575548940508626
Ni 0.46360812083956177 8.903918105062091 8.97770316250805 -0.2623162858095611 -0.171274294199376 0.7195648715570704
Ni 1.4583862118560764 1.1708965148301647 11.444862873869909 -0.7232034967509222 0.10810923150511703 -0.16042886684443983
Ni 4.415926368873548 6.870479861767457 1.4999320731668004 -0.8036137196788741 0.9388241782761573 0.6326387018874717
Ni 5.578850930509488 7.855470064921358 8.272321499919254 -0.1543230110570181 0.13781087233460781 -1.200031804402572
Ni 5.216962390119703 3.1062470470117995 5.015076761328956 0.33183942951136397 -0.08097535140280247 -0.0937071971471741
Ni 0.8252160993230806 7.444124543838014 6.891020806768932 0.44202328415732267 -0.17383228473453932 -0.1438694198238619
Ni 5.060646733864829 4.470477046311936 7.1415453376851294 0.0405025880997367 1.0798407020322565 -0.047085383523576975
Ni 8.103072756956118 6.784794984439549 9.3640941093784 0.6535672245100228 1.697169770145851 0.2484950636557527
Ni 4.634528584254146 0.3739191075678581 10.521421960366366 0.05244536228390968 -0.8080257327036408 -0.9178051528223291
Ni 8.23871399701139 7.165251456813605 4.631728412995491 0.0033910279594199667 0.5257574292521848 1.698564850721165
Ni 7.335431774261625 6.2602804148222395 7.170675653668082 -0.7407433054068985 -1.026674402421922 -1.5035662163216557
Ni 2.3383518334637334 5.114026133442106 2.429751457193059 0.8436550518714762 0.35832770560987964 1.2198077014779185
Ni 2.5030571078865624 5.407172466960048 11.16624492566641 -0.1431839637210631 -1.220448677496027 1.676970926600473
Ni 1.038887144111669 3.3630837668353144 3.6435703118125864 -0.30400415246665063 -0.2089054742885886 -0.1598395699998731
Ni 3.6935566374619797 2.8972874447203445 3.0014449174624334 -0.6003726427649144 -0.1315666911971089 -1.5919280899965165
Ni 1.112577772954871 3.0693109358567794 8.474859957223288 -0.410056501442739 1.2701059355118385 -0.8401730068601466
Ni 3.678629654487827 2.532675002327977 7.2036321439973285 0.19044983868656232 0.20911141965180763 -0.5812482632306376
Ni 3.9893814746157945 6.814421958554306 6.000975839784385 1.1227673261924533 1.2116979278865905 -0.45994567296369815
Ni 0.8440927402009781 7.311724747165815 11.397460623253632 -0.26924643727049113 0.5653346773241749 -0.2595911735689142
P 0.17169662289612442 5.603983466319984 7.953411593293551 1.1050066597749229 -0.5572303030494855 0.012693279196952333
P 8.510305186015561 1.5612498311469378 8.00494691121508 -0.3263514098135993 -0.02847213929776387 -0.014082446234995102
P 1.7884958955490637 3.256769871674515 10.629169535947858 0.9477147958975679 -0.09632046640030507 -0.5458580566568019
P 4.085725888447142 6.2025336923674885 3.6491515870158784 -0.8511035377297214 -0.38537493953565893 0.5749112652690164
P 7.007001830136897 3.904159660628326 10.365050010136772 -0.7440291752470218 0.7293592319396729 -0.14840895956542827
P 6.244881288834306 7.717404552083786 10.33582708148573 1.1242284841190122 0.13383414707504693 0.2024664035314642
P 2.4072483947823895 8.577258697239042 5.639952592264087 -0.30180868747722867 -0.10636268112765553 1.5774841466570446
P 6.830792609589827 3.835045187149463 1.3756258973116084 1.4858803690061184 0.5697793433590896 1.4931967001618736
Ni 5.23723730069226 2.779396966048569 0.6397583235099087 -1.4141085384794547 -0.4616356590716114 -0.9367048179403095
Ni 1.4653684806560296 1.0627666850009767 7.1109413907187795 0.18800574802144396 -0.5855882853668883 -0.9149918517432499
Ni 6.810690212810767 0.6516072972211431 9.107350910190304 0.44737066451216506 0.4412198144194208 0.465941742646133
Ni 2.7905014065457645 1.6146746290909249 9.290633196270747 0.49245393000404863 -1.0153723471455416 0.2763838196462208
Ni 6.3402087792513555 1.9613728759796405 2.6469199921529634 0.7189640047482779 0.23762675348268109 0.4072357441644922
Ni 4.164482975015147 7.008763286765234 10.47029885961456 -0.3716671030312631 0.0762126399068365 -0.13845441945587766
Ni 8.123275030141938 7.116983913327841 0.5714800879458386 1.0041834204082576 0.22561970171947596 -0.5546219188923609
Ni 7.753913918591735 3.852305646172495 8.205982682581023 0.19173076228151498 0.18264036994447255 -0.3888474714652916
Ni 3.1015346965473314 8.487996428614409 12.265738889335543 -0.15005549402991578 -0.6894515971114578 0.62430935608617
Ni 0.09224221741545781 4.813316432030327 10.411547925288192 0.3894509093772454 -0.3744068705599294 -0.32870474053712423
Ni 8.735944148236163 2.4769984453951888 5.963898993692565 -0.21910169809530006 0.002275940518370274 -0.36259727951951104
Ni 3.97627042631003 2.4786055475767124 11.37262317682675 -2.353963729123288 0.9960379084829878 -0.2315905745909302
Ni 0.9608745907577028 3.4830353313557114 12.735425851477533 0.3304983421024373 -0.21299275698408482 -0.9259650629253021
Ni 3.209746243436597 8.335194605942865 7.894115878566665 -0.6781580264755095 0.5181181675393722 0.19321814546031887
Ni 5.579786136863707 8.080337254907894 3.7414437426347162 -0.31735460563162765 -0.3265326725864699 -1.2914556048322081
Ni 3.207721476281344 8.54569775270245 3.6093245078687834 -0.46843005628562556 -0.9441687304175224 0.49498081019096035
Ni 3.277335331794014 4.231935868272434 9.026393818771547 0.27217235266803447 0.037020800198723336 0.9301474764377657
Ni 7.349205638721352 6.033379378007107 11.548915930368565 -1.1967868151027132 0.9440872264473095 -0.46183954755230144
Ni 0.736228944800709 8.809244351125662 0.13282290944993366 -0.21888495409880368 1.0241102412391718 0.29089821121231196
Ni 4.194327861290111 0.5829540711480509 1.7548284667971425 1.158996740838133 -0.15545429644798386 -0.22727446371407956
Ni 6.164771330938351 5.648528343735551 0.47106888842463557 -0.434072147631046 -0.09218844650980251 -0.05904846942272411
Ni 7.88960963668706 8.945221539094586 11.144557217921847 0.6785539763623475 -0.24405759670968938 0.7892607933913117
Ni 0.3469488458729533 4.804509148888643 5.509042769987301 -0.16413176961732379 0.31630199599739717 1.542838017338085
Ni 8.057529115472937 8.937794366300876 2.5439964470180447 -0.3776734571263431 0.3397887662654277 -0.44568916304468403
P 8.501997284907684 1.680157233233011 3.606573366846175 0.6724229237639452 2.104224251537473 -0.23962630041121313
P 1.9929156611695473 3.0613934607026057 1.376848929310768 -0.9262723097530756 0.7022760025696356 1.7461235743367347
P 4.8675674802484306 1.0092329309768862 8.1740358519274 -0.686162899057857 -0.8758997708377947 1.0855932882453174
P 8.341541297608883 1.5887794007197062 12.442363050954338 1.4140177785378614 0.33330958629898727 -0.22463856875312926
P 6.455738542854227 7.908740508418531 1.5910011967864794 -1.5021006875197227 -0.8208653076704702 -0.2666007721175279
P 1.8598893670367542 3.109933394388628 6.32145380599624 -0.8780165600704813 0.9670433210228507 -1.342312025362443
P 6.933583591493954 4.161414045425571 6.086384695042697 0.5339623336604804 -0.22054897206478793 -0.4282370290065077
P 2.281876265276854 8.607775479341308 10.125568177939043 0.6495694162045393 -0.14735789259309462 0.34698425557260243
