# total energy = -340871.9049270304 ev
CRYSTAL
PRIMVEC
9.26307069748317 0.00000000000000 0.00000000000000
0.00000000000000 9.26307069748317 0.00000000000000
0.00000000000000 0.00000000000000 13.55744029129919
PRIMCOORD
 96 1
Ni 6.0871250930989165 6.451487983654866 7.94583991478215 -0.6521569744260576 1.1572324498488586 0.9938085049318367
Ni 0.5804184595017527 0.9966137891169333 9.630839737913433 -0.10014755345587914 -1.3802936468125389 1.8356491293023935
Ni 3.3228209739814014 9.411279949277853 1.8650424253577922 -0.07028804689228539 -0.6582540884627309 -0.8541443814385742
Ni 2.4555474426713246 8.493161422257554 13.219737789555298 0.07210735948921129 -0.9946130031110032 -0.6243407235447377
Ni 8.879246213877535 3.2446036040092534 2.0344565801297727 0.48207490076256976 -0.737720973640807 1.0446322724519237
Ni 3.250689441535509 1.1299556935163966 10.251173695869353 -0.7737246454289256 0.04307883346734516 -1.013871337119983
Ni 3.0581194623371455 6.334476873104395 2.967628523533508 -0.2257153467570758 0.33029959582806984 -1.5590675918230696
Ni 6.7395231706851755 -0.06415047063063863 1.02237068382851 -0.5603379954405318 -1.3335916147703095 0.8448125625146871
Ni 1.5027665046567367 4.1092186339950745 3.1591684492571086 -0.7704696288267375 -0.023497311790991793 0.639175474564725
Ni 1.5461825175723525 4.18095185439587 5.74172556111793 0.39576579585167965 1.4140553166440162 0.10242375108456553
Ni 0.1333261571790757 5.913192412382784 1.8387417883893031 0.4109931543243954 0.6841037025359832 0.21911043984604844
Ni 4.1099689427311885 6.326075267874085 0.6469912231508324 -1.7642603931467615 -0.12417451249809583 -0.05691779623296649
Ni 3.447900219212798 4.748666938580261 4.392285109839566 1.082123327418846 -1.5132891000363744 0.5463427096027043
Ni 2.019840380688862 5.958933456073271 12.572614104491793 -0.04186912942996015 1.1997338135461788 1.279902609887286
Ni 0.745919893160963 0.15675246327329195 1.287730799807799 -0.14392546987277793 0.566542838699663 0.5858374252632168
Ni 8.121740071739646 8.172724013512113 2.7002898156278747 0.53058261855497 -0.39352893610136097 -0.9304614081337589
Ni 3.2852684848924523 1.377372315017589 3.773252613333325 -0.9257169514702379 1.9080246548513267 -0.3705982954471166
Ni 7.184030149943046 1.0244122646364044 3.431103492901749 0.2546695678975808 1.357829918492384 -0.03509581526186859
Ni 4.481909025214804 2.648145211082137 7.154139146726191 0.26329381923148204 1.261487083494576 -0.19900904111048306
Ni 5.170025503868402 6.809589038339052 10.576850297468447 1.5425994189647174 -0.7439548703656607 -1.2827092260981456
Ni 7.831240907872223 1.9909859150963416 8.88882700802275 -0.6191553226890563 -0.5166868344094844 -0.9576937614871507
Ni 1.6515684742484686 6.833219131991225 5.167160436064946 0.5613273559369946 -1.1194506031143947 1.7602075632336265
Ni 7.218220144325708 4.652497737366282 8.370269188045867 0.6208198548756727 -1.7418804827896646 0.10395792834090485
Ni 9.331988063091023 7.495834376687772 13.326299229917993 -0.8397654870090827 0.15288627861049153 0.5173825749249282
P 0.660437496747655 4.333051477198175 12.01861670187914 -1.4984494639203807 -0.1667445246498225 0.8540613348064647
P 0.17266456632139185 5.316076341427716 4.467230763199424 -1.055920443771233 0.9347047567911451 -0.5959596012988834
P 5.213886144183196 0.45579588366159574 3.911742006185361 -0.35949601488636795 -0.011365561524464296 -0.6936538081182634
P 0.5943658652297327 4.895486611017322 8.651545112301582 -1.8561410786081582 1.4515474000522033 -0.3876969028006162
P 4.398995278338834 3.372952713238775 13.528305499356838 -0.5431110900392839 0.4617698706566305 1.4452769936624592
P 8.752684877315543 8.283964230944079 10.558589079661354 -0.5219596527726494 0.33422001392839856 -0.4359066297366235
P 2.0409323929373913 2.1127211917630833 2.056433215641251 -0.36510153399860346 0.0261288358765679 -1.0101429804258022
P 5.657096293526796 0.9116251143781299 10.34629246485277 -0.23714595719152062 -0.5007976739830537 0.6628576486730132
Ni 8.518736760781133 3.8192474651641755 10.312792569245918 0.24279107129243993 1.6624462506217366 -0.19069820725194256
Ni 2.9271674302082666 1.5610404831615667 -0.12125637590554318 -0.03447103719367612 0.673432338865066 1.0104736242923438
Ni 2.058532227488206 5.169747611743915 10.347431822563166 -0.8020669440170445 -0.39477746379648143 -1.4659563763886818
Ni 1.4532183388607849 8.09177403764918 3.3702849488437043 -2.256202416511398 1.5931825312289079 -1.579880671913679
Ni 9.01684913085246 3.7037740243691974 6.858410979383012 -2.2883424915790527 -0.3158620802465012 1.4086434015998257
Ni 8.996748267181266 6.184924594776549 11.313019882288257 -0.4250478326452487 0.19945229929548874 -0.3053727506794031
Ni 6.399596260942411 7.970659386727125 4.509489818570095 -0.12753854387432229 0.36933408402271234 0.7125208202260954
Ni 8.38323656088149 6.877051983093569 8.83629242819565 0.0542271367746808 -1.1187957431392153 0.786564220395755
Ni 8.183283914242601 4.538395231052104 13.657901417918222 0.836017075710244 0.986448979242972 -0.7492878525428
Ni 6.668642152799473 6.417733353600566 12.395337455211006 0.46386069174738825 0.5052132865522461 1.3494828320792696
Ni 6.627801273570766 5.726643429214962 5.639894771021078 -0.38990959418121884 -0.5019495281993097 -0.22761179244884025
Ni 8.891862516329224 5.993141976597565 6.667495384632425 0.6379192335601207 0.3081048048985855 0.17005250597713295
Ni 3.3390128217681507 3.990271541644015 1.8349995077795511 1.337617190989935 -0.2531785851743511 -0.7517458271649892
Ni 9.044082559052141 8.760493646013616 7.569172887261018 -0.09313281270094283 0.9559297276081923 -0.8066823313018687
Ni 5.563993168752985 1.367998087351576 13.217988921785196 -1.199506270916405 -2.3077658904109866 0.2702777067484829
Ni -0.00923806052501457 1.981611687430329 5.243109279994202 -1.040550646183382 0.32339824072254625 -0.4048489890998705
Ni 4.39778181606191 8.663268454726587 11.58633790240576 -1.1629811794071776 1.3036099808065549 1.1029788307116164
Ni 4.2883201082266575 5.23851664948352 6.530225938206885 0.6201421120823577 -0.14039303123948724 0.4073082492736405
Ni 2.3995058642332037 3.2049669239866554 11.718048580034486 -0.4378946067009297 0.7629730633393763 0.08195931258262659
Ni 6.914585946040886 1.2850843404756054 6.336354497558842 0.10040594932358836 -0.42542809880280275 0.10058129855918806
Ni 5.871202912372866 4.894773354564474 0.5335501000929326 -0.05524657917813066 -0.15440888590260504 2.4573331319505742
Ni 2.312303315569324 0.6830727365941661 8.010183057285765 -0.035268593394307005 0.3453840009650181 -0.8362595307383535
Ni 4.4757768723344675 2.4167907543762674 11.714455434864876 0.47856251673393707 0.3041969852037471 -3.407845545197937
Ni 5.215720232204807 2.1611670521319053 2.118105814828551 -0.3373696153009738 -0.26351750520651396 -0.39703052149671625
P 6.984272027791297 8.161793589948974 6.885661081110164 1.2441629903938314 0.37103075499884486 -0.022933468867721796
P 4.7126984346008856 8.29138395066787 0.30470593557825804 0.07189447214745683 1.9566457582931398 -0.6572811830265003
P 4.9774833138824865 6.287420473358006 4.070892678492972 0.5861991794780098 0.21541576460328063 0.8721798987840462
P 0.24730361203723453 1.78109399347165 7.506958398430969 0.8155220410806858 -1.7697155027240619 -0.17766991331307466
P 3.7972198827632084 3.337799359491226 9.019154709178617 -0.664492870283591 0.22530294181000554 0.9468755878257241
P 6.39582619112021 3.458145175535535 6.302189513467384 0.9529619032291201 1.5228561748995193 1.3431715451492607
P 8.049163911894576 0.5813030827647016 13.127832379838024 1.7513668250135452 0.2114729779054487 0.255385877238315
P 2.747927009914441 8.147908246795463 6.965446688971497 0.1581850651155856 -0.10809946131310413 -0.871465389215525
Ni 5.828602049689078 2.968508515261049 9.736886151538744 0.11177870993690427 0.9725429106848413 0.15083788072189505
Ni 2.0986042718391666 6.081817353521223 7.5215051248407585 -0.20112968699791167 0.03134997506619117 0.11973318889729058
Ni 6.853579361645273 8.753268450776966 9.184867340852437 1.7681476440163097 -1.3123123936765593 0.703052475724344
Ni 1.2600184708469186 4.3066146730886885 0.6427922731498406 1.2574373389052342 -0.027839905030403667 -0.09905971970833907
Ni 5.462682963236005 2.633166825572312 4.561590886682996 -0.33069863103870145 0.4107388722217442 -0.4595967742647117
Ni 1.633764852139697 3.030904560279096 8.895158316925635 0.2420691055247508 -0.008676958948707637 0.1158089141422199
Ni 6.688168706080061 8.682341117537183 11.827931757591877 1.6345145572084756 0.8250623764709533 -0.675589751527701
Ni 3.96936479081181 5.517974232938012 8.892799939095825 0.7019214474436943 -0.49750357661281414 0.1829141924311495
Ni 8.02669170209443 1.8377284084420091 11.357949480975243 -0.5145739018315396 -1.1140656846533974 0.19093911961815502
Ni 7.557387482261543 5.962962891878325 3.20310782567384 -1.448369516544854 -0.9621957631225622 0.7754434278922452
Ni 3.695214946935012 8.025033612418326 9.057630726427941 0.4624504416634229 0.3122309112518171 -0.6669228198813224
Ni 7.2495478498261585 2.35005959221623 0.6121722662597493 1.3170763907241059 0.4894804491980216 1.5334046398393268
Ni 5.191728878790801 0.5626500370620826 8.210724835228566 -1.2720514892739834 0.823424069536582 -1.0838086855410691
Ni 4.189575773325769 0.8465316631384002 5.834987084402697 0.15750526543974164 -1.4010432206550643 1.0131907661131905
Ni 7.839077465782744 3.717983575001276 4.4702681241200635 -0.07414444452389811 0.5277145529785557 0.9485226365108438
Ni 4.925878746365335 7.72516022088489 6.428937964059863 -1.7719626468870258 0.3992082458743254 -0.5726306967649558
Ni 1.3480824850967064 7.735395914136811 9.435463048257754 0.24434530315343725 -0.31288602833731277 0.09821048433416635
Ni 5.2053270667490095 7.925400022719082 2.4604179653064926 0.044792987944974466 -0.9517565700671091 -0.3519079181264649
Ni 1.7025616790917506 0.6422902147116016 5.449643338448014 0.8582326925753349 -1.9451117895116115 0.41133819636864
Ni 0.4199440943745042 2.271101176578785 13.378983871492315 -0.49040424656387155 -0.6603037719029079 -0.7441757281272152
Ni 4.212474084383461 5.103349920133262 11.94739943452281 0.5431437430494324 -0.6749477470683279 0.08639420842552863
Ni 3.4554866742112806 8.28633557707303 4.3066832198127285 1.953069096685475 -0.47355632176859735 1.0945260719585728
Ni 6.421818367830518 3.5502200994487456 12.385535273673284 0.45346546455599324 -0.5432537862647353 -1.783726472291173
Ni 8.625743754850088 7.642098264875861 5.007752250388644 0.5670971685412363 0.41306983434776606 0.15293204424676243
P 9.272333887034577 0.5886987185043702 3.549920902261382 1.0967482764208725 -0.6909659768734552 0.03618776277446671
P 1.512020312402139 1.2730423484145215 11.718929498069109 -0.013878557754305128 -1.2671357971399209 -0.45696293618629036
P 7.212514092702917 6.714142356648737 0.9614761825897723 1.312076366406353 0.07745448273373758 0.9381016982878361
P 1.861960601697236 7.196405612553514 1.3818695358988629 -0.6343394866286624 0.48446988335730756 -1.5402193487683151
P 3.034869154588437 2.8417804434243656 5.3778434239373425 1.2934045010284627 -1.392744728091698 0.22440665524798126
P 6.860813819952738 3.5097126907694225 2.619541774708736 -1.1024378706064821 -0.06539806578983576 -0.7943598051807738
P 3.005922058287755 7.005419618464724 10.936475127301899 0.1953105092129733 0.8456029196264664 0.2084267348799572
P 6.52849189135009 5.025271496223358 10.882150922193105 0.34609079722405556 -0.6763924499346544 -2.6067993291359235
