# total energy = -340890.4615010016 ev
CRYSTAL
PRIMVEC
9.06634032790518 0.00000000000000 0.00000000000000

0.00000000000000 9.06634032790518 0.00000000000000

0.00000000000000 0.00000000000000 13.26950550961218

PRIMCOORD
 96 1
Ni 6.202555316237356 2.0440517282129025 11.396647106662968 1.1424424360238776 0.014384293746130065 1.2687519925871054
Ni 4.524475476255106 0.21197919341852275 6.035819880283962 0.8478024983809463 0.16831058358536174 -0.004087796916128443
Ni 2.8763870896313026 1.5101712196078816 4.873464296036231 0.21968508140259585 0.4584040395081912 -0.840413662116043
Ni 3.3561778126448836 4.3857695376423935 4.615864185400551 -0.2814638052722895 -1.4028008267761196 1.8712751060361192
Ni 5.2189118033379716 4.701105915895139 2.986103405476897 0.6329438918327164 1.1401955489712299 -1.428856900433223
Ni 7.509232530213343 6.742827594678441 2.7674613586505385 -0.44373743863495185 -1.4976449657412143 0.19241030484704283
Ni 5.045427383744909 4.7022664074398435 11.569867695756415 -0.5677574278330545 0.17262258069715433 -0.6739707278670393
Ni 5.470629672456434 7.917535160805115 12.632768247988988 0.2427062248881175 0.05820694735803524 -0.3617760691697963
Ni 1.6988961570653776 6.2067802307672935 0.665326121991179 2.0739335709737317 1.544945807709707 -0.5171609458324256
Ni 2.595203614885589 1.5002435770965463 0.16804461547726218 1.1305937642154076 -1.739183909794108 -0.1973465658063956
Ni 0.809429252920785 9.13007656455718 4.627314973064309 -1.4391210013633926 -0.025943973559271447 -0.9118461070254166
Ni 8.842546651676365 2.198823221647612 1.4187888569005729 -0.33982039083431154 0.612784643276022 -0.576592252515865
Ni 6.802456914127805 0.6956766024212672 4.791219897609448 0.03740852255544525 0.7410734350528075 -0.7213435607240479
Ni 0.7427118687085338 7.573803005067892 2.5446669280157854 0.2123006160130666 -0.4785164939873501 0.01695565401773209
Ni 7.470872844856758 4.005073912938307 3.7804553346567227 1.1412481586054604 0.09662591345586584 -0.12008131626532867
Ni 7.8804900947765155 3.882179671622187 12.781014696386796 -1.3551318028349306 -0.5563227036335515 -0.8792360342998793
Ni 7.887833830332847 8.930354156445574 6.90697640377477 0.4940251311459104 0.16024400452714338 0.40688298881076373
Ni 6.783091211475556 0.698773664231196 0.3114206259233896 -1.1561800973249443 0.3692021864305383 -0.3536387847746426
Ni 1.7965587736243778 6.268186552894485 9.09619293135388 0.8115841394788603 0.5517865063260948 -0.16485399249532898
Ni -0.2266974900878396 4.943612383377514 1.4221062307771917 0.23499420095584045 -0.02969058508589725 1.1678652469723565
Ni 6.27077045984949 2.0461913844984503 7.0368190882148065 0.8460916863374268 -0.6302005247596243 0.27532529647471937
Ni 3.751125724132366 4.519697514973395 0.8644800705726835 -0.8002761706652088 1.4831233750862716 -0.893337506698268
Ni 5.793908164718249 5.530676043554675 5.116057800384459 0.8623531425016115 1.0417912034587027 -1.258938091820477
Ni 5.490049773149841 2.993143418636762 9.371216734572469 -0.8652001250321036 -0.23220892490121944 -0.8040307526116346
P 0.3767617396943434 5.430130330814301 12.583644096921255 -1.0822845355870587 0.9137124708101941 -2.056893327661993
P 3.933250365929358 6.316573610504529 12.673147007306554 -0.3793909540380821 -0.9667093347221997 0.02143811526911792
P 2.5802804189279103 8.268402526274231 1.3720273940871346 -2.008730137693205 1.2170105983487556 -0.6182443808390127
P 6.44893311098214 7.8431549058617405 5.7530470761024155 -1.0525322440252904 -1.4297886682188732 -0.0379566817494314
P 4.647569177055473 0.9537880546438338 12.551837562256171 0.04770399094418236 0.1808801927202562 0.8194658562197823
P 3.979053516584396 6.065907436848454 8.185957761729181 0.29059276415675117 0.5805417240819163 1.9961260757759494
P 4.807726076564824 1.2544278954437267 3.7140951642480755 0.1620275787901274 -2.0264877187869423 1.9925149613859232
P 0.16061384305507906 5.583088556210411 3.589998726222363 0.6002615711083468 0.16735850408473757 0.5558007696918106
Ni 1.7439286688040105 1.2002293137699702 2.396021560649486 0.15207046757741552 -0.5590979523858436 0.9132638133085497
Ni 1.8584002800808335 6.55759319819525 4.962635378370468 -0.48357745345002523 -1.0681146718445798 -0.919686429005442
Ni 6.077068101626037 5.789093938075766 9.159581155447261 -0.6869406577641459 -1.0209177024438032 2.0685756490959277
Ni 8.639569427435474 2.1101453482198753 10.419666447171421 -0.2596857901652495 1.1015634384213286 -1.4399314130798297
Ni 2.5870167096913095 5.156762041314953 6.791000686659929 -1.0137396966381251 -0.5560892474665068 0.9058294685176915
Ni 0.5416521754184608 0.054422520276523424 8.852273021435416 0.4461470765177091 0.5050811318497559 0.9428559251433697
Ni 1.3391981762482803 0.9221102620094904 11.333086622105919 0.5920209283661094 0.7186410741912205 -0.20020486119079717
Ni 4.147361055927256 6.768838924692159 1.8063513276668375 -0.12944116021367386 0.3725191666189133 -0.5730947808855678
Ni 5.639526523911838 7.829564461912432 8.013175983501077 0.13959058994284992 0.5956924636804256 -0.02245318679719359
Ni 5.263291538582708 3.1284313469967135 4.90874867879935 0.390637730596495 -1.4509131089023142 -0.0033928277316328664
Ni 0.7488787933078127 7.364288949547846 7.0915689033722975 1.263368873898321 0.14126900608653734 0.13045468907985275
Ni 5.168230961659099 4.443431461269876 7.231150650447654 -0.31407567777003975 0.08356239540368834 0.4071295576039311
Ni 8.292945109176681 7.1895987067091145 8.914002105273479 -0.7699068143447321 -0.30601886890383423 1.1693711420939215
Ni 4.515091814155351 0.48944546868510663 10.362621034677062 -0.8436961895220566 -0.7890525340352476 0.5828919694816478
Ni 8.489249507035526 7.141501771985247 5.261132842982755 -0.9912870240615638 -0.3169108332259897 -1.5679823778141964
Ni 7.086577883096051 5.957301747676501 7.17334819854718 1.3311518949805654 0.3141080736698719 -1.98854903475964
Ni 2.320783629923853 5.063197410523189 2.7261007146900704 -1.7690588429766694 0.3264403699829797 -0.7066417357374991
Ni 2.4669058348144404 5.298378275129619 11.193942779261885 -0.4615323007245278 -0.4350648505616184 1.2071190502666567
Ni 1.1352871189675084 3.185658086294932 3.968165748646622 -0.2773006750335353 0.19381772671753073 -0.8521903430359969
Ni 3.9772946465869543 2.8367218512869266 2.6957928460588896 -1.6213057718276853 -0.05161258196996917 -0.892167911870199
Ni 0.9916218922692244 3.3526056746088413 8.247249847969941 0.11256598172489 -0.08094424105455093 -0.44450825536270544
Ni 3.8094948222949028 2.6636998150437066 6.961686327035412 -0.8954388693119869 -1.2455745260293773 0.13569665420508242
Ni 4.260001266485093 6.788793939456953 6.213671555947993 -0.22536619094777316 1.3700889383653951 -0.8297068172215001
Ni 0.6631347875665309 7.45458969787013 11.109441768761064 0.5799267162057367 -1.6337869350138312 0.4154925848566457
P 0.10017036625638409 5.390546689531661 7.960760750943283 0.16419270476224626 0.6918139266960472 0.5002533714438094
P 8.341150839982864 1.6985969678390085 7.953197609954283 0.4466458705309985 0.4630487373690542 0.6244178566395763
P 1.989345431488338 3.125412255712445 10.39793170982674 -1.906753244338071 0.6521587741982704 0.9957671713201045
P 3.8001655582363054 6.291885966158988 3.9199446050621107 1.2232527226037255 0.38587553332116126 0.1458298859843424
P 6.869810755421605 4.0499613632338525 10.683690059833841 0.26364194659952017 -0.33303756358452324 -1.0140911664402728
P 6.574492856315003 7.709054668067071 10.364996415807628 -1.5319360257136005 0.09189662630099657 -1.0264396607032968
P 2.478964067271131 8.35089715569034 5.859004487303991 -0.060699631872901914 1.5023742528960837 1.2421760418707897
P 6.856782424564264 4.03179241748708 1.544172715233691 -0.7886627547959966 -0.5606807234919312 0.32397931003699687
Ni 5.16684381160957 3.0083295384600377 0.22679993973202048 1.847343020700554 -1.4516445877517 0.6530298639493141
Ni 1.2817175794246578 1.0672895675200056 6.727360418309182 0.42496272913061 0.4722517440245608 1.1338505805898087
Ni 6.830698563829001 0.6346537864842394 9.471733435024227 -0.2620864291869422 0.25069849906497466 -2.200355227634791
Ni 2.742649505444354 1.7326864069646901 9.03487455272656 0.2160551979594924 -1.2516855240231217 -0.17864616118341492
Ni 6.423084975091896 2.0401985336308774 2.5291680194558515 0.9747008375681084 0.3114737213708184 -0.32421636574846746
Ni 4.412823496778307 7.036350358426829 10.54493062981399 -0.5914614563182137 -0.3702275423712592 -0.9539150111710087
Ni 8.056712549107864 7.312375085602725 0.1616038874041547 -1.3503685771183325 -1.31577309853165 0.4353505001228373
Ni 7.667340436839077 3.8721341666883426 8.475166760813739 -0.6580167756409441 -0.7956060188830492 -0.32111227290184696
Ni 2.952825403798489 8.360761333820326 12.178792115406939 0.4959902252920813 -0.4054745384990113 0.8438712816473404
Ni -0.07800044458244022 4.541556461178719 10.452362389809437 1.89931247178931 0.47602895167880593 0.0802893810793714
Ni 8.562895388423268 2.4649203063121736 5.70609975331502 -0.42497866997021 -0.5699870884945215 0.4438827059635646
Ni 3.71418038784589 2.7144713201245088 11.62769553340943 -0.6153763152625982 0.1563855500130016 -1.0085193287794503
Ni 1.2537297872488655 3.3233123294452573 12.72866655474643 -0.47605209160725764 0.2655250225548459 -0.9644012554143133
Ni 3.1435993341396036 8.5738656600568 8.071933121023873 -0.3064330736231174 -0.9539846880666797 -0.3264735372137603
Ni 5.465960507257039 7.95426290492696 3.607593772634919 -0.5409019982031071 0.019825519366359404 1.2833918539874674
Ni 2.8125872536931595 8.279690119814516 3.60921211435937 1.532048897142381 0.7257488888805953 -0.42606907482091144
Ni 3.3107101165769866 4.128330807862148 9.025002214890401 0.6639506246268758 0.5755555837212346 0.05139018154651794
Ni 7.355222609354845 6.0475390316174344 11.378454588431694 0.4094186107484239 0.2716149375026677 1.0207282121408163
Ni 0.6282393507976917 8.722626169943549 0.07874207121022767 1.7453918383770328 1.5517584597561662 0.7915192504081852
Ni 4.518319431264059 0.42491488572740704 1.658037788351602 -0.5466808096684133 -0.13511198534620603 -0.46546120346528874
Ni 5.975706418268292 5.659680998160878 0.333259626180289 0.48736597395818004 0.34090822458185155 0.9228961941919913
Ni 8.034291489810574 8.938930914268154 11.287677857249276 0.21611330489093747 0.025825959924168425 1.408836234336922
Ni 9.32672548334336 4.801261776007215 5.806960974694111 -0.5646116831152211 0.15291404652463345 0.00041060517485735736
Ni 7.9173085023002905 8.943246492200021 2.1605007082858187 0.7665078159655122 1.1585717374855724 0.9301819292201271
P 8.576286372888331 1.6206445748595912 3.560792417924632 -0.21138581750828114 -0.3172075385308021 -0.0875943993812169
P 2.171388476223593 3.1633730221005374 1.4093943151925856 -1.0076739500600196 0.16290921006413234 1.4800604198902316
P 4.875279377342871 0.8360543741655693 8.293931526989681 0.06307790229709136 1.9572733645748097 -1.1408663497860094
P 8.319736144446999 1.6666743840194542 12.487506438782718 1.0826419189264773 0.04040205796613042 0.7566106114564582
P 6.048282471513261 7.888196483940566 1.5004493830189272 1.9005219187163784 -0.5897496158334294 -0.51077175447663
P 1.8589714595129925 3.1962203726197775 6.077234015651569 -0.032716516396414624 -0.7392780337152817 -0.4067132960021189
P 6.931987716465201 3.9390165582921064 6.072390776720468 0.9114612128821723 0.44150494976000737 -0.33133086530606165
P 2.3510470734880884 8.450182647143889 10.072164507181949 -0.3820013950777357 -0.22128842133397372 0.01587630491062427
