# total energy = -381165.4681468309 ev
CRYSTAL
PRIMVEC
9.28352124914008 0.00000000000000 0.00000000000000
0.00000000000000 9.28352124914008 0.00000000000000
0.00000000000000 0.00000000000000 13.58737174082171
PRIMCOORD
 96 1
Ni 0.0829677590915388 0.6054805491388988 9.386387457469716 0.10488866768529032 -1.1968197252231774 -1.5595851548894366
Ni 6.579630806616742 6.6180460181642005 6.704851585001926 0.7205807144160945 0.06876878203428156 0.6411660226321925
Ni 2.181822482623283 0.5128142952422297 3.33699054564756 -0.5560038868415521 -0.4286553474908488 1.0549999888394928
Ni 7.169459338677581 4.540254676333768 7.335455199749749 0.16217901676632715 -0.8671850166726163 -0.9748689877148565
Ni 5.534278446568791 5.22191580206968 4.820650443248897 -0.6415223775303468 -0.3126780260915647 1.3471516128429315
Ni 6.11453566806766 0.32952973226942517 13.234222335118721 1.0602753783058192 0.2731077199981103 -0.47318299758957855
Ni 4.266771419452045 2.884492217284255 12.247711718751594 -0.37144598815939256 -0.49629464390637756 0.9537885128954735
Ni 8.09386598194441 7.0122243367492825 2.4339740640352736 2.0687348003816117 -0.21201856599627358 0.21277087078126583
Ni 5.076006696247689 8.696013746901206 10.676440444655132 -0.67130886476416 -0.10954287862785006 1.5364076883317088
Ni 7.920217714183365 4.701722964019833 0.8642726334073171 1.1099742881928434 -0.44012272470050007 -0.025911834769755376
Ni 3.6316950040943703 8.046018712655961 7.583764331654854 0.18337879077239388 -0.5202917781519234 0.26722503596508823
Ni -0.06936554353829193 7.027077970987062 13.627590202285704 -0.6141085042937682 -1.5448612184157007 -1.6255768883992132
Ni 0.9322048012416633 2.744635967414159 3.699121220012492 -1.0535956522927983 -1.0030819598139629 2.273531394708149
Ni 7.746068136266795 8.956667177210047 1.5305769580456445 0.21471565321246247 1.5776443263839928 -2.1788132397979574
Ni 4.743294572842819 4.551367051447907 10.622416848580187 -1.8221328399835135 -1.3959802043098604 -2.535957209512381
Ni 8.81353384428624 0.4415372746479634 3.342289579661888 0.12091949589590788 1.400326139983382 1.2623512312670842
Ni 6.692100668360931 9.026256453614046 9.249467585418001 1.7093516569240241 0.4498551214969156 -1.2820014013978438
Ni 6.8806397044453504 2.8944163016593714 4.216881775455902 -0.2589586821912379 1.9177832768999876 0.4132163872279593
Ni 3.014554352078814 8.176804962119613 1.262682381045887 4.176022778446073 -5.122788580166809 0.45327828824585165
Ni 8.349868368032546 2.672762944746102 6.012805912229526 0.07956073044346298 0.8895374162258874 -1.6216942655153554
Ni 6.2610296357377635 1.6944840268031254 2.3567026736739236 -0.5473752646322767 -0.9610333673833449 -1.4745603160076088
Ni 0.7116998159254022 1.7304391051799513 1.3880999700847205 -0.30535243896442893 -0.8083034118450596 1.7311849507490313
Ni 3.8194913584669004 0.16815427979734596 12.683295471126629 -1.3128849783505776 2.015917399470264 0.6628409365024649
Ni 3.042367782189057 2.4566704171506015 2.3266611984280137 0.45258871837799475 -0.925794855896025 -0.7097892802275454
P 2.6147130854405787 0.6966354457518739 1.1248852162220033 -0.6112530371228441 5.333160611698596 -0.8300487739419512
Ni 6.9228611597662395 6.758134356069261 0.3280425121413675 -0.36173107486447376 0.9339254554229593 -0.8007873059736724
P 0.5325018590722669 0.9331610039457203 5.378968846978565 -3.1374516245865642 -0.7968568605710147 -0.6471420377099693
Ni 4.273789761629397 8.642559230687997 3.2426263356870844 0.8078892071257764 2.252899320280094 1.3883247446471316
P 5.681682199335958 2.964358351876517 9.579083654436435 -0.29178164225852976 -1.3182434144490134 -0.23220018315047108
P 8.631511840223647 6.545077539971107 9.8363467427305 -1.1683326735270783 0.20523316764332394 0.38011369113671956
P 2.3109933993635754 6.217666307284845 2.1430953447568313 -0.05403790358201016 -0.2946841606173054 -0.8120405102899887
Ni 8.053529081467438 0.6442308958088467 7.020663057700621 0.4059561061211202 -1.4219802279180478 0.035448056394964754
Ni 1.8641960814911587 4.161273482278214 6.1685444105083675 -1.5772247223480709 1.048992092082516 -0.07071639267895563
Ni 0.5310619849033421 8.265843215853703 11.150871092322658 -0.8876024039867036 0.23974045739157418 0.6979058985263981
Ni 5.653766650490331 6.096831992760507 11.646646412389874 1.8051041666360008 2.172248442096246 0.07763317440344694
Ni 7.217724366428966 4.570472538486252 9.59883991632482 -0.12220941835192502 0.3875819744893067 0.6622560105332724
Ni 5.542652182870339 8.378099556605726 1.4888363891332035 0.09489710369021721 0.22687954226850604 -0.13957490621356608
Ni 3.4380221806765188 5.340986247528282 12.463614862510562 -1.0310200809851275 0.023911516510274948 0.34811245563977466
Ni 0.8984424906191897 8.159639731053579 1.5987987717476275 -1.5399946343520188 0.445723101606413 2.2100133195498457
Ni 4.932000712312413 3.8994688953159464 2.88385165430775 1.5636680667095586 0.005725589629867559 -0.36100216711824923
Ni 2.1430823478268732 4.904818561657277 8.641161132365365 2.960933565489746 -0.6218423826029162 0.05621588506993544
Ni 4.89415179557027 6.101872944879952 1.7708010711646982 -0.06997025854155046 1.1919747384260504 1.305945313807951
Ni 4.1660359287557025 0.6634347881740164 6.045171052881508 0.09793409074432811 -0.23789800486619678 -0.07837030967978761
Ni 7.919159392743922 7.8779405577340835 5.133866243364541 -0.1351415530325608 -0.2325110295226705 -0.07156177139838643
Ni 2.0915680875859732 3.993984426675219 10.852220208929298 1.8496999509685048 -0.32328125552870773 2.7476952681537585
Ni 1.3770618631417704 7.572596255412323 8.978725752405289 1.863570795413326 0.08515545092242109 0.2614585657949562
Ni 2.6690959537936503 -0.07398038202554215 10.657160427414494 0.27799384444581804 -0.400317162667788 -1.0875483550891591
Ni 1.4050702472013843 8.897150521523542 7.049291580989661 -0.2322721740389871 2.6529256911803407 -0.519515304997215
Ni 7.059319640804444 5.292823338512282 3.158303182471348 -0.511075658870294 -1.8053898161972197 -0.1760071808986711
Ni 1.8300420062656635 2.7315926198491085 13.286587894271872 1.1300708018324022 0.43225592035791366 -0.9019481311854143
Ni 5.62165494997253 4.900687394634894 13.583472123543078 -0.21534120261160333 -1.7216430726968672 0.1660701242906172
Ni 3.611837551822738 3.056673688664319 7.275426093682042 0.23457459691991858 0.15461380282455953 0.5148793488871004
Ni 8.158702095392318 5.423618871497331 11.745807417857014 0.36002977590265095 0.9977911437286686 0.4985497584891414
Ni 0.16041553635946268 3.729923944013088 10.006976937684856 -1.452645775322705 -0.7373548485506398 -0.6365398367140909
Ni 1.176779172488107 1.66802599081708 10.964723491350522 -0.10058772631709129 0.832849733725856 1.635723747025228
Ni 6.669411742062723 0.6275957538146733 4.716544105932718 -0.6309790547968617 -0.891573987039942 0.46840408814369655
P 6.365376416258167 7.713445842072071 3.434357974780486 -0.4455724349611616 0.16696049731537052 1.0822997050957104
Ni 0.11421516376712824 5.0624434714843165 8.158877553946752 -2.723304240903903 1.3994897601250154 -1.8328178305011853
P 4.985436661482827 2.9160933241251312 0.8397242177729664 0.41710286676655906 -0.5727674794531361 -0.2590067618203539
Ni 1.2470647129970012 6.025098222913428 10.671276950053223 -0.08162918293671749 -0.017890764237491766 1.5322221894954515
P 2.2654391598605845 0.9118070480246321 8.599502258441232 -0.7800302759319793 -0.14780706431537124 0.7145167676102018
P 5.05740251936487 2.9309655254057088 5.641490121792806 -0.8114499278938412 2.128000528021464 -1.0973843673429744
P 2.827937004923908 8.123851756061928 5.367527835206915 -0.41432144736668 0.432860643821448 0.5597576974570295
Ni 2.95470348962196 4.436901232603016 3.9138834189915714 -0.33699449134974224 -0.45530740286073845 0.9750178545878951
Ni 2.201438563338551 1.9545340282210557 5.673611105832006 1.5509549900182644 0.5216799167487015 -0.13012481654425978
Ni 4.629032991468698 7.478461348430394 13.142032325869799 0.6563663845217148 -1.5151996867955262 -0.3864866845425989
Ni 8.915921801791537 3.1813049634406902 12.193864509583221 0.37838873802581285 -0.4257276323210926 0.8967313628711653
Ni 3.3977131307637434 5.974029571699662 6.061598243996352 0.17077472885513814 -0.3218998018001489 0.8374988024620932
Ni 4.406005673388434 0.9083080888094951 8.498846606028916 0.9990427567475827 -0.15448730454902426 0.8226635372214735
Ni 7.279441216686941 7.887827508023606 11.528504319071136 0.5328485317710113 0.6754853647393527 -0.17550915821633
Ni 4.508505033150514 1.8441158247059597 3.987839663861477 -0.6366961597862971 -0.8885560261492245 -0.24060846181882434
Ni 6.085079054669863 6.764874192604654 9.085467681446534 -0.7639973908388327 -0.46883937590890223 0.14171149294059462
Ni 5.1351055934712555 7.7133158727724895 5.413467340847949 0.19374804982185986 0.8140793950968883 -0.5726258116689492
Ni 6.660768783640615 1.3863453845403828 11.131563224517825 -0.07445966177147177 -0.7576771050477596 -0.09663696919945937
Ni 3.402605546540812 6.746567088406589 3.8517478819185187 -0.2299602380763588 -1.3432497066853641 -0.10501310907829657
Ni 3.2542827251551825 2.431669894024138 9.864975266019542 0.945527558438262 -0.08057657330248703 -0.3654835999283706
Ni 7.919818522763224 2.2211474792678048 0.6014217935834255 -1.4959547225229848 -0.7305833341547611 -2.238424780813003
Ni 0.7785031075576772 5.475727277107743 3.4210286947563584 -1.138560327360652 0.7176612267764544 1.6362148277290338
Ni 8.515115048927845 5.243713510313622 5.188379081017192 -0.5230258892536348 -0.11448222491099638 0.9386953660077769
Ni 8.70929846602262 7.533689017230739 7.938992707859918 -2.5074778711257655 0.42605519086384047 -0.5792582293838023
Ni 3.3668639891561547 4.431275418635457 1.223308181737952 0.1767653992209343 0.9598565734664244 -1.9281677054581052
Ni 1.0399864846795532 0.07620007199195036 13.267035869854254 -0.18147874553620358 1.160975976051691 -1.67853647131538
Ni 3.51963361729172 6.960570823687403 10.534262386083244 0.025171871279937294 -0.8775393633237466 -0.699307406859615
Ni 0.627537267629862 7.763400470718004 3.865226626637164 1.5260978217652685 -0.2974588951489651 1.3156054626055342
Ni 7.652722328603748 2.112316757911872 9.038836553461305 -0.582574695351545 0.6803997713218346 0.5207206381592258
Ni 6.582499414728914 3.578769648600881 11.844628646440963 0.14604508731894203 0.27537774697920964 0.07631702669518468
Ni 0.22653648916893956 2.6550685529603464 7.831503455346084 2.2904222569262167 -0.13941164116282442 0.8396305040931152
Ni 2.2099237018968827 7.391753258567355 12.849605115222069 -0.012831861657345643 -1.0687911290863141 -1.397763007241896
P 8.406479281521282 0.6115965330363047 12.322794983119291 -0.4739463581181645 0.15528948873534545 -0.31494419641792215
Ni 0.9237066657533735 6.887593061972911 6.299010378483766 0.2764810073457174 -2.017096507380029 -1.3708584695415682
P 1.01920068026806 4.804157339132122 13.20110987099415 -0.4304777454115683 0.35604687999550294 -0.42548157774855755
Ni 6.067449647533898 2.272373950345348 7.247911592960834 1.0732350237902808 -0.4187468301278853 1.1322091883316436
P 8.264617791029087 2.7377940121433815 2.5566270204016006 0.5294441340751527 0.9046192502596744 0.8464390423745164
P 3.984905142747376 5.968078834483151 8.19000612954844 0.7438047179410416 0.294443505361409 1.0915721315365716
P 5.94995740071306 9.234263034071354 7.228902654545036 0.22583747415723687 -1.1817815999431325 -0.954765274986446
Ni 1.3446716569820119 3.986409073213951 2.00481636517236 -1.543466137840387 0.8590963261272107 -3.548336792578186
