# total energy = -381169.50672545575 ev
CRYSTAL
PRIMVEC
9.20259652477658 0.00000000000000 0.00000000000000

0.00000000000000 9.20259652477658 0.00000000000000

0.00000000000000 0.00000000000000 13.46893022672064

PRIMCOORD
 96 1
Ni 6.0731522952163575 2.5992825684436824 5.293491759735257 0.615823687212662 -1.47663365359687 0.10088340318063915
Ni 3.588828561561712 1.5956934131508145 12.506346053481291 1.3632590599277554 0.5505107249374648 -0.5913336724910977
Ni 7.406212808427662 3.912483878527006 0.691233706502202 0.3575689730669842 -0.3424943381220489 -0.46891805166563755
Ni 7.289643519260776 6.959859273063214 1.8638846813430114 0.7903661106403485 1.4473793847174428 -1.5311286993209567
Ni 4.767147415552904 3.7892243017447163 7.268818043506085 1.353746749561946 0.77266972180185 0.7523778043220333
Ni 4.9453188853216 0.8326923380138231 3.5877592198548207 0.6256481295022516 1.439373740804147 0.8099910839601275
Ni 7.54769352617075 4.451341913355065 3.55847747822696 -1.3041236872181798 0.9202872958142345 -0.4206671870790497
Ni 0.612435554183549 8.406406205632381 3.2018069262561304 -0.23582029640156163 -0.670264996880678 1.4987955344058896
Ni 4.03254095174649 6.657075444834834 2.151459378426991 0.4597880643399113 3.2297254317213215 -3.1958040963835286
Ni 9.161718511439704 2.454433700401779 0.7810657719582275 0.19942401716071462 0.8970555789798036 -2.1136008076563666
Ni 4.549552022614479 5.346441659159622 11.447499907835335 0.15868154513602994 1.7503424975140889 -1.3663950344535758
Ni 8.114278984087136 3.6376943486838536 5.723285222797203 1.4456492894002138 1.1731792029861021 0.16999517037663628
Ni 0.5006810634766072 3.7641196186431713 3.7071076931480507 0.19123582492296742 -0.9800106798167961 -0.894441538395724
Ni 5.313063841854159 2.295191971520134 1.3960817341849119 0.25869385856562543 -0.4578201419802631 1.044201612672408
Ni 4.52231233713773 8.137469527128152 6.983330495295798 -1.1527330193166083 0.8112866628430995 1.436471222445371
Ni 5.763300872918334 0.5133088663182273 13.255474214477674 -0.9309941407087772 -0.45842255145095245 -0.6314624221911834
Ni 3.413546707076698 0.7130061294310672 1.6329059523948453 0.1342486089046462 0.9695817711739882 -1.1475213932086819
Ni 4.839120922348057 6.013795548147089 8.287068775454886 1.0859236750015426 0.5517618237357464 1.209683211449407
Ni 1.8930108990909544 4.644403184171525 10.613948047313562 -0.24878636964392642 -1.6937278343438378 -0.7913855530437982
Ni 0.526412443396046 1.454507178493961 2.5608479243917754 0.36429806426070166 -1.6061923132250144 2.1677448977989378
Ni 0.15868129075815365 8.450587871164094 6.8221746263536245 -1.6979922660471467 0.4481923890825119 0.8497151420226269
Ni 4.090793387242376 7.651572434840192 4.499443884972283 2.8205310211685615 -0.37014449573914965 0.6474973641668591
Ni 9.149837959429403 6.043759202171513 2.8276137103946657 0.2913538106924917 0.011466348768386704 0.48759660191174736
Ni 3.753628658696045 6.133723785016345 6.068574923744689 0.5714744716733255 -2.782253722854918 0.5852136756362889
P 9.115484666900787 2.2779279005896 9.862395002153962 -0.6734842751489241 0.486112304056737 0.5401203828420762
Ni 8.106143888829891 4.631860045217198 9.70589932805146 0.7342669536539355 -0.19945255640580487 -0.4659083183050363
P 5.326223554770292 3.276188752540901 3.3524709149915326 0.5327012075598696 -0.5830917441972797 -0.478850223177685
Ni 0.9049005110183208 3.5159439977185185 8.283189881053381 -1.2564562059388877 1.196564671789578 0.11248627752689015
P 2.227037542249592 7.817955378563039 1.3805514324245867 0.2987570451350983 0.40440470247360033 -0.2283594692481422
P 5.84059348045861 6.840381963419756 6.090084152415232 1.48570759087368 -1.3751378136432124 -0.3794557458377465
P 2.8104821568529372 2.915870291339333 7.309911317670909 -0.11284777463136694 -1.6797793425835459 0.046467547433919974
Ni 8.982387514518955 0.8020504526314137 12.408144226558678 -0.15850285346632056 0.17187464678753625 -1.2237399466527892
Ni 2.834013195962413 4.885548021412315 8.111245808298913 -0.6280546820612152 0.9874637936607316 0.6988392089739448
Ni 8.2904534904273 7.486845958477418 5.087740108421352 0.011626271385018688 -1.3555485786573749 -0.11562328049397506
Ni 3.9135697849074984 4.964994036520685 3.2658514759544035 -0.17851503492218931 -3.1449813573047063 2.573967370207567
Ni 2.7369442086621594 2.2429212237133993 3.6490972859386646 -0.5853489156625725 -0.6803514345824025 -0.7556199654084147
Ni 4.174297747382924 7.558966706815689 10.21814989577853 -0.6387407010201516 -1.1055157382008574 1.2389127977384857
Ni 6.316064030974557 6.845332960307084 3.909504998057809 -0.6721419021884166 0.027739632007113515 -0.268644284910118
Ni 0.6751337640219409 6.019050230717097 8.556622948180562 -0.1587892743584878 0.6512329199498913 -0.5250514043240957
Ni 2.770662522036081 8.933512524800369 3.565387707897396 -0.9504586771912922 1.7601872515186523 -0.36584329726063447
Ni 7.679686366979201 0.6397654251054578 10.343504903771313 1.169937813230669 -0.2836530996141244 0.6377914497330048
Ni 1.487130382890946 3.959923263200196 13.04645011986798 -1.459860547903589 1.9386058700722937 3.764479408045162
Ni 3.5950219089690942 -0.02052271033165489 8.82330775133474 -1.0434950735236868 1.472251208258458 -0.4204000494605921
Ni 1.9681408964666913 4.956757712702546 5.064398642798641 -0.7303689041511099 -1.570078855331909 0.638753813646274
Ni 3.816243124906789 8.42825316959245 13.102225216400916 -0.5776109235883665 -0.9636034421033663 -0.016855895215074197
Ni 7.094732526558902 5.544361900898962 7.402092805999304 0.5659352870226512 0.10414510465104644 -0.11226079177964539
Ni 5.450044489935718 6.719340212380673 13.246423460874167 0.5893567512703851 0.20967063458938728 0.356642861708289
Ni 9.225786987888732 5.7031711077477 0.3810979239740336 -0.6030103374980776 0.28016976905121427 -0.6614612825461189
Ni 8.654545016171255 3.5538402898784014 11.87077425157575 0.2714683846224744 -0.8399673186072438 -0.030251599795689837
Ni 1.6096905623434279 2.516091096582259 11.567884593488253 -0.14385784985963612 -3.322964945203458 -1.8613105386242397
Ni 5.579064892092483 4.857746977552429 4.987370149776331 0.9520334778775797 0.6856905874071288 0.7833572834226832
Ni 8.565399464410016 1.4950170080441805 4.799073983399014 0.1165967001508379 -0.7952751179061917 0.012262876527753075
Ni 1.8508353995842175 4.882741229496636 1.8711041182539945 -1.4211695590912945 0.10946703108459213 0.8959037247635473
Ni 3.718051420840264 0.7319947669353659 5.7506003695648 0.16655066347146152 0.8461958160154588 -1.6694936443868216
Ni 6.00407760630133 5.261483288780788 1.7151605999381832 -1.817550877039786 -1.0496142990475472 0.719426289096677
Ni 5.446059765675098 8.59714842214474 1.970275898841896 0.6545941231126403 -0.662817282353381 -0.939589338576956
P 1.3659413903087465 0.22506790125164058 5.192070864576235 -0.4783956521387696 0.334484837554011 -0.43711530533274395
Ni 1.928275248667611 1.677430874773952 9.41202085240276 0.7513293084528608 0.20855503292770536 -0.7275928840678695
P 5.955441884090309 4.558975481374003 9.796020355035854 -0.917345439577091 -0.14699870948146296 -0.5806350551266709
Ni 3.815921034031219 3.3125758188838286 5.228207620295863 -0.47694452151454 0.042671570726597476 0.9553016071058901
P 3.337330803320469 3.9754848537884335 12.308635630940893 0.9304349257711975 -1.6174676290285177 -0.9646419106702097
P 4.51749017660063 0.9261309010165845 10.505361090302939 -0.38117709940422745 0.4370389435688538 0.9018470868311758
P 2.743542470313115 7.184798337964626 8.449975898500513 0.19986830378698484 -1.0285024567695964 -0.2196639983566733
Ni 7.206580883749581 3.1132475798884274 7.768272400876595 0.15982825714596344 -0.5547088221792124 0.3243140676685963
Ni 3.807942382913536 4.283431338622373 0.977007455461925 1.3245243623617189 -1.4375343736025628 -0.1544076003510244
Ni 1.775199259404014 0.4655667162220018 -0.1247642013010229 -0.12389786179794147 1.1003730176576534 1.8481300353782235
Ni 6.353040063489955 7.5204354355011125 10.772558478079091 1.2076612959233717 -0.9414680436569076 1.0547480207296867
Ni 4.04340001555141 3.2864772553662407 9.99993976939759 -0.37929299500763713 -0.11525227030780151 0.24526524386454532
Ni 0.030914282237176932 8.101156081556782 1.049984965529212 0.8431971383984511 -0.6108853693707801 0.4579080737083791
Ni 7.5020486478043065 2.3009435942981638 2.682916685194103 -0.6193712953546042 -0.26278962590155386 0.5053405561587297
Ni 5.332462915159899 1.5353887986477273 7.420761193147322 -0.5661276055391153 -0.8586826356285598 -0.15953052339988655
Ni 5.882787385158236 8.961598849150043 9.058179178579076 0.037234201761110065 0.5159152463507823 -0.8579313592848321
Ni 2.9026277550551978 6.054139730961301 -0.15932915354787092 -0.42284491145665887 1.4343027540391429 -0.2673703032937008
Ni 6.21194585479755 8.951632437200272 5.600192213010565 0.5604578088478477 0.7667631265094278 -1.5120061195588927
Ni 6.783896426441281 4.920324633377394 11.920178390589916 1.1636110996816929 2.0935958252893494 -0.6689282803471254
Ni 6.187172465168019 2.1269316981225384 9.65638751865889 -0.8395567134323864 1.5101055601020703 0.3806793338322024
Ni 1.101403552905154 8.562399417968994 9.015562874702631 0.16960102026201113 -0.2037092747996298 -0.31411501564840744
Ni 2.2623479048084727 6.568978989068306 3.5914227734995148 -1.4953379148745924 0.6895243593309222 -0.44548553167431015
Ni 1.887130439962697 6.74038655045004 10.802378571598975 1.1381098700867949 1.1082544772882592 -1.5598551207213718
Ni 7.656100112291057 8.055225922700547 12.727074930509186 -0.6000931638512826 -1.141037585256551 0.09348711071656803
Ni 7.860498981927569 7.788295410221295 8.868455689493162 0.1135280885278432 -0.2357133385100521 -1.609514949840344
Ni 1.3105141519214287 2.6382923747733917 5.739488234357647 1.452014826606925 0.31614490159424263 -1.2211385044742002
Ni 1.118741244607247 7.668744479806278 12.592843097985703 -0.14387327647860382 -0.9311617766348932 1.2423069110216993
Ni 1.733631131262637 7.023762102776237 6.028316325077414 -0.9104127170129998 0.8875931480153229 0.37513320720299265
Ni 7.605752707141295 -0.2930171126214627 3.337439393958518 -1.2680271986059386 0.76511993447905 -0.30545168354645463
Ni 7.731165691491681 0.4782791829509145 1.042602642661155 -0.9879939551325887 1.0516662964805694 0.6789165019080888
Ni 2.019040457403144 0.5544665586581642 7.272629758953542 1.4185737733396602 0.5784624729553844 -0.7898284929693236
Ni 2.292799296444474 9.16329215543177 11.071029969613415 0.40915301579186314 0.3407200198304455 0.22874127806759315
P 9.125644333375899 5.571399129253924 6.446256843918395 0.5913989785113944 0.3457375276496949 -0.1916502867525667
Ni 9.286616150389175 1.5961627455695018 7.260023122083744 -3.4523711384141382 -0.4412946335214142 1.3337787910804513
P 8.919036840592623 5.8928090126866755 11.471487395728474 0.04531157945260583 -0.19642791064686818 0.6037983806170117
Ni 9.030857589993968 7.972669429993818 10.747289988760828 -0.8035299017158163 -0.562067833647445 0.8895489861901132
P 7.200102255852408 1.9619199412699742 12.747399785017278 0.4760641757921156 0.9602880045768881 0.47198383507515485
P 2.0577465780501734 2.682915764934458 1.6821076342872237 0.060686776357095476 0.48907755733264796 -1.0546837431506546
P 7.235992381987314 0.5700033022360006 7.271915637469421 1.3096235339904867 0.009783818859641216 0.8518668982583071
Ni 5.45564887117063 3.3590305257374196 12.816697176766269 -0.7521525756851045 -0.5552662373445792 -0.5097494838597028
