# total energy = -340863.04474901245 ev
CRYSTAL
PRIMVEC
9.39692183240523 0.00000000000000 0.00000000000000
0.00000000000000 9.39692183240523 0.00000000000000
0.00000000000000 0.00000000000000 13.75334495714212
PRIMCOORD
 96 1
Ni 2.6783106963704633 2.19776150437801 5.156596632565918 0.3790019461297795 -0.5102449354388826 0.9576438820858217
Ni 5.509095848425816 7.550267045301484 8.796377831030812 -0.43654580598251913 -0.8256041079070362 -1.050418025895765
Ni 8.086286267609967 8.10445991467607 9.246896339830995 -0.9971116011631407 1.0730807576006036 -1.825837028307978
Ni 2.3294593656145266 1.6105008666344407 2.962966015080493 -1.051301456941983 -2.113480737138734 -0.20641844620067676
Ni 5.2763810761445225 1.1625308030691723 13.382940263185931 -0.46757130782975603 -0.6666014319861616 2.2481180968413668
Ni 5.867813947237289 4.370527196348661 0.5465390764400768 0.24700048138809721 -0.41928264802669724 -0.8542978762973029
Ni 2.9172274371438096 8.243421596585854 12.827992820978146 -0.13366136894260852 0.09531773616740358 -1.126509566843705
Ni 4.827405541929785 7.6780557870036175 3.555693782019025 -1.2387006817276796 -0.7274334756718698 0.32272075503954745
Ni 7.643136825008977 1.650165274217697 11.971021729206 -0.6010287882916746 0.8525693236419705 -0.9909921185289642
Ni 6.516060608486031 6.7647125604075065 1.2548677773016652 -0.5566962849228865 0.6139845771213942 0.5145710736180622
Ni 8.030515535791293 2.8827877181690083 7.660764510909338 1.0001704425941227 -1.6337691944020185 2.282423554991456
Ni 5.101795663093274 5.332405524856053 2.582795683131892 -1.6453134475961924 1.1031184416132744 0.8269711634578919
Ni 1.7578352060084934 5.31235249339842 13.126000226097807 0.5370062626931268 -0.035088359062700865 -0.8384873916276074
Ni 5.1493065005111704 4.972851099990349 11.499597888126623 -0.08294275954181844 0.2790647089124936 -0.9888604168979422
Ni 0.3033166660257341 6.700202691168213 11.558036406089077 -0.49040347523292316 -0.9716484238950299 0.434764031491748
Ni 6.844426649374284 0.13627604161428578 7.689921280359547 -1.1293953730319322 0.03872595581528815 2.140919807186293
Ni 0.05231454392264979 4.390956104684601 4.091785360626583 -0.7456859941241545 -0.5949386162335366 0.45353771255482533
Ni 1.3306041492037668 8.227540798477419 3.1286797941115205 0.6582929121204664 0.9607909123552356 0.30485878715746206
Ni 0.860432917821346 0.5037398556917472 1.2061390987980558 0.4974223297529175 -0.4285908128015006 -0.2435937696993934
Ni 6.354997366131847 1.9739738079564866 9.852869068268841 -0.6124897377434225 -2.284484294175227 2.0362825933901774
Ni 2.027094607783103 6.09789758137044 6.942124567583617 -1.102435813723953 -1.5036320365625846 -0.019148547903992827
Ni 6.865626105310749 4.5752955227278935 6.599157589357563 -0.9692452137701759 1.1595685541812029 -1.1522213697875123
Ni 7.033539703772064 6.572705254046768 10.521859434739103 -0.2474555666476448 -1.3739872449785369 0.9071124489951734
Ni 0.3752228525378961 4.225607865917725 11.337844911700747 1.0201628265556495 0.1738363984995974 0.19630706879828771
P 8.469379981979595 2.9590155490894956 5.672924604912138 0.9283672446088914 -0.5867349973768219 -1.7195923608154253
P 5.712163331930713 -0.41282839452023057 10.308668647209226 0.10497634230309019 1.6573235846831909 0.12413646017130878
P 1.7367391162135608 2.6975931802275688 1.1835582953338142 0.010702216908852537 0.46074502893654196 -0.8630964484255393
P 4.461639751650071 8.902230398114998 0.4906753150940213 -0.519083616776435 -1.0288454419313118 0.947089246498427
P 5.86873484558914 2.598060982852101 1.8314638483154932 1.0939776556542706 1.2339757654481844 0.6433270348392532
P 8.72355732401217 6.268066441101592 3.0031256404509175 -0.33832580856665606 0.034346852910986006 -0.8850626682839855
P 3.777318307005897 7.113197411207094 7.330106560755616 0.3784499302810515 2.1969233191351067 1.1253299447133072
P 2.5193053799250045 6.496449232360408 11.213996299375458 0.0037576672702193353 0.4122414249091997 -0.35727895263039117
Ni 7.209111793628867 4.505852269460832 2.8449209417562513 0.6385422118561004 -0.3965255568358396 -0.789391405431905
Ni 1.065582759232059 6.38850678983284 1.7923905071233732 0.08967904982438749 -1.7063797187798933 -0.1918660023077986
Ni 9.446255797931402 8.942120331825238 6.004504393109908 -1.5644638231379766 -0.47461535916073105 1.140975621670364
Ni 3.0322363649835333 8.571496332893418 9.946363743286517 0.2478389181289925 -0.8076560080690478 -0.28885752663319925
Ni 2.4838977779885654 6.10947458922227 3.987246483232077 -0.15344060845206478 -0.7495578183747349 0.9372588906715664
Ni 4.594267908160396 6.105913155800319 5.555443346905356 -0.8228075189985056 0.26400292948336473 -0.14356063033419147
Ni 4.867492811001135 7.342839390008236 11.502527848393022 -0.23698294925109512 0.3478034090397881 0.13009833418169853
Ni 0.9541446617362435 1.6059903440947667 6.8401021858893705 -1.9755711344427327 1.008774896433682 -0.34818598919018745
Ni 7.131897285902825 1.0561576465085323 5.7812457433946 1.3623941408242988 0.7118389636677224 -0.5540755594705877
Ni 7.123515231516598 0.1364931105115076 -0.09171207892230879 1.9544171260729375 -1.4215472541456873 1.2071295917896179
Ni 0.8525197698408059 7.5303079830634285 -0.15860782664664985 -0.2591386594125279 1.2805286735070591 -0.1727385374497283
Ni 0.7528127897169252 7.405404096402294 9.463965237052799 2.2191831589745714 -0.6143162494292002 -1.2431558892855559
Ni 5.769503349716317 2.9753380025299396 8.022394715835489 -1.3352186088507714 0.728947598323551 -0.1911386372234708
Ni 9.000221500289411 3.427142010253931 1.4628470319138278 0.38447068255383465 -0.816327824811433 0.8849824498653533
Ni 2.715203011976212 1.208322003768819 13.392567409731548 -0.9493505317287779 0.6831763056257073 1.0521805171128267
Ni 3.8206663079965533 0.9097460848707212 11.421492552198997 1.660758578506669 -0.5664119695487536 -0.9575212404650285
Ni 5.306639164848167 1.173205706413067 4.445782445846531 -1.2391897055489562 -1.8689850244503619 -0.8942944712948985
Ni 8.50808590352317 8.896404306501253 3.6813992261231463 -1.6093406290460088 -0.8966300614066106 -0.4484281592424019
Ni 2.726000075305556 3.123311332597113 11.451873740580288 0.34043308471764594 -0.28459746580526474 1.0469894598301903
Ni 4.218701128278849 6.466501242081365 0.11048806868589668 0.6045496569607396 0.3476247173700788 -0.14707147170092735
Ni 2.0610832745039365 8.06316983959414 5.543836268903262 1.41129960827575 -0.5503343472606005 0.23335460846988845
Ni 2.6744955460556556 0.291266053307239 7.3455795324510875 1.0570391307567086 -1.1060898655367724 -0.09737050493137424
Ni 5.034006268090759 3.0047409713354383 5.872554694364926 -0.02818443285401598 0.993819046454798 0.004379874235250521
Ni 9.23316179869769 4.8053697599390865 6.8719135857926155 1.2090229521575888 0.18281006275311742 0.15295209885142044
P 3.9748322096338202 4.163494211777635 13.099826979369155 -0.9547843011498395 0.47747185477291965 0.44277481761136644
P 5.6608655349638815 4.643752099189401 4.612610699821736 0.9600152105314756 -1.0773549594959253 -1.2141613018254187
P 7.0615425312058715 7.348994373890499 13.021777085281077 0.008701127318423724 -0.4465036885261794 -0.4463571356459861
P 8.033776267710598 3.852033233491201 12.663296728595132 -0.05117189488812478 -0.7139123012569835 -0.23071665662640908
P 0.7451918860092681 0.05618513607700736 8.772240897290382 0.7611331819171602 0.36534630301955795 -0.29248843851756723
P -0.1166176808788742 7.101150557257383 7.258506713899273 1.7790920588429553 -0.46458651416981916 1.4096497313771528
P 2.963394514721762 -0.022787535747310274 4.198318264860503 0.8933871289892806 0.1701635776337005 -0.03571802222689978
P 6.623561395681589 5.396182434182649 8.611574205042812 0.20245483356723842 0.289618830279256 0.809623930428696
Ni 3.071214797263881 3.425516342755257 7.395888773227975 -0.2349540917465244 -0.36176269943335765 -0.7801894272176628
Ni 4.840655201890077 8.45153522718201 5.876171569626427 -0.6195301895299717 1.1619272842213666 0.8845165659725281
Ni 8.125781530597987 8.566562948865649 11.497576610213533 -0.7990003892765788 0.6847086831098337 0.4655730464528047
Ni 9.510436774902178 6.487268439607781 5.169056951081767 0.5678386746929511 1.0902685822337996 -0.7307046902239738
Ni 8.498059387794354 1.248240128244932 9.563182637542685 0.9336791437401082 -0.33674637989467815 -0.024203850939713153
Ni 3.154988356516364 4.733802802309596 1.31602858355525 -0.7123321012540571 -1.6340065072238052 -0.003985209899993136
Ni 7.293139069774206 7.25747775094491 6.778322122478776 -1.3730464783318226 -0.10578032626162429 -0.07594447384711438
Ni 4.555327063567878 5.240729154237183 7.936643104510919 0.07984458023246895 -0.660779683098062 0.6136876147062656
Ni 7.158481178121027 6.2271992275077555 4.460856048358803 -0.7368023184812794 1.1295218713074675 0.49817000655221955
Ni 4.365575018476977 3.13353518368704 3.615149046937296 0.4042144408396651 0.5958166479631158 -1.5082253123602218
Ni 5.265941095849569 2.693956571429957 12.098459965719112 0.433966218180801 3.008322082076038 -2.428411820930534
Ni 2.4253455572704254 4.388249791160796 9.498418111718339 0.5858379394838491 1.5015725829303945 0.5538068791902333
Ni 7.563610674481353 2.277156097998226 3.7645103023776145 -0.02638697463396101 -0.11108631185556998 -1.5756591776331639
Ni 6.119961554127012 -0.24432842812875863 2.4893141638049574 1.6058498422839311 0.8550108432039275 -1.2627564371253026
Ni 8.253589066144036 5.390422121022607 0.46907742966654997 0.6185284877383348 0.7134011659485198 -0.6774273189570721
Ni 0.10830798279172102 2.166140861990505 13.26350632479635 1.1754428022092982 0.10295596943895173 -0.09328887866283289
Ni 4.121104696826658 1.3285180325291677 8.944666897675763 0.0777416749568532 -1.0848792928974282 -0.18699659003063923
Ni 4.290042559781357 1.3329157920053496 1.9918279596760284 -0.12304219866586551 -1.8154564564046023 -1.0457954395220892
Ni 1.584302248216502 0.9200263174923944 10.804683293359588 -0.8585180850262375 -1.0524479118416004 1.7591451834073832
Ni 8.546603886627592 8.091933817706517 1.354516496509408 -0.07370581432458273 -0.5926287371534373 0.6324798077121043
Ni 7.873953419054825 3.7082039460073535 10.176127882073109 -0.8499208302755298 0.5822785042673649 -0.47786034846058995
Ni 1.7689987492941859 2.0702922580224374 9.001069102649991 -0.11131436870597605 1.5114610456887003 -1.1383168438912783
Ni 0.3365639156041087 1.1614125693562116 4.421287489379515 1.148569117746906 2.3641828357481347 0.25228692659801716
Ni 2.0455877501957653 3.7350227612744975 3.192550672657693 -0.11253847092106427 1.6268166743435855 0.2546286873573163
P 0.4032848805800375 3.914052918411716 8.99120797274763 -0.8811399361908115 -0.552742442481461 -0.19307416368328686
P 8.271828491663841 0.9408198264002905 1.760386470319996 -1.012345901614392 -0.01992604949996568 0.561384177316859
P 3.1949440686803072 6.781119586145571 2.074114925874811 1.033732337709968 0.3532559475139271 -0.004115821940586461
P 6.7318327304776755 8.42233899065958 4.8509420123571205 -0.0869084290577858 0.23081615831875088 -0.6572199907712617
P 4.805397950704959 1.1065345451235138 6.760264057552753 0.06391659614830282 -0.32710294326764316 1.0601789619372708
P 0.46174313207860124 9.480648532296415 12.423685555289117 0.3142759667063039 -0.13283604482783576 1.1573355510856262
P 4.413931578871063 3.1537197720520806 9.931276985083505 -0.0754852748225087 1.3322842088127957 0.3641443122916568
P 2.23308453401683 4.318721965596116 5.501214649979932 -0.45512742563944847 0.41273944759154074 -0.30271217312810444
