# total energy = -340865.5064106631 ev
CRYSTAL
PRIMVEC
9.35948609518607 0.00000000000000 0.00000000000000
0.00000000000000 9.35948609518607 0.00000000000000
0.00000000000000 0.00000000000000 13.69855397165730
PRIMCOORD
 96 1
Ni 3.138385355677787 8.7346933676279 13.39844560867431 -0.12168311353480979 -0.053913719299320054 0.22416959953651072
Ni 2.489913378891307 3.1697396332592946 11.149198305012806 -0.7118063106575742 0.17381094457830068 -1.0107438472345949
Ni 3.6224392446211833 3.224165043449283 5.381956131174163 1.5191134200276353 2.1383769861597814 -0.9288632104087035
Ni 4.642089711057635 4.583143669204402 10.159149084459049 1.1405686160399324 -0.9935781340885856 0.701748926421572
Ni 3.8133540368921026 3.0522032100149468 7.873873375984933 0.7126406336334113 0.39446841719649484 -0.5844204903110323
Ni 3.924132911356197 6.208259274968521 13.876634843787087 -0.5453160681104028 -0.3787944581046637 -2.053673278062799
Ni 6.463548610882904 3.5900086261674753 3.810978599384584 -0.2572879793570343 1.2691805954840916 0.4509267572945395
Ni 2.5244030842309644 5.049461332471095 6.737400615074123 1.3658108798153317 -0.42164446339065453 -0.5393534227690647
Ni 0.8366098096071211 7.826411423263791 12.207150595373674 0.858922519553508 -1.3723052292904236 -1.3138180316878083
Ni 3.5925731252890674 5.8016364124226785 4.653398777804421 0.45439157591468843 0.4524822747071175 -1.0350924512822883
Ni 2.3523570154240208 1.9388362118102476 3.596952428716049 -1.3828061288217477 0.5554513567721918 -0.13256993565064265
Ni 3.506531371913905 7.8662921924503 8.655266898848142 0.37546925038617274 -0.2506483625533296 2.636820558088362
Ni 3.8093388174645004 7.430243106407067 1.9322218631634265 -0.06978616755520241 0.14340327882072076 1.4182220464271962
Ni -0.11140502406714005 4.822128780776402 7.83876407268232 1.021719629519808 -0.16265312818926825 0.9440548305474775
Ni 8.757830016637298 7.998738276646091 8.295830820139592 0.2928165112809473 0.13173072757879895 0.8916295228682257
Ni 5.381283184141891 8.20955133582396 0.40656108993926326 0.7246620835743197 0.5571881369576404 -0.7253208002042412
Ni 4.06281241312491 7.594165141500354 6.689976100296364 0.46277594332364175 -2.1366592321377267 -3.668894277148985
Ni 9.504089901534698 3.915054210086328 3.6654863278691314 -2.320467397138055 -0.5070660234902686 1.523391478577699
Ni 7.050191824175822 4.095158796206011 10.350736823762242 -0.10552475860739247 0.8620052722438897 0.6245824072418985
Ni 1.9100838712937136 8.17285279182483 2.836230266290604 -1.030730831879483 -0.8438625398965919 1.2203514897965304
Ni 4.6983402209874425 8.171486306891428 3.8795265377664343 1.6112653568725475 -0.31577106319459164 0.6571130328797522
Ni 8.620882019749953 2.3303809426594304 12.638587326792381 -1.3150899564216962 0.429627481596131 0.00830980541727601
Ni 7.319267682740223 1.5951839700310861 5.74385843440293 -2.005808593171036 -0.8460780594906718 0.09150787550301015
Ni 3.130214524534905 6.434347015045798 11.242663066611815 -1.8901508598946997 -1.0597169346991877 -0.40890130479237324
P 1.564241509826769 3.5820156252556528 5.642543872025528 -2.4672385639897443 0.17055515664516435 -1.113892649410643
P 6.465851044400829 0.16860364991306945 4.230249871101664 -1.1463978211272 1.1383536106664847 0.6339453365140373
P 0.2958205893671343 8.643531975495398 0.36955181101007073 -0.4399736007171455 -0.03570876625551915 1.4804854232427922
P 4.5803171044791435 7.6561623757391315 11.900536646929826 0.249779329684815 1.6049970073653326 1.957217828746526
P 4.158307247203751 3.954233017834444 3.1017495202338194 2.3254229413711176 0.3508373107701055 0.10304878626307414
P 8.42861946151732 9.115072231863728 10.522406641238206 2.5208823174571298 0.7625336618091126 -2.3643481576814054
P 5.984745393498679 2.8345296477125266 11.903098338205664 -0.7649080755785601 -0.31281275189721613 0.22103156812816127
P 5.718477380687847 3.299536982960888 6.183047627947236 -0.05517278851740176 -0.08025441407637791 0.17904596772499487
Ni 1.6899394047281537 0.6071011774534127 1.3304995822252652 0.2190621031066163 1.276487670668466 1.1329311540993328
Ni -0.135054572900857 5.143224661668569 0.5579601329716384 -0.8295152700359844 0.5476346889412504 -0.01246059436085596
Ni 0.735642484154577 6.124538674082975 9.995656649766058 -0.48240014531247244 0.9465233466926278 -0.22508748336508977
Ni 4.0691862229855085 4.259707916850929 12.573738257216563 0.3113261400493606 -0.7969206239294147 -0.5152220769384998
Ni 5.995845743711118 0.8354202189561928 2.2091653055293246 0.7706388074147502 -1.0319482492263519 -1.132147738966089
Ni 5.127248019330768 4.253427701848782 0.9880313154055247 1.354422692583048 0.449762047562477 0.9554589586193609
Ni 9.341674743662493 4.008396362420767 11.031198587219118 0.15683446462496217 -1.2737527882358064 -0.2892354787979083
Ni 5.743261299206004 5.7994837306782765 5.608215149842408 0.3596276553682258 -0.6628823312633616 0.939163306783131
Ni 1.793586350978186 9.259760523545076 6.947824319640832 -0.9671232823311665 -3.181321586496637 -0.10154083425897997
Ni 1.2733767682146822 1.1747652253493812 10.071341196104894 -1.162151741527347 -1.0705479638764208 0.3190685029989408
Ni 7.647261504700321 7.905770503745462 3.7071023457313435 0.12924241393930644 -1.2181272284517022 1.1548616356238368
Ni 7.133257261052202 4.465728919276042 12.910640437804147 -0.1606993468970071 -0.6771095306063372 0.6941945111130818
Ni 4.66464607194463 1.8794689930939792 3.7531294892724114 0.6545457863732083 -0.563899487539545 0.3298223990813352
Ni 8.2321170561968 1.3151294345702351 1.2771065233240046 0.9131054333538146 -0.5818884679177979 -1.18726679142742
Ni 6.5528568248180505 8.671778903776291 11.061075001985664 -3.6829127029152633 0.2956856052986262 -0.7927747200818411
Ni 1.3925417419960988 1.971893915815586 7.477643286521629 -1.849242551716112 3.1159926833818403 1.2663536675582578
Ni 3.0803003865223153 -0.040762432753128096 4.839233241158552 -1.224689197939936 -0.5538678143351558 -0.6768992143677439
Ni 1.4620078459393662 5.212166634404503 12.500834414122345 1.0143529047420918 0.8117108948647117 0.19317212271373183
Ni 3.228208341334421 0.9008346014770615 8.586089067068908 -0.08651453605347681 -0.5803524908892457 0.049595294429624265
Ni 7.542585015007314 7.99060488344659 1.5106902756147242 0.43485710542618655 0.21911043984604844 -1.7991155531527339
Ni 7.827862143569801 3.581051598213594 6.341443822597502 0.985652708593922 2.685655320202878 -0.5815102586427726
Ni 4.685545803837019 1.7335078113376805 10.174367608443388 0.7141496140787701 1.2502696175122017 1.4749912328974404
Ni 1.0467648969300711 1.002850189344271 12.792134371826233 1.4160126974807032 0.08576608792322649 -0.9718237731306295
Ni 6.290706985779115 4.432409149667038 8.138776775759531 -0.7912541696722567 0.4187527436651562 -0.8882829749934961
P 1.9667649175724018 3.28678936323969 13.322556089595464 0.2434359039652904 -0.9137713490725875 -0.522962640115867
P 4.480058292105083 5.8197282985615 8.01795517298351 0.18293244726359462 -0.46685782670249926 -0.043991832199917785
P 8.124295779259798 3.4964605651444423 1.887400221399224 -1.6277463852467065 0.04640789784057814 -0.3341855611460374
P 0.7051352400420631 0.5256680349084397 3.4831860063701576 -0.5597553834641843 0.12441876729841797 0.03006853725060628
P 4.097891766072817 0.9691934782448385 1.1409391075561501 0.7444384948702986 -2.1186275714469964 -1.3218979804824653
P 1.039427060027414 3.099768117080385 9.34944124501686 -0.011585905065386497 2.082112507240098 -0.6622074166835241
P 1.6228412507037286 8.238415990170639 9.171154271048321 -2.5586770197074 0.8142166920057009 1.3968934601527492
P 1.8510442345820282 6.160048563379761 1.35869128953967 0.5241839141174779 -0.3034325962338968 0.4156255108900842
Ni 2.817392429129918 9.181767927996807 11.122088554262108 0.5624326731860313 -0.9157269301370615 -0.7134908974488486
Ni 7.942937022036855 6.346732868048639 6.4395115793351945 0.5130314970450841 0.3671687009402773 1.1711089507206347
Ni 5.789104060875921 6.003267815986382 3.218981760188197 0.016252714413436523 -0.13550125036482472 -0.5392657481512647
Ni 9.211437498126173 6.508520940369215 2.5549449584411055 0.6307702812201653 -0.38577166075344527 0.43188311039952715
Ni 6.052526789989806 1.742184054716205 7.994612615285517 -0.12406858304785084 0.4942997249635358 0.14337011158994017
Ni 7.38232253887951 8.732840189430544 6.133226148844513 -0.6335720123350186 -1.601300789460668 0.2974884628353199
Ni 7.3149903977089545 1.7164173901842978 10.39020203177722 -0.49887731703188914 -1.3055501352520613 1.7295810965970213
Ni 0.18701469451921343 8.324373508173194 5.230107832821217 1.0206374521992227 0.027847618339887525 -0.5117251195288348
Ni 2.2002372919815634 4.588955909914287 3.0961469320068673 -0.2194228288801447 0.7934717461488656 -1.0368174043931948
Ni 0.8733223928350199 5.785444501910439 4.814753505930364 0.27363968124218035 0.6017551249347378 1.188356939167805
Ni 6.309135813408366 1.0474762178543082 13.395404711723195 -0.22795709160340094 0.7934051545769883 -0.4716308226111103
Ni 8.044094345052056 1.9685900173122208 3.512446566968088 0.4286360642171391 -1.7202168817733021 0.07470057413768424
Ni 0.26946334127839344 1.7566912577763052 5.373312645996097 0.7228116606291423 -0.12621931084226648 -0.7818621869343954
Ni 3.784788886092473 1.717615404372487 12.574382189842714 0.30017809385234107 0.05541987153120133 1.0449035238354392
Ni 0.8053734615472639 3.307866925363139 1.5438134960209788 1.796514625194777 -1.7183160652061633 -1.0674739529367874
Ni 1.3956022938674877 6.782791313577716 7.442889643681137 -0.9272953517009515 0.9210444856952332 0.909845274545304
Ni 6.172786823615115 7.610254097668298 8.022721959124484 0.404330140481923 -0.015310919325457502 -0.9035861810094696
Ni 8.114945652900417 2.7187060103778555 8.620938176665023 2.183823548528355 0.285781715921353 -1.2037241656524946
Ni 6.434356374531644 6.617540231494407 12.320698005750787 0.46456903066832245 -0.10380906146786639 0.6512848562337493
Ni 4.988662112420506 0.2282020479297148 6.442142530806287 0.5998594505739218 1.0836878436924884 -0.5144119223323786
Ni 8.209916355771924 9.019137501950162 12.551504798591228 -0.8293116386656104 0.9033622379241216 2.236809099586451
Ni 5.111233939049586 6.899419866695077 9.952738727422773 1.6242401718656607 -0.6698528490439237 0.7289455414410221
Ni 2.7878070943731585 4.823177043191067 9.05641539812311 -2.731043261419374 0.3905210025129726 0.6046658708236295
Ni 3.310319110654588 2.8349882625189426 1.3656772097745469 -1.2866797807101193 0.5782583273643783 -0.03974874065284767
P 3.079617144055614 1.4671742821259308 6.240335168908695 1.1488195431948152 -0.8265842124321183 1.5532661546499442
P 8.829523678211729 0.5593266179050413 7.164220312125378 0.4298491106886339 0.9386889382498737 -0.05187406316147196
P 8.705182908757902 5.792567070638654 11.998686767142956 -0.016360186525578274 1.1678950717690273 0.20660870783461188
P 7.648674787062951 6.077797401771916 8.870402168589338 0.6551595086978073 -0.23516595064701434 -0.00950562549759008
P 7.99699741227888 5.690398923152169 4.487070418900327 -0.6143185634220453 -0.5668994507081333 -1.8544621482438386
P 6.190682160551186 6.198366298430117 1.0178843314574575 -0.05212551705064572 0.3929452956837491 -0.6924173646080011
P 5.161063841689569 9.368938925929635 9.02473073069127 1.1146020167728417 -0.7794808311864124 -0.1514857987185391
P 2.2931863459105024 7.299528527092641 5.538502891421412 -0.8697710322322375 0.7714175945623037 -0.8106348881917137
