# total energy = -340868.2774905106 ev
CRYSTAL
PRIMVEC
9.26610739945298 0.00000000000000 0.00000000000000

0.00000000000000 9.26610739945298 0.00000000000000

0.00000000000000 0.00000000000000 13.56188481158969

PRIMCOORD
 96 1
Ni 5.7739338047269975 7.285374886370529 9.83449581250158 0.05971232825896813 -0.0549195348560151 -0.2041957275177451
Ni 8.323577339306103 0.46311911299657027 1.1620374898568182 -2.918162493070806 -0.7608866131239929 0.273579003207574
Ni 2.3522476521510516 0.6531234216832338 8.190442837163774 1.7598820615734077 -0.6350761076843707 -1.7749225008462979
Ni 7.536875568943982 7.229972831212225 11.99101177508399 -0.807904376634428 -0.68848846186724 -0.6224797590765989
Ni 3.315348305946628 1.5528420487696901 10.052434654669717 1.4909449280132194 0.6930984498354257 0.9327098378483033
Ni 1.5248028082764595 0.9278616479807196 5.027661913452802 0.954255682339879 -0.5599844687558548 -0.9709326287749278
Ni 0.20695850509461597 5.133302948818044 10.564817026781379 0.4813835311225 0.6888964959389362 1.691414869939945
Ni 1.5524250739441132 5.697988789828611 8.349469622752975 1.9052481205474545 0.043456271411421936 -0.413477611309146
Ni 1.7430011014471787 3.0596964073318773 8.55520314847112 1.7815037536082416 0.9861872409411533 -1.221358076684174
Ni 1.4395175572851522 2.6888389974638756 10.798216368871179 -0.0033208368431168612 1.619175869968876 1.3760623823400109
Ni 7.537292543769558 1.1353761195094378 5.538497772266933 0.26946832347331007 -0.899443876706322 0.3623658802349953
Ni 5.6269548117647945 8.903885837114947 11.657497703983921 0.09720466877747129 -1.0874712219943206 0.3537125754353715
Ni 3.2416549551063554 8.015914780781074 12.287392848050358 -0.2802720989570334 -0.439454752099198 -3.7061019965475333
Ni 1.525395839139502 3.406387809530895 1.9923084964380975 -0.31288602833731277 0.5858708496043137 0.831948047847193
Ni 0.42313586027737315 8.29448176258808 10.892838149512514 -1.313235162601145 -0.5965478697021855 -1.159476765798345
Ni 5.0025859740533365 5.2068017114063805 1.6481078238638587 -1.7020553803729266 0.6816529270026453 0.10374941187452455
Ni 6.411951618395669 5.883190475135352 6.9213076798843645 0.9122171172115903 0.012766041416416723 -0.049026823520663954
Ni 3.3717881651152557 7.239313067305146 9.152577035974735 -0.012899481670487462 1.6164296746823066 -0.4748842965514015
Ni 8.393156538534019 4.170128166164588 3.000715781559401 -1.428704948236391 -1.43589683799914 -1.04904428547669
Ni 7.291712903719297 8.291896518669502 3.8789564986857585 1.8746165117045264 1.0361000666111964 -1.4047175841828583
Ni 3.4880314803788313 0.46266600035277683 0.49609904186752424 -0.044186978929859386 1.5507307898226002 0.23456199851442833
Ni 7.961772916206736 0.2235726353670425 12.380535757976979 1.2087792115778988 1.3962432281632597 -0.3479936706737232
Ni 9.377763827222122 8.58050796071929 6.0291261044228905 -0.297328797329004 -0.340965045961716 0.10426234695520109
Ni 6.074832104970447 0.906231773861966 0.04521489686410066 -1.0004375802125802 0.4679713714816521 0.09861594730270114
P 0.7344585311602434 5.275028058977979 3.531582184383519 1.770977400155621 0.9362908703313423 0.6582538313524148
P 1.2362284306556122 5.165057898312526 12.859026416265758 0.42813881286574645 0.5630718494319271 -0.7829060548178776
P 2.135179824063007 7.665137025291404 6.62812712035698 -2.089734285451414 0.813383140360812 0.11156016616819496
P 5.092522810876634 5.7087189420067865 4.655957581383517 -0.012733388406268394 -0.8624163916393793 -0.0057826681200481055
P 2.1759043653610077 7.879943923214099 0.42928762887071614 0.031507840800294125 0.1391013090112572 1.251067945043781
P 5.029198234032371 7.462552122811727 7.597544479454682 0.3785023807855417 0.9099432335757489 0.9905113222378038
P 5.144987510041429 6.804834565161361 12.031642728698916 0.5809021927451286 -1.6641246667654241 -1.0746905252898846
P 8.706795736225649 2.1148036542531545 11.292872677842208 0.36608523806811144 -0.8758349790381303 0.5964681655041857
Ni 4.830801612022933 2.8241056308809878 8.146352845718008 -0.03412625225974768 -0.7801464897948693 0.7172377660857905
Ni 0.3216404812890872 7.704036143464101 13.0738194150276 -0.3984811379003137 -0.7265392459923745 1.263944543896133
Ni 9.207545437314439 4.980755025407583 1.0111268875947879 -1.044325282734466 -0.3814372950441495 -1.3131618861610481
Ni 8.292656339462775 4.107090838644612 12.540132409161135 0.18107636789146236 0.5038377463609581 -0.7796050154691025
Ni 9.115051154894271 6.88026994416182 2.2360969979598266 -0.1164660881102446 0.8567648497805568 0.7455044742409677
Ni 5.946894962376252 3.6345379018720467 6.233367786876192 0.5622388120076703 0.11191806372824595 -0.37723508403734385
Ni 3.772927213427368 6.408300772145063 6.170779865557115 0.03149832771859737 -0.7027470286687832 0.657664791618164
Ni 5.6596363719827805 3.9636237003244887 3.6126420904756475 1.5348048626209632 -0.4815586232477836 -0.6024855753428592
Ni 1.4387948009208191 5.6329036526096905 5.854136595899885 -0.19438285519238135 -0.27377466415814783 -0.6400223959460526
Ni 0.9207174793025037 8.119852705636516 8.472570783981205 -0.49307510852781533 -1.1005272838473306 -0.3058520043086668
Ni 1.349330535566509 7.498050579629164 4.282341651391644 -0.8585844194877987 0.20558797987958144 0.8907471202632725
Ni 3.6220471893192134 3.0713161058046174 12.12493482295202 0.04029484296430479 -0.4863280196119689 -0.16312749672252552
Ni 7.295947514725709 0.19895814810788254 9.959224102160281 0.8833258880985368 0.13696549361517701 0.9778807779579869
Ni 3.0087235514319226 1.62016958393949 2.817766686921497 -0.881370564144379 -0.061903165262699844 0.21611690443536333
Ni 3.7152456958892444 5.361870015984773 12.894300633288108 -0.6101232943937751 0.40186805209467563 0.05501723677614396
Ni 7.549857385180273 1.3724865375468738 7.889084011390742 -0.41441683529396367 3.882140544904772 1.287876372121382
Ni 5.027206020976838 4.946980064535862 10.608553979541488 -1.6651083708349326 -0.45537193755008665 1.7306370486653615
Ni 7.222698937032719 5.261675598452287 10.62664512730718 -0.18919796855733223 0.09978168547602816 -0.9412623554040047
Ni 0.434597108316394 1.7702249245037258 7.027388855343273 -0.7679082958574646 0.31050827213375554 -0.7175311289564933
Ni 7.005797898874906 2.82113121045854 10.255279934762699 -2.247900324403606 -0.6722959112677777 0.2960954391425352
Ni 3.8574897080543415 8.97087052631705 5.912032160515138 -0.6190825604695919 1.6434802510421955 0.6501268313699062
Ni 1.906566426360103 3.3786358183619503 4.566842648271968 -0.24082443448437232 0.1631213260749384 -0.9504687044936212
Ni 7.632223812392543 8.582342649951828 7.592824324429153 -0.6934949139428959 -3.736145851207791 -0.20590345423747122
Ni 5.028577404847623 7.23422597443311 2.9916294368047214 -0.42295495467196187 -0.07701353854157704 -0.49432903553957447
P 3.5809242054101063 3.932508112229225 3.0014895015135274 -0.5321337650921739 -0.9981300151253262 -0.3187563710751607
P 2.4276922972587465 8.88351893341233 10.246600372115637 -0.3791459279068115 -0.6128059834322608 -0.16220575623920452
P 5.71650247208422 0.8236012625934976 6.840953851163546 -0.3522665870174643 0.8925736319490499 -0.3434711002130214
P 7.061070228531919 2.171641956032889 3.8253465086667116 0.43824016296580653 1.3477920746404077 -0.15164803532801627
P 2.8528861599530217 4.662010202629446 9.694414509765139 1.1208251148644182 -1.394651715306424 0.3634380302532515
P 0.24579368712739166 4.400316802097449 7.126675194366724 0.3203861933690998 -2.9825565430761602 -0.8654364094126257
P 2.583177576662716 2.034522101168769 6.555584620035299 0.15058668394303742 -0.39720818472516106 -0.7119382082497482
P 6.383893845687968 9.010844512929012 1.8274635221160145 -0.6129291392736863 -1.4369633315904413 -0.34670349110738996
Ni 4.788335042564745 7.869788269684495 0.2731185107528008 2.0697868957952092 -1.0268196697505347 2.609777437927641
Ni 8.577848587942833 3.3634857330326597 5.150193209086075 0.2750244774048489 0.43506999276794106 2.019126907546497
Ni 6.101879871989529 3.3866139366913193 12.453838079091932 -0.9996235689517171 -0.24068765179619192 0.5426277226449622
Ni 0.45401330941669654 1.085209414938932 9.311888291056052 -1.9544765185559627 -0.11809282508039017 1.3795570257568304
Ni 3.2682486828709205 3.9427008301877686 6.380242999437362 1.5257206409315078 1.1412332462071249 0.6885465687986853
Ni 1.7722727342026696 0.5927593661005665 12.0815916797494 -0.25172771166043745 1.0022401806389578 0.7759134255501282
Ni 4.722499350659786 2.2730502336131657 4.706855381814869 -1.746129487874006 -1.4635395394170732 2.4237144154548647
Ni 6.995651511452537 2.4208909745482274 1.6640297759258278 1.821848218863559 2.0856760562216405 -1.0665033614934019
Ni 2.415247915242088 8.340589912189637 2.452070498783413 1.5244924249513616 0.5831344245097569 0.6358788060913243
Ni 2.0800186876928146 5.965362314095686 1.5837704614988064 0.5788825912119385 -0.1262617340444277 -0.3148935456856448
Ni 2.0523871559179256 6.261340311397331 10.79813482712751 0.6288445249523622 1.05434667152621 1.8563035723279513
Ni 8.867293979643774 3.529265657574759 9.240444751052449 -0.545014477709584 -0.8622374428593538 -2.004652625189722
Ni 7.076859675260426 5.844606404608646 3.6965355721602515 0.11797404011433875 1.36694730741262 0.7304894888893742
Ni 0.07691332310444862 1.954935506127011 3.413919301491535 -0.3888533850025626 -1.6290805306770977 -0.8601255387226736
Ni 4.580486991175564 5.399610870753091 8.442897002171714 0.0005381318916571377 -1.3338932051711285 -1.2766977297967432
Ni 6.799015449817756 6.84544791317254 1.435538690838426 0.9801973419063055 -0.07387319314038246 -0.9150764410372564
Ni 1.1072812823727969 0.6570763430297017 1.0684581462794267 3.767049739875499 -0.5482219289032881 0.7574266795998503
Ni 4.602271609285143 2.829869149581183 1.130290879858848 -0.8089431023115875 0.9278741070225568 -1.25452479324413
Ni 5.137296641036346 0.33012638229493674 8.903838579968049 -0.4791736679553747 -0.5258481891937783 -0.34219557593470745
Ni 0.3791366766825097 2.3828350721339184 13.404932637743066 -0.6432586434951632 0.7840373402088432 -0.7990158158955465
Ni 3.001792503220113 5.918031038339103 3.8771125433459854 0.1949274148419417 -0.9850999214142454 -0.5336946818213905
Ni 5.726102159179722 7.628767554393872 5.3456876863095 0.315921729839843 0.8072351184815453 1.0617352506807973
Ni 5.316493888854783 1.3922511442792138 2.7323127927785125 0.6079692241652497 -1.3471516128429315 -0.6658588973931823
Ni 8.610418954874 5.929947252243364 8.215464106530552 -2.3516391947551694 0.5466142180965361 -0.02146896850705335
P 2.5041191497333557 2.5080201808793072 0.3711585583531404 0.7324707809854611 -1.4391549399251216 -0.8724976871347813
P 6.715676081345807 4.739984495012306 0.6319485134297206 1.985085758801388 -1.0373647922562328 -0.571431534250532
P 5.360517164328458 1.5712074733095391 11.149862358608772 -0.7676568419682909 2.060720414717567 -0.5598523140533648
P 4.358035554783962 9.090718357295057 3.751935774097108 -1.737556144382698 0.10997739506210738 0.7512493471445449
P 0.23427684244496058 8.894916245311428 2.9633122130944396 0.14845343965011853 1.3010838719505915 0.5370617985214106
P 7.9534519519096705 6.904889991085321 5.536096923882335 -0.15501283803519111 0.4898463171778725 0.5102421072254051
P 6.704955195274866 4.139605608932366 8.513187838435279 -0.7577231277943466 0.587609429561975 -0.8357915899629993
P 7.975903729740172 7.391777595750493 9.59111409308747 0.6891548918066454 0.8365873463914173 1.4446339607618215
