# total energy = -381178.7963475473 ev
CRYSTAL
PRIMVEC
9.15672085986918 0.00000000000000 0.00000000000000

0.00000000000000 9.15672085986918 0.00000000000000

0.00000000000000 0.00000000000000 13.40178655395487

PRIMCOORD
 96 1
Ni 7.489153923502696 5.520605412964182 7.185060134289857 0.19286101923121624 -0.39043049968169535 0.03708173534364581
Ni 7.781518868768316 5.372852562677418 1.927806596057483 -0.020678611395274066 -0.4801450307297086 -0.22727214972123438
Ni 0.9243435162306564 0.255545770067116 5.940744158935462 1.1918850069257216 -0.31707512671799587 -1.9607762355217457
Ni 2.1524520953897386 5.263255768857248 8.767931218394413 -1.2475722731856966 -0.9625420907183874 -0.35105842564197604
Ni 1.2807780384333423 6.677584583284172 4.661007239681445 0.645833860421507 1.6410724129316512 0.3030217339487233
Ni 6.31055573486794 8.133979374050796 12.602919812096767 -0.6359220006244338 1.5607799465284862 0.10108420633753558
Ni 8.734413041121563 0.14193924811478328 10.528403316276052 0.5699251249083346 0.8922622713562183 -1.38741765945183
Ni 8.59123855134195 6.912619298279253 0.2547427256341618 -1.846940900166129 -0.24088948339435287 -0.001364484447694424
Ni 6.376456656007865 0.2945286784413002 10.541108266683393 1.2130012200790465 -1.2056620061051557 -2.0009445802105152
Ni 3.134977416945264 0.11826637727651056 8.041862760646927 -0.6314858192299512 0.4191576924130588 0.10569599407793409
Ni 5.8623891815439855 3.9729822107320754 11.681051357556276 -0.3152948948891215 0.08958237634552313 0.6739612147853425
Ni 5.692696827706957 0.3279745176181365 1.182971438591186 -0.03882854283142345 0.28812399090128443 -0.04015986004833729
Ni 1.9873289453388463 3.653476744380066 13.193067734452171 0.9593346395246833 0.8775234224841467 -1.4641380922330205
Ni 4.431321881102918 4.85981064096714 8.588669175425338 0.6201819641813576 -0.3609481739518622 0.429017615926274
Ni 6.2977821090529895 4.037729385024199 3.449110635078183 -0.5261713768611519 -0.09712367902789079 0.7907057533679543
Ni 8.461185642775833 8.404313248556008 4.085575083668125 1.0555818294848915 0.754678427430752 0.2607070323409123
Ni 1.182709556370177 6.278379017223686 12.212873714066886 0.8154881025189569 0.20467806647080233 -0.4328670715793513
Ni 7.854388054600125 0.9094272176983599 12.636919632894967 -0.8451012973996994 -0.2693824486277232 1.0638921491227997
Ni 5.638315061603022 4.193732440944847 1.1745582433232462 0.7935360237278979 0.5498255259449821 -0.7497714770474377
Ni 5.636099135117561 6.9235341097283 10.678021390633425 0.07965817525327572 -0.2153442879353969 -1.1555884864875323
Ni 3.0929938510946933 6.67871085996893 13.677461938797105 0.8883071433632121 -0.699281438717686 -0.31163081577397295
Ni 2.888945480012007 6.579058265170292 2.7432254217904193 0.43344762667316966 0.4353530712259986 -0.47455802356023435
Ni 0.6227971268039958 2.109845872510195 12.140705017392673 -0.24289571519110423 0.48826406029241715 0.6687786421431385
Ni 5.521548555228654 2.7733785040905126 9.700655881369459 1.267079747091005 0.8349079018064653 -0.48801183507229495
P 1.479845153284249 3.981314826855089 10.889769648417039 1.128494715594534 -0.5311824569224981 0.12379501767149002
Ni 7.845881460777839 1.6488049694401334 5.211660392957965 0.6534139867616101 0.11382119428822977 -0.7925577189750286
P 0.12002172069495208 6.596437721655435 8.166941738358076 0.2648724765725115 -1.6630208921782843 -0.03401415216191562
Ni 3.4175172005625396 7.894650156900007 11.565379995015219 -0.2919117400784908 0.13404677730648526 -0.5734783894772316
P 0.02926945872221357 6.967010221104202 2.5674603305767056 -0.7604137872526324 -0.6612131710910547 1.1549901907819011
P 7.305158771441328 4.094665876291123 5.411467370866827 1.3913241935950875 0.16608452246832042 -0.8948930241108458
P 2.1732195386501734 2.7202695222075657 2.6872595429510104 -0.7240923271137788 -1.456853385646149 0.00952747987446101
Ni 8.767184945631747 4.538171658618799 12.51461514165115 -0.07841761797795528 -0.02451315465001585 0.7614864514915208
Ni 1.5863286619595567 8.972854056333965 3.2113096746646814 -1.2412345038931267 -1.3626443091618918 0.9572605306044741
Ni 1.2577397283613607 7.82721090662968 1.1707435533486885 1.9303693410951142 2.439145919518586 -0.3249959242269693
Ni 1.63332095420495 4.65922351042786 3.633653359056205 -0.6881979272100148 -0.14046476501768712 -0.646223639660758
Ni 8.578767097320473 3.5994978740007606 3.5236115485947397 -0.26782127478819034 1.2729637166756076 0.8080511866249375
Ni 4.619153699269277 8.375634398339217 3.282767809788186 -0.727821712249224 -0.1999534073016234 0.4451669719926269
Ni 4.664378744358911 6.957075178803685 7.033150132662601 0.32376436581271334 -0.15252118196158893 -0.3538964093114034
Ni -0.2727246943620463 3.9475173695913037 8.543800326783161 0.0793000205829086 -0.954317645926066 -0.17280230080812822
Ni 3.5753332872440198 7.141308405611424 9.030660436097248 0.10806526564105905 0.5309441156594469 1.205624725109317
Ni 3.7774953737977603 5.934937882140293 4.8548907347661565 -0.5134706414650319 0.6800783834266739 1.1206006575584377
Ni 7.0097721082409885 0.5770135217324901 7.266850713405899 -1.0170330226774162 -2.249675414026158 -0.5541269815338133
Ni 2.8702016720957326 1.0672249909378113 12.369568102424115 -0.36030514105122463 -0.583982117222033 -0.2570031011267639
Ni 0.8213276578034644 8.859310715756632 12.45717503072844 0.3559946866013289 -0.7935614776491946 -0.24644203778146587
Ni 4.8251158250439525 0.2166004042490904 6.032251850391879 -1.5145551112329916 -1.97186951722143 -0.009430035064648276
Ni 4.851478024844126 1.893335204127045 7.683418338181601 -0.8325671694884307 0.00973162546546711 0.17737577911142355
Ni 0.9614282363385759 1.93094185733278 9.937612592105442 0.5435481775767026 0.6506685628059891 -2.0788207238627034
Ni 3.509990926085967 5.561178843778549 10.932453703425203 -0.35188992040433587 -0.8625194928761468 0.7320295796829845
Ni 0.329710631922448 9.177873039844167 8.066870681409084 0.02371071335337852 0.08037165638053255 1.5481879687960884
Ni 6.1973328795261065 6.515684599030314 5.2030558222208265 -0.544938630166326 -0.7332292564180404 -0.002713799386737262
Ni 8.318166817253463 5.9205618301478395 4.442866674957749 -0.04665446663374545 -1.1496484668540137 -0.14950964882877477
Ni 5.406219654053531 2.111906134738413 5.1146714883023865 0.4463283392905797 1.4156157191526006 -0.3043630784679662
Ni 7.715572164023319 2.746732445938896 10.903412247056247 0.3122779624396687 -0.4659821089657652 -1.393687551620942
Ni 2.6987603845449724 2.8722161507188786 8.466189790810148 0.34621678127895855 0.10453925476567157 0.3215244207386011
Ni 3.733634680139258 3.0492705082514058 11.31079934334301 -1.2096662421685425 0.9084571359485257 -0.16796091355542686
Ni 1.1919120609895497 2.5408802008163924 4.789182104767531 -0.2666573363870762 -0.20229825338471613 -0.41414301280728677
P 4.307651207083768 4.909513322632766 13.078268091751676 -0.6923697991995172 -0.13659936852500992 -1.046898956998913
Ni 4.844665424409485 2.377597551689375 2.5746172237214835 -0.5841772639519746 -0.6301724997351663 1.0116002816976193
P 4.029378455459156 8.685204822390709 13.500826043414932 0.4162495176273283 0.0062961174213568985 -0.11546490053923986
Ni 7.093409597985615 2.30107483417286 1.6663785484107803 0.7317236184067915 0.13615996699474617 -0.2244699043857489
P 3.116590721148548 4.431944538131891 6.69419212818781 -0.39380841501499275 -0.01401354067027264 0.6798719238428227
P 2.1652531913677318 0.05345235892098286 10.318504716137328 -0.4835887663039349 -0.05581505008709097 -0.47840825054425995
P 6.627085266890302 8.556946631143393 5.176949094936953 0.02388349148581693 1.2542962221730916 0.06250248940959557
Ni 1.8522764670989187 7.039449041048338 7.00219217458535 0.9010906682811254 0.7807332155362747 -0.16177612490095364
Ni 1.1025149937269278 5.530393947728469 1.0675115963055588 0.4641859362972909 -0.9202806109460151 1.193905894010492
Ni 6.834210296233793 2.9227704074388354 7.082535991781132 2.069412028954294 -0.6734156266945176 1.9556574262379414
Ni 6.834951990635951 4.8143841480151925 9.454652330271346 -0.8281867810325478 0.2585239086466644 -0.020172361182816873
Ni 2.8562651427119663 2.0706917334530437 6.264826154450419 0.3056352603121704 -1.249906320635512 1.3621270032058412
Ni 6.670149325820559 7.400873976203818 2.883059539744014 0.8978587916073891 -0.28834202044936147 0.7816426147244215
Ni 5.435347183600023 4.441055475541121 6.446848948805305 -2.8054283611991684 1.1921670569425147 -1.054514821672958
Ni 3.273546076054683 4.2856476064864015 1.7897681110947923 0.22869165577658035 1.5005248583921704 0.37565771224789496
Ni 8.09998962564571 8.83516444244192 1.5175781692399808 0.24801169626143094 1.0667262761374856 0.10699388695375121
Ni 6.534877086276289 0.749808172649164 3.308284844238739 0.4810940249065392 -0.1936647460794342 1.235044830142647
Ni 9.139121796511645 1.5524487942066425 3.022800259143264 -0.4237823356692637 -1.2821507824915144 -0.6965555551460907
Ni 0.25189590107081555 2.327858243139691 6.929835765130343 0.2823189541837331 -0.41749907376371326 0.9668450889691155
Ni 1.2086047633986208 7.059200088276186 9.955611042931153 0.5411382825836293 2.383494391592553 0.3226536492470378
Ni 8.380560714244911 7.605087168264762 6.503377965987093 -0.08125560164738264 0.623565793051926 -1.339436503586861
Ni 4.263131229512235 1.0357991244167297 10.171902865682062 -2.3078193693567415 -1.477511685326449 -1.0504851316882746
Ni 8.117781134576497 7.415579670152786 11.56382518378699 0.4933430174772213 -1.1046747303568005 -1.9311355298371777
Ni 6.658978126183111 5.868341050203281 12.645015089943714 0.2487460033242942 -0.4831347094856518 0.385333287664446
Ni 1.1043371812087737 1.250249530571662 0.9162114322978556 -0.1178935645853905 -0.41524370207063327 0.18867449195369443
Ni 8.984684539884443 5.212893803278592 10.403980875461626 -0.3764907496721516 1.455669392640377 -0.41892320780474945
Ni 3.4679066363042392 3.5529634178060823 4.689687005570338 0.8584404377107667 0.5049302080941884 -0.9208745357762721
Ni 3.926630888957683 2.5110018201467277 0.4374815755723666 1.0918978903071066 0.01419223233998201 -0.6847091973304659
Ni 3.281631460710311 1.1473829266970033 4.018431595486558 0.42865251927737147 0.8526212599258284 1.5523906940235264
Ni 0.7925682284417473 4.796958907924977 6.35566357392859 0.3341045713964569 -0.018605530916329247 0.012245393026256329
Ni 5.390735638818348 1.2330989921118762 12.23320438173494 -0.6013792296525579 1.1490524851412276 1.708844121159986
Ni 7.603182570293788 7.633015167358381 8.977052412919022 -0.6678373612757917 -0.06461722175975324 0.6932231483387481
P 2.954022296260645 8.191245507274235 4.8017533670480645 -0.22354405013736983 -0.20009507508581023 0.6094090419355698
Ni 3.1618249229591955 0.6333603201660936 1.816813402282632 1.1624767289669335 -0.17327461245885642 -1.8188618825417258
P 5.154391512718221 5.8182263160920105 3.172068546757894 -0.6587456833871687 0.8323249715706375 -1.0583650486569838
Ni 0.12758334090856197 3.3928398374289985 1.0856602173559036 -1.0629125588183501 -0.6637040558337086 1.4222707625752729
P 7.916287488656801 1.6946343581167107 8.698054448990078 1.8424540680393688 1.332416363515286 2.0462049947102114
P 5.492466809287233 8.229255056204599 8.659296795952846 -0.4880673709005788 0.5408652314279008 0.24668423569925904
P 7.373651044628301 3.056577571620818 13.101493198932348 -0.433538386614763 -0.29930854676319424 -0.06971803332142833
Ni 5.577752508814434 7.02337899566824 0.967710662626488 -1.6658460203319054 -1.2669331942108117 0.7880415762722299
