# total energy = -340888.8889862851 ev
CRYSTAL
PRIMVEC
9.06685856304921 0.00000000000000 0.00000000000000

0.00000000000000 9.06685856304921 0.00000000000000

0.00000000000000 0.00000000000000 13.27026399912935

PRIMCOORD
 96 1
Ni 6.254908171801522 1.956392273651079 11.581343764147391 1.2882031593331815 0.588196926634329 -0.21263820185814344
Ni 4.4018871491440565 0.504848107891851 5.92083343250362 -0.3112032413182511 -1.418939384209195 -0.3031199500894844
Ni 2.8946398329941294 2.0115641061478895 4.5907280461877 -0.13306075924413213 -1.315872857334308 1.8785454144452873
Ni 3.589115841226374 4.405414157006219 4.908378171752164 0.5677929090566801 -0.04551186838887001 0.23025077273358407
Ni 5.268352391662579 4.3573054070919905 2.960211351912278 -0.012287044897469162 0.9490114032218042 -0.5106925644992625
Ni 7.3972144430875835 6.340136639421903 2.560298528063457 -0.7676108192217037 -1.1086131461792585 -0.10696586192929322
Ni 5.207132964708025 4.480170403339202 11.735504835041972 -0.22765035899625954 -0.34546807603839214 -0.7188197658609297
Ni 5.843744283540985 8.039873356378287 12.210340735415713 -1.0899659633917165 0.37009975854414323 0.7604891205752581
Ni 1.950662019232347 6.530368392522246 0.2937979415464919 -1.0509245332185386 -0.46304719470715733 -0.6153169227795725
Ni 2.803418172065549 1.9163802281607871 0.48055708793421664 1.059891512603839 -1.6100841920802529 -0.4923881097631198
Ni 0.7117556266993642 8.896265319372741 4.291033020030539 -1.0160115233914373 0.6097294013894661 0.8113347424722156
Ni 8.480232528227933 2.5153640852251753 1.5218204774271868 0.6468517601630602 -0.1878370836540636 -0.9257025532925347
Ni 6.869242219895836 0.6019732002318815 4.607382051435053 0.06302725156481404 -0.6960827292747301 1.581560116498631
Ni 0.7182529373266796 7.195050704520387 2.420230981644315 -0.36795777250047595 -0.18034360349049586 0.52538384796285
Ni 7.728299839217992 3.9322964262722704 3.6437228084537434 -0.24107254593943642 -0.3471328653353248 0.426530330728046
Ni 7.79950187711404 4.099616228555942 12.758031561945844 -0.7508875929297519 -1.242974369402369 -0.611810709398527
Ni 7.886126640906074 8.802504938132065 7.224543381060341 0.22651161740612602 -0.9091094248205439 -0.8427556799856583
Ni 6.994872607911581 0.6589620311234925 0.6607092147097103 -1.772068833447587 -0.4415735982144137 -1.365961546460583
Ni 1.715105041702825 6.767267265073875 9.301300011451218 1.7040700968101101 -0.7333655248855887 -0.4737586675873905
Ni 0.04093414497507821 4.839607865240774 1.5431856222251301 0.8499627392570587 0.6108234057845932 -0.4117783692298521
Ni 6.545129237765435 1.7340819760357464 6.770767072361266 0.4961169806779327 0.8970974879613324 0.49621828214248725
Ni 3.736760561091298 4.429178392499093 0.6531692153827838 -1.1222011692763383 0.719657945491509 -0.2788862743531003
Ni 6.101351860352716 5.519386496237632 5.053436116956227 -0.4297339252670084 0.5567569629574928 -0.7022358933603197
Ni 5.1150862196780125 3.192350123878727 9.45384174146101 0.6529930971741076 -0.5545306447301352 -0.42852113590582974
P 0.23431028451911728 5.560051355522463 12.32528764434666 0.6757836127060619 1.216657585884711 0.6094674059773311
P 3.9113247831227027 6.169870108204548 12.579069006973732 0.6053109606067962 0.1636391462516214 -0.3410208389003159
P 1.9921156951855792 8.530163716651916 1.3715082878629097 2.8313265691221687 0.18094549874055288 -0.05838743879995751
P 6.278908145609091 7.718262827126954 5.744882887844645 -0.22483962902034182 0.4585907015977005 0.8742318962170685
P 4.656457328439529 1.1392507400532876 12.708586357124464 0.17115268101984718 -0.5432620137948514 0.17212661489734227
P 3.9981308840798864 5.837433750193774 8.164927998894681 0.9556461349295026 1.261945768298549 0.5391150815060135
P 4.611703316080572 0.8472326227827406 3.7253744004915457 1.736360838523016 1.9414040016427208 -0.37489615149152206
P 9.266329139152088 5.505151528773377 3.7788008627737897 0.28785608195187845 0.6286591484144334 -1.22383353480786
Ni 1.4978540509951703 1.5712865360225607 2.600507324377936 -0.8767893725315997 -1.5370802889187012 -1.1429533142220252
Ni 2.0058882528787025 6.151555054524423 4.83300356568602 -0.2894000294002306 1.913024164948447 0.061546296143913354
Ni 6.1777764086050775 5.86866001003256 9.11847588154724 -0.44444706310746684 -0.5731420891837355 0.6975472296353987
Ni 8.625265992914702 2.185928857297629 10.230842480181254 0.10923357491754734 1.098732910951069 1.078590374564923
Ni 2.2716378684056573 5.159405022840611 6.955410014031694 0.6488502786503277 0.41635416152599264 0.5954878038687873
Ni 0.38321439099600657 0.02613068549807859 9.299362423841593 1.5911922402717564 -0.7189645189689101 0.7387674126274502
Ni 1.585693773793708 1.1540931870207944 11.890010446550336 -0.27467789269870757 -1.6531319151993464 -2.038648265408876
Ni 3.8570324358768686 6.871191594421195 1.6697707504153882 0.591810097906884 0.48044610690989514 -0.6372126944113994
Ni 5.382168663368819 8.078507239413442 8.061393544452434 0.0038669391545739853 -0.4685028185050899 -0.0724194914129914
Ni 5.2778907265494555 2.732388404476393 4.790207088024854 0.40214830233925586 -0.18507828996200384 0.14654490977349602
Ni 0.8229044287062504 7.143142940996272 6.854197581989187 -0.9974733553779338 0.9996479944317492 0.08801734585124842
Ni 5.518153403514614 4.506165085963419 7.291306285153524 -0.5523452070430424 -0.37023268457758174 -0.9560163737847278
Ni 8.468472813067972 6.973284418400503 9.134400004704867 -0.8528421176873829 -0.08166183594686581 0.3963944305746141
Ni 4.60092282161242 0.4625358004616348 10.28122973157559 1.6148918978815414 -1.06779919748669 0.9984642585362933
Ni 8.196702803658047 7.124265742104183 4.933246750580801 0.3791726673796889 0.3415512574824892 -0.815056671408493
Ni 7.3456058858859645 6.313035800090273 7.100665616745769 -0.08522949869346612 -0.26584435356747765 -0.17067291316995123
Ni 2.3674745601872984 5.207948981951198 2.7188642786995243 -0.21651542542536262 -0.2639728475763777 -0.746326713031947
Ni 2.557316438382569 4.980860450034169 11.305070246240971 -1.0072219501242654 0.6607110346436555 1.2443064579502312
Ni 1.158381810976586 3.3416722125212863 3.9438557638647413 -1.1930445744514615 1.7881310291167722 0.9544091771986077
Ni 3.628438805489097 2.699221836970504 2.58914745766713 1.2191500132892616 0.42808224859619826 -0.18030040895738628
Ni 1.153095832612471 2.8985113814700765 8.234198795981886 -0.4208507638447655 1.2989151464340467 0.20092297030374426
Ni 3.8101749124021738 2.790325628741737 7.217855666409619 -0.17126298134546633 0.8058076420063994 -0.676767573885886
Ni 4.133771083611898 6.939329034226214 6.085795851640345 0.2403552081574377 -0.37626449259395844 -0.27723845433703226
Ni 0.6996976119027318 7.4873118135922345 11.318618852535135 0.2518876342770694 0.05759528191596532 0.8012241364007749
P 0.3572623226056005 5.323061814388258 7.906714755951351 -1.013145771807868 0.030966366474527312 1.9051673879081898
P 8.68022928767159 1.5220172282513742 8.10372489228499 -1.764351667308987 0.14227610719481304 -1.4723303982358258
P 1.6622361912034163 2.9836491805078826 10.5229204387163 0.5402394249184438 -0.15030874769130242 -0.7705274786478664
P 4.107041985468825 6.2655979976871 3.6861611452137386 -0.19869768051765133 -1.549502573842454 1.648886252549115
P 6.950218330993456 3.939685915752123 10.44124255278955 -0.04374654895833111 0.21357819717390958 0.013390048153660811
P 6.589611244376668 7.836059449608229 10.066808507330096 -1.0191786082655092 -0.23677494700534704 -0.9448999521565921
P 2.341334807830963 8.274795653829784 5.7268217061957305 -0.038325892163392064 -0.2920660062681679 -1.373481508986712
P 6.935230814293829 4.138005306418144 1.5707742585310125 0.16221424087963676 0.011494116682528591 0.10976656460288191
Ni 5.3595015177251 2.8853281695636896 0.718908471178696 0.6083083526722234 -0.9204767861172213 -0.7662180526392353
Ni 1.6433680591695852 1.0358522884849017 6.631443008319238 -0.5879886672782647 1.653446875336604 -0.630977512134965
Ni 6.8200001126994225 0.8553420208082372 9.25038234884882 -0.4974606391900207 0.1572368422697034 -0.5082099072867248
Ni 2.9764500950514376 1.5089609523605922 9.15165151591139 -1.052573124565555 1.173341182485263 -0.4960233925228619
Ni 6.44483165172111 1.8329016641841012 2.6237039745438917 -1.1422799423040844 0.4319252764913723 0.3835813379703458
Ni 4.170283321814799 6.661982906987933 10.368348639142654 -0.15333596455340043 0.7388103500502438 -0.3491110721076181
Ni 8.11138366745509 7.255599183963888 0.12219495542198298 -0.05330565340167594 -0.4963350102260097 0.32543686841912983
Ni 7.627285971371324 3.8583289966076886 8.26381750185162 0.9108575178599023 -0.31857330853007715 -0.18891283321674562
Ni 3.4403649646540364 8.355336555731046 12.42205459578552 -1.2688568935960858 0.09922067076623557 0.24767462463698633
Ni 0.06551349102530071 4.813431845451408 10.243130793177626 -0.08578100032156194 -0.5331976875803139 -0.09935565368220307
Ni 8.743960234363469 2.199375008093483 5.89323119591035 0.4586071566579327 0.6407754720619931 -0.5791826389508606
Ni 3.689368092979412 2.6441134724814956 11.421822366650986 -0.3922081604074084 -0.047733558630537146 -0.09869950815544291
Ni 1.190288085184684 3.2942434769763698 12.61362461716467 -1.6073418534484256 1.61206548417634 0.8049008139214138
Ni 2.5560833456595513 8.555759457512803 7.826310763609778 1.8027932591146372 -1.5414696762356486 1.8856830539313332
Ni 5.57283562566552 7.9274987151349885 3.5568151586840755 -0.4963764049869064 -0.7323877343533515 -0.1193305541422332
Ni 2.846340679056494 8.7955869252816 3.4201050698776805 0.19467184718770988 -1.575771791951628 0.4392611480311531
Ni 2.9407720078082247 4.246943608381855 9.193744405371772 0.5369710385798172 -0.1601802411687435 -0.5856692751164687
Ni 7.02045928191421 6.14135483898475 11.421954742781542 1.374635420085497 -0.7810628309615516 -0.4765357161118954
Ni 0.26526181855270187 0.2033669106579644 0.5813606046693097 0.8054618286312063 -1.611904018897811 1.5106812300998822
Ni 4.384859589336495 0.2137013156998485 1.6011763409541935 0.33690527407004556 0.5656650640804 -1.1764650728262256
Ni 5.949545452547605 5.675626597730654 0.3612036858901302 -0.08094809770929286 0.4665284683875384 0.42534762327385456
Ni 7.81649316948857 8.984014373588705 11.390504531543797 1.3581405077542674 0.4972410669800468 0.22631518512460377
Ni -0.1810760396319317 4.845147715636099 5.808368122677747 0.3144916822615358 -0.6533810766411456 0.2341326242864935
Ni 7.848997856341663 8.626961495408851 2.5890150815365707 0.24100055505092044 0.9194658283542037 0.2363206330767479
P 8.441399174311115 1.7289864016950385 3.597887119904667 1.1331317001459131 -0.8970344959338808 0.3511859523587758
P 1.8887353773337083 3.5203346544850747 1.4795417173725232 -0.9473612692128911 0.09431680570671498 0.553656212544982
P 4.909350138957366 1.1441015092210431 7.891440726530788 -0.43734156241093713 -0.38740713947433925 3.2025606983810717
P 8.574953996443904 1.56096845132554 12.648445886302548 -1.3615191944185132 2.9626605754831816 -2.0606450813949415
P 5.968359183431891 7.628174523480558 1.2063318908713077 1.6438682305092334 1.1661757750850754 0.9984280059817192
P 1.973265696868263 3.241302091610901 6.201340266530461 -1.0183715389831816 -1.2072915712887788 -2.141189515907912
P 7.013287397032538 3.6729661463916172 5.853314352431763 -0.5724640892801044 0.06928711643159681 0.16650052695981646
P 2.621301257105657 8.685188859138435 10.158546072493527 -1.561177181966905 -1.2904086516249325 0.9745152039198638
