# total energy = -340884.7124939721 ev
CRYSTAL
PRIMVEC
9.12199006244190 0.00000000000000 0.00000000000000
0.00000000000000 9.12199006244190 0.00000000000000
0.00000000000000 0.00000000000000 13.35095452127236
PRIMCOORD
 96 1
Ni 6.647704985077236 2.356000225632164 11.520298071273263 -0.42119632010964236 -1.9531765687976168 -0.4097772796394233
Ni 4.6974052671751085 0.631827343620343 5.941468656373034 0.41143769806098174 -0.551662836264037 0.8396130205916185
Ni 2.8460973853581146 1.8912348322910661 5.315669123781538 0.2589239722985605 0.08841406706903483 -2.8959057385551352
Ni 3.771003323082039 4.434682831579093 5.027382311054248 0.6430457561534088 0.5067276663142435 -0.36101373708247503
Ni 3.576622836983796 3.2294763834216997 2.83368691788725 0.7676720114769423 -0.4631775496374346 0.01703330133320292
Ni 5.1286017371109995 5.052122972483487 2.8285466764908276 0.09843417030919821 0.11008358162266849 0.2646878713655313
Ni 5.124296157804681 3.080267992079593 0.46960917006070785 0.5197659875554403 0.19738513235381488 0.6427166549487641
Ni 5.563374027148751 8.107825445342913 12.519310144011197 0.744381673490434 -0.3395311417286669 -0.02154867270505321
Ni 2.529017011019811 4.990741101398262 11.993936424341602 0.2908133648079895 2.7244419540527725 1.2352278926877307
Ni 0.9649149861084986 8.116390994005274 12.214267147750475 -0.12317821002309753 -1.4481532867689897 -0.6766762997236605
Ni 0.8162812801399048 0.4886586218941566 4.917891064414931 0.17884516456809843 -0.8374967455795641 0.2706070650634437
Ni 8.669639690887267 2.7715159946622 1.6327012145286572 0.23404623522027435 -0.35196679638885836 0.15633155684661465
Ni 1.82763631762229 1.7205623983477503 2.6043308975172024 -1.9524229784610438 -0.18690403031683295 0.7971623076265755
Ni 2.1864041865154284 7.001857127002159 1.0910702841816824 -0.2682272519773574 -0.6178880259408585 -1.7440718340140284
Ni 8.07071718979607 4.359946367052231 3.8057562807964826 0.6076336952027019 0.39333764602616134 -0.721243287700758
Ni 7.317970570394551 4.005584419356026 13.03791443486041 1.4147603131308408 -0.05495758718280213 -0.43440253438727117
Ni 8.339870628381398 8.946218429377986 7.359232980212787 -1.1540088007052385 0.1443898111037062 -0.1844162308979727
Ni 6.7386694699133 1.0955783716672403 0.36386523693629813 0.5044998054249893 -0.2120046820392026 -0.06371656432235479
Ni 1.4954316837715325 6.725552048213113 10.100918242994632 1.9252880699174648 0.8715191252715958 -0.44412953186704807
Ni 8.916708791547594 5.190804587301244 1.5811400779374656 0.5750763300919709 0.31186555749259837 0.5132860362580515
Ni 6.107208830293198 2.5386133445584727 6.7161846766248505 1.3941675765811539 1.583244960400222 -0.3725441063195778
Ni 3.495765517129518 4.736702800335333 0.8746446847156787 -0.04699873734704164 0.5669552436467332 -0.2167100579346719
Ni 6.309680521570902 6.083090288585763 5.08611333182927 0.08938003052672994 1.0529647035770189 -0.43112283519473493
Ni 5.378781436380342 3.3055446584967028 9.280234690453817 0.6385992903462809 -0.6325237735761623 -0.48713277490145135
P 0.5280519359499669 6.0165818590891975 13.090050256825114 -0.12875673255213954 0.11397726025011984 -1.8949233415826785
P 3.8492699977604805 6.574127013287456 12.886541395278071 0.4110780007287179 0.502645782935386 1.2076299284648038
P 2.398900944864415 0.006572393835176861 1.455147151287274 0.5230683124557959 0.17353840764320436 0.14840330313847344
P 6.71253496840354 8.100363657477299 6.126418829151628 -0.7435460649630162 -0.22550220230500517 -0.2419847733410607
P 4.744246686111449 1.2925038929910406 12.656464737693618 0.34157953961726334 -0.07585371390552098 -0.2294503883194758
P 4.179066426236517 6.581415483342011 8.495305690135568 -1.6903139235662825 -0.6873219523629648 0.25985496875326214
P 4.857788096335524 1.829597545484279 4.09615300982367 0.09688508065452348 -0.7809615294969969 -0.5742535770803594
P 0.5639980499637044 6.120682009605559 3.9006012602022673 -0.19942401716071462 -0.6441605864841422 -2.3972317957833034
Ni 0.9628625383459519 8.206498011776095 2.763941094119895 -0.17391533136664888 -0.59580507799889 0.9007697946065971
Ni 2.1889765877111533 7.207932004351888 4.858359132913015 -0.31851494448831597 -1.461587815007341 -0.2879000478159365
Ni 6.19378563791244 5.645088814068271 9.106873093842063 -0.46976291616443616 1.236286158748916 1.4635824768398664
Ni 0.3060208735946971 2.4859794619367235 10.200209280353597 -1.907515319315076 0.570461714138095 -0.6441328185700004
Ni 2.4863078535787313 5.505184852583042 7.2056168432757355 -0.05887466284902118 0.4491007598293943 -0.5951530462371879
Ni 0.5297322065182383 0.13282073620692947 9.701096857855537 -0.7790771679900905 -0.47954390681059994 -0.8187611168432739
Ni 1.6121840344952363 1.30458140782487 11.630229910032273 1.0154255689809804 0.5218532091017722 0.4959195199551459
Ni 4.4937750831603225 7.213952517788691 1.9487590137817097 0.6497643058241648 0.8741959007728106 -0.13436328010563958
Ni 5.520555405827002 8.170128637423769 8.19840771879564 2.3409351780741043 0.7070441133822404 -0.05528077485017576
Ni 7.213952517788691 0.8379469187213463 5.0711331997596965 -0.23557244205681363 0.7651302188916952 1.079278144660567
Ni 1.078502006282853 7.721089554938806 7.4862275013711015 1.1653681915821157 -0.5385697505255047 -0.0953447327505971
Ni 4.912866672292218 5.287032460399483 7.0550045776640475 1.7069075662589055 -3.198706357631988 -0.16400784244494981
Ni 8.489699315047297 7.017346266116843 9.427269311565635 -0.9017738103910793 0.6419944320707589 1.2517662566623862
Ni 4.727060856846392 0.4878349061921212 10.41626817581936 0.43580301427922363 -0.15440348658596634 -0.09829224541469522
Ni 8.45073017352908 7.649390713100513 4.7474256996458815 -0.02681532042063124 -0.2640785199163065 1.1263990094077698
Ni 7.67662897540702 6.433256120856316 7.36721654590959 -0.298256451349596 -0.6114885501724179 -2.2077582049670816
Ni 2.7708409673980743 5.690789984247641 2.996194258531652 -1.269770663659607 -0.17354766361458498 0.501172283713653
Ni 3.284600569328672 4.681332320696854 9.357269896474731 0.6190043989334888 0.5210319987520575 0.17015792120674567
Ni 1.327431992914555 3.7371151300248813 3.9121633825979463 -0.5147111987403523 0.1330371050950483 -0.6793013960513333
Ni 0.5048227882729678 0.7045469361458759 0.4067084876311977 -0.07685875813126763 -0.5464126436086912 1.7578804577623466
Ni 1.2073318718403863 3.4798202785120447 8.09485762427964 0.307709883453012 1.0241884027752748 -0.16442590381897487
Ni 6.078593147488272 3.6212293683564747 4.479058576603361 -1.4620806954833596 -1.17610614682491 0.32541604248352346
Ni 4.286021759640332 7.28015079962336 6.290542586433912 -0.3803306922435321 1.321619272899782 -0.6913421292659513
Ni 8.635879205690891 7.586275663904693 0.9096977559029572 -0.5624018199480959 0.5222733273583263 -0.46013722014921404
P 0.5492934019938154 5.677636074587231 8.152639958088862 -0.04492977063315488 0.10839616661791653 0.7493873542351417
P 8.853484278471104 1.73808574124487 8.008610120501412 -0.5249434179913217 1.3451057860574964 1.1637432543841828
P 2.016507121726852 3.613493920789188 10.717157930007689 -0.8076956030577317 -2.2676631088528296 -1.1525468714477312
P 4.362199498596005 6.620612674611622 4.20310743102848 -0.811375365902164 0.03792197185675405 -0.776022954544799
P 7.000516194463962 4.2527903498671895 10.733727112744976 0.18331014231798753 1.2820844480299531 -0.9469378085222273
P 6.617255782271101 7.9332670436358415 10.039464308187966 0.28876779513287043 0.35921062243546525 2.083392916614418
P 2.580246107172973 8.788106975741455 6.047702440363437 0.042321386476030336 1.8599421975218033 1.0405380477778916
P 6.747609020167947 4.329068430713476 1.74563692461303 1.8314026953212137 -1.3213526495019565 1.1612477416558389
Ni 2.7183165486569933 2.081784082565888 0.39701637319695005 0.9061056049972137 0.04071650388275568 -0.4619992130586173
Ni 1.687704990166894 1.400745426992718 7.216752056536805 -0.6861135338771602 -1.6485314403128577 0.5169166910321034
Ni 7.122604909370287 1.2850877150757056 9.340728079707613 -0.2807109862666649 -0.5510619694552445 -0.6187755707521343
Ni 3.0816271685979015 2.196201203835317 9.487362245455982 -0.5709245127071265 -1.4890911626339323 0.3396105888163506
Ni 6.695458603019152 1.9283157218677405 2.6626213261725304 -1.557970502104149 1.2165513993241501 0.6686660278246743
Ni 3.9854065773526797 6.820448110763211 10.661284828717138 -0.15852496495350762 1.5456438622179962 -0.5614284002912331
Ni 7.633637036274211 6.4576209562952585 12.081038658588055 -0.29243804489560604 0.512295390210008 -0.1746828056602927
Ni 8.062270227004435 4.147148583031404 8.63570406348182 -0.6674815205982697 -0.33086086764817857 -0.21701910453465853
Ni 3.2607191993626863 8.807701010381232 12.83325802696435 -0.34567942071824986 -0.17388730634219085 -0.6742214104252646
Ni 0.03648796022304989 5.051447945219361 10.87077406694474 -0.043069063275332276 -1.0283168231213515 0.3036825074611738
Ni 8.852572079465528 2.54395883073115 5.821310154562507 -0.06025200281252204 0.9872745604680611 0.7275023812365922
Ni 4.257634126586799 3.082530245613422 11.41967248676914 -1.1913574165570255 -0.9948420884026736 0.4009784504008707
Ni 0.7771278744225611 3.6161210539252475 12.937422031411103 -0.15502749332321045 0.15010125966618668 -1.0107196788648787
Ni 3.2787716176830397 8.930118116929565 8.144042482461305 -0.058004858649558164 0.0366886136702852 0.7915061377820627
Ni 5.5832599654703134 8.531341199651852 4.114336784800827 0.01891869128137387 -1.0730969555505199 -1.2867448296201
Ni 3.157184612229782 0.023095054423179426 3.6351440519875347 0.5349851184980399 -0.44113471090478223 0.9575870607059573
Ni 3.6287185221922558 2.8505945264556054 7.340888658210648 1.027911874373449 1.1050094879884003 -0.12831347436713386
Ni 5.163128469472061 5.128373687359606 11.750682139922594 0.6009362285778682 -0.4737666380071905 -2.0416361443926063
Ni 7.890585252164929 9.094788281416188 2.983657907598018 -0.014169092411530436 -0.9279946917608212 -1.7272521913535286
Ni 4.508780756802052 0.63698309239986 1.768080668946228 0.9055952410196983 0.5863529314470547 -0.5667652391231142
Ni 5.81788667169458 5.6699006270199455 0.3825598433565777 0.10592302248707564 2.136286165069024 1.7939396653787494
Ni 7.801244481558792 9.008266205737282 11.72144342519686 0.08212257763336825 -0.006283261905550469 -0.7229075627770581
Ni 0.2962065244937023 5.096848089726891 5.735076333769363 -0.14138753394227263 0.29146771056253673 2.0570103128558315
Ni 7.2932317333633225 6.681994545696847 2.724582443626297 -0.8573196938427622 -0.47903765659814274 0.054850629291292634
P 8.732107078789127 1.7901905484433853 3.742246249431248 0.20187325003215556 1.7573235568176124 -1.1563251075432408
P 1.6516548854665205 3.715295329811497 1.526454659752175 0.8637690490125319 -0.03690844299057515 1.4392523847349343
P 5.196469343125872 1.2543374865977301 8.043282804703365 -1.025062834960428 0.40651249284522245 2.173897033443262
P 8.654935042917378 1.910135595686606 12.399165325185754 -1.6162306712976229 0.21803674716589547 -0.766231422375674
P 6.498806741397026 8.292390670141154 1.3935591232267883 -0.4925349197536291 -0.2375629901242812 0.20462407330441532
P 2.0284021967595662 3.70534323866066 5.936648596827568 -0.791364984218508 0.029458671580749267 1.4143769616494932
P 7.236775736908209 4.476443302054373 6.10688682404423 0.12019573035600589 -0.887581320940781 1.001242849722695
P 2.5168938862357026 8.967372324317298 10.332583951246798 0.7344340753594191 -1.0096218178150096 0.4201367684968764
