# total energy = -381162.79699357954 ev
CRYSTAL
PRIMVEC
9.26727226986800 0.00000000000000 0.00000000000000

0.00000000000000 9.26727226986800 0.00000000000000

0.00000000000000 0.00000000000000 13.56358971719722

PRIMCOORD
 96 1
Ni 0.7809697332541736 6.228302154182049 11.748374323558222 1.7606238248354387 0.29086530109184744 -1.6453432723928632
Ni 4.770736270743583 8.984648474330928 1.8421929071288887 1.0879838999646811 1.4381216135646007 -0.6913678402975642
Ni 5.8643392946747825 0.19371472344467924 11.096345712727034 1.2386441174581313 -0.9452303389128173 1.9811689402454848
Ni 1.366950493097221 8.306719690363545 4.592618366888218 -0.4044751507002195 1.0590026822409826 0.16566748953555985
Ni 0.4105281235538658 0.19671824645650143 0.8858789646735874 -1.5434872208863095 0.29777154129337746 -0.27159462578769356
Ni 0.10578128176008778 6.96246474757781 8.992768458480755 -1.292677135944135 1.5082929323733638 0.5171694304728577
Ni 8.407686624068583 4.281016523638579 8.739671833145138 0.9734001164788141 1.0715008147079934 0.10087260454736176
Ni 3.4160093100517726 8.265054033278842 5.765868964176733 -0.06947532118300292 0.2337605856590555 0.5510288022244639
Ni 3.975289204416072 0.3791268974716123 12.777972930083838 -0.3807076159669766 -1.4856068036297574 -0.26829024400480894
Ni 6.705121857990367 8.844341968934483 3.0873714397961693 -0.10715252401880256 1.3458151534196952 -0.2036470541031267
Ni 6.857244135802959 5.8287158992491594 4.598111079289042 -0.32561504586820694 0.6510210610494014 0.4339304798468591
Ni 5.796020961928244 5.893225383005081 10.212976325441911 -0.5889019231211535 -0.14356731520241084 -1.792065845394804
Ni 8.193445818800747 1.0925465548681088 10.431771068408016 -1.1029996566472229 0.298614348909647 -0.7155215547256323
Ni 6.545409684013989 3.4154162046128445 9.222265047710522 -1.98392670549628 -0.17639310348318007 2.0691713736983974
Ni 4.315342500916547 7.4745371559124205 11.318856631958925 -0.36193470623484764 1.0212329196913768 0.421887432639396
Ni 1.1129160197862984 3.3374413739387565 2.3287191521361645 1.0323439420028737 -0.7526338861968974 2.5186472574790235
Ni 1.127502706674938 8.651981193999609 12.368814509402997 2.125292899282314 0.09587592266371875 -0.3839191809257388
Ni 6.531703388011259 3.903986809929926 1.1402109174312225 -0.5647878036817692 -3.3376413162687104 1.1733563519939147
Ni 1.8964639082453127 4.331198804135392 12.319795271602834 0.453622816069464 -0.5041226245912286 0.7504219661472431
Ni 2.5669881414985776 6.861117855700959 13.44256240203883 -0.5861788677630356 0.28586064878840445 -0.7281605836458814
Ni 5.548936942979761 8.042148328239165 4.79212513563493 -1.7074091884856724 -0.49017644682378164 0.6659709974910143
Ni 3.2745814646848537 7.887032721414481 3.226818869033417 0.3094806022001896 -1.5339425146206678 0.8208105431731347
Ni 8.128732455050194 5.891232919421182 10.69305996261883 -0.32633161231925734 -0.06448121040252121 -0.4261004422794791
Ni 1.8455773150397723 7.821596510410234 10.319518450272874 1.3813046045755566 -0.25716379507434417 -0.3042059840648116
P 2.433984246818935 2.0517277914297285 0.25775342975845195 -0.4085876302066963 -0.376421586997113 0.6052474543587124
Ni 0.4311728264648078 5.38436871822216 7.363103764664797 1.7107531652572407 -0.22294883975553215 -2.1496433031022204
P 6.589966730113468 0.5902131231861488 4.950981940361103 0.7349251560632246 1.3164757810256293 0.63323519782089
Ni 8.975436805482575 3.0093891953040943 0.8272356643995644 -1.1575366113528387 -1.5428760696648718 -0.4479249943537383
P 5.234489120350514 6.90166217281519 2.658708190719826 1.2614580300288534 -0.19332638890340897 0.020557255326061372
P 2.0167901741678658 5.998028967518186 5.6630161405213535 3.422221097193319 1.3885808265219957 1.9394067687070342
P 4.973291045410037 0.30595529412559413 7.66783670554985 -0.08920982349745282 -0.8004659180785118 -0.05573380322719433
Ni 4.845532426955916 7.344767539329433 0.31413829572830626 0.7583263085959844 -0.6998617367011882 -0.5950710280463429
Ni 8.726601272034758 2.058270485802905 8.031815319420337 -0.6531496773566299 -1.133339702391661 1.1843696723852828
Ni 3.7684714844073217 0.6880115764291627 3.7788573166793036 -0.15131996256463617 1.9544032421158661 1.1390987163626254
Ni 5.516464420198443 2.1827206879805052 2.8222579422315177 -1.435303427389515 -0.5844675414988837 1.373285333815506
Ni 8.28314374916615 9.042550392806293 12.409179041431052 -1.4653225994594248 -0.34521816481111517 -0.7192128875342904
Ni 0.44350385923102376 0.8983008167101393 3.136865161947477 -0.1288426073977265 0.3438289977730724 0.6233529057101717
Ni 1.4871562844774915 4.234967446669296 4.570102601662907 0.8068746498183331 -2.272875763402021 0.2249671557371416
Ni 2.963775680141525 2.3793258737127108 11.697999283793758 -2.9571920961694427 -0.886779650975092 -0.6837602031536353
Ni 4.992863524894667 2.6755542386398834 11.699789720837522 3.0375758367348333 -0.4740872545714029 -0.35617852047736076
Ni 7.01295284806657 5.531421797986414 13.613503730083163 -0.2077993857086034 2.7083159950251874 -0.7896127774140917
Ni 1.8700243798505929 1.3718714147858282 5.425245730418539 -0.8826712852336733 0.04208201677171462 -0.5260363939451844
Ni 1.7470940103602461 6.1555262633710655 3.2859153389318716 1.5849393173835091 -0.5662903563692246 -1.9874375468630157
Ni 3.552636708272367 5.872985659901658 1.7532159705626829 0.44245317260588957 -0.6051006443682031 0.09749520343469661
Ni 7.866292565596962 2.7087310741299278 3.003114325105684 1.0534799526505405 1.3685933276564752 1.3960820199950472
Ni 1.1754793763207374 0.7691863962917179 10.094023469301376 1.2267468517999132 0.15595103357874435 -1.2222276237733207
Ni 0.0021435201253763463 2.946251267875694 5.974964579761867 -0.01349983425864772 0.8384264564826851 -0.6041621917143336
Ni 8.590863531972555 7.782136464176544 3.0260230226842846 2.469400861748386 0.1606198998093234 0.5951157652413492
Ni 3.8091640778812845 0.28539863030324303 10.190488362034051 -0.8568504675158275 0.6899241658725022 -0.10429499996534941
Ni 1.6868845410365534 2.5379723113535135 7.750479461373752 0.23331192815741109 1.9926118919751037 -0.7565674169233487
Ni 7.557395839185183 6.392351411680588 7.482611730427078 -0.3615837506533321 0.23339317501730772 -0.0692169253152937
Ni 6.533593911597842 2.1814510716502995 7.246917189360513 -0.5394981758770451 -1.289792101086856 -0.8637687919022157
Ni 4.945405822507929 4.21802687256991 5.926556055218349 -1.6521191576641159 0.8374540652670868 0.4109345331723181
Ni 4.253492724363318 6.038360137365302 4.5131218500723795 -1.3999134779259954 0.13385214479717591 0.09507399558771368
Ni 6.3000957141098075 2.7882350047637523 5.1044127570483315 0.6091488462956477 -2.999476972980583 -3.6664537860282924
Ni 2.4992814487359336 9.210343628388065 1.650512349994283 -0.42321540742220015 0.9703700714032385 -1.3103925509460272
P 0.6512974230322606 0.11912708086321999 7.842413584589363 -0.8864127545539766 0.6914460018336672 0.23826078752225419
Ni 7.770070475403349 7.93298912565893 5.450338724121442 0.5371353320718233 -0.7661684303482224 -0.5994691571140386
P 0.9890311212301764 7.364580967898628 1.7230231968122456 0.44669960658706936 0.9550882055435035 -1.3000546593551288
Ni 3.8990102846064194 1.6982276825560547 6.386551952560568 1.583969497271072 1.078508099263762 -1.0497582808245791
P 5.902622397303101 4.996913322969848 7.982037092003794 -1.2002205233746102 0.8050226842112588 0.19603556030445593
P 7.740489341636806 8.088049128848715 10.294276253482991 -0.051556017700420884 -0.12957511468837685 -0.025517941765446372
P 3.163624411242869 2.3536740634790676 9.44511422238805 -0.5268105531070476 0.7874561360824051 0.6543637522693891
Ni 1.986986625861725 5.621240202894099 9.279543278747761 0.18651450818789814 0.6717721775538237 0.3875858311440486
Ni 8.712774501489744 4.304898284827921 12.664391385074598 1.350541612361087 1.1620370703263536 -0.04555094915692155
Ni 6.460818020786859 7.091085222372874 12.090028078016555 1.1616452342045736 1.3239276093179844 0.028132753680474132
Ni 5.420853969988725 4.455065168146548 3.1227316446832685 0.03183719911525485 0.6935365658141088 0.5063597414518635
Ni 4.115123078915873 4.376024601136885 9.786482544853898 -0.4698858148955456 -0.9315734102510149 -0.08623711402237406
Ni 7.364738511530843 8.44687791940026 0.9777018806194 -0.16698132325097692 -1.6749500395157024 -1.0489995482816836
Ni 0.5038013676433074 1.9749299043610133 11.921595400633437 0.12021501362971555 0.8952267533011808 1.8745977426514489
Ni 2.7706920579529553 0.6727057491958225 8.142996640856417 0.5421307284038858 -2.4795978568860457 -0.5482954624537008
Ni 0.30246894621739445 6.291134261618502 4.794512385026617 -6.237887334070411 0.3722075489157654 1.236702163240412
Ni 7.459829994481499 5.996277453018852 2.2905101876877136 -1.0026464149384409 -0.6088110033402547 -0.3352140024105517
Ni 8.982313121665149 6.752496154924755 -0.05709659249656812 -0.996318415837884 1.4079067805441172 1.6837506685264678
Ni 3.0313155619994703 4.864891759173431 7.1299586502583745 -0.40022074629923976 0.2095708757867294 0.7228047186506068
Ni 4.335257869483057 4.5201955591588465 13.338976537130023 0.21980926568528594 0.2775876101463348 -0.1616192876081152
Ni 7.355980939034168 2.0314046628739555 12.81638577452692 0.5768976995714258 1.9954457618794732 -1.6254347063943941
Ni 6.609085113246419 4.3674245722724265 11.672784888821324 -2.175647440475466 -0.5166564953921812 0.7139611522170478
Ni 8.605385347953813 0.7609626186900795 5.926108445957407 0.7835305757757538 0.6067476930533228 -1.0028186788502471
Ni 7.246145225562658 4.266012809488192 6.3787118400397365 1.9304816983032622 1.044063287322331 1.5592370275213985
Ni 1.0932508675768362 5.1939262686913175 1.0789644403166538 0.2811064219328707 0.18889123595019083 -0.5340399809759513
Ni 1.8852597758130605 7.688166321196362 7.580622404209959 -0.24415169908539242 -1.2390416100068662 -0.9103569240743999
Ni 3.7638656499831455 6.982926885220832 8.765063233022001 0.2918703453175941 -0.37609377134404903 0.177596636872978
Ni 5.735542741702537 7.957324983199952 9.236655268422517 1.2752645968946426 1.6074526679946768 -1.1584298125910695
Ni 4.69342868368829 2.0509308059961686 0.6137038054766976 0.41629296927075404 0.785688245548705 -0.2294449890028371
Ni 6.04325325723646 1.262350788578748 9.252593123639214 -0.36346476972612884 -0.5306826344679441 -0.518689723772126
Ni 3.4032112067524007 3.5120553220682034 2.091315726023687 -0.10981438712168184 -0.21108474132809452 -0.32879550047871764
Ni 5.0803836462265055 6.5997437025833 6.705702915975066 0.29269901186647657 -0.010652080397207461 0.8457772404208015
P 8.436859997845863 4.374449164814732 4.433042421817346 0.18543438774984194 -1.05365530188614 -0.3815272836547945
Ni 6.986142628772521 1.4222112389148567 1.4248412908456038 1.0513063420379893 -0.9576001733320799 -1.0480569818627565
P 3.7538847975186824 3.0694411209955716 4.266508608566046 0.16582946903472084 -0.4808279157293461 0.4678968094899748
Ni 1.0893678804063534 3.7207821002085035 9.81792362020783 0.005862372318047968 -2.1722489563168783 1.552997988590222
P 8.232006939603561 3.379755740097288 10.876778079235823 1.179021263589176 -1.389417720600994 -1.8387527079283816
P 6.190130258823531 0.37018397952527354 13.138493924590824 -1.6633042277466579 -1.1497579958486845 1.7435882095093906
P 3.1070755145500613 5.849539460519028 11.324770078530488 -1.217769330891651 -1.184096107008922 -0.2624088455233674
Ni 7.766076280963066 8.75398606222277 7.614016093876112 -0.48763979644485694 0.2545790650663035 2.279409964976113
