# total energy = -381165.3860744399 ev
CRYSTAL
PRIMVEC
9.23572338329238 0.00000000000000 0.00000000000000

0.00000000000000 9.23572338329238 0.00000000000000

0.00000000000000 0.00000000000000 13.51741473267025

PRIMCOORD
 96 1
Ni 8.353028432607198 6.225718067774056 2.763378334313266 -0.8661380634653406 1.814983887643558 0.4148829762971048
Ni 1.6395533370797917 4.588270475644802 10.100955595996606 0.39214311149742787 -0.5432116201728903 1.999310129930886
Ni 2.3023550317082697 7.749455432574309 6.970187570734197 -0.018720202117322598 -1.6507685571734927 1.3913396202140556
Ni 4.4435097460188455 2.308385959132395 4.635581392678228 1.8101610123336183 -0.30777853190741833 -0.04572526995125673
Ni 3.3078390098662536 1.905542172937106 2.3881761448831624 -0.875992330551601 2.071337013891149 -0.2868083574136544
Ni 1.2670304310275426 8.652302815840546 5.113354603363462 1.244723490882992 -0.3876367389866421 0.08683181018357948
Ni 3.6980852692521897 4.74364305153465 8.96558779157374 1.1907778899044719 1.7457337950974838 0.8079776530745246
Ni 7.084982071998256 8.40501632000445 6.507283874831265 -0.6897922682803281 1.210974933677637 -1.164544924349872
Ni 8.318597655521224 7.076762278112388 4.920406486547035 0.4589935934630741 -0.41611196360819946 0.13965975261788852
Ni 3.9419914902992663 5.000294570966556 4.869378190818034 -0.3779153979338201 -0.1973375669453311 -0.3242539038546222
Ni 7.048768800283098 6.119710433816756 7.032246091000157 -0.019433683244579433 -0.252142687710669 0.6189894865351534
Ni 8.4739055813468 0.3034729431215676 4.802169831146726 -1.2887428338867353 0.6770861335675694 -0.49134784142406346
Ni 1.8842723017919882 6.827268444367614 3.291260886242508 -0.7806203441074944 0.90109169672239 1.0264949394212646
Ni 3.9156789141410204 5.882130683344759 11.270982299875087 -0.8614679116831808 -2.8725552367546525 0.167121448373267
Ni 4.125089708037852 8.044287432819901 11.318510256409994 -0.42060650904444336 2.705856220630785 0.06750662749240632
Ni 3.1974721144324025 3.2834289927422646 11.503982055079668 0.7649134748951988 0.34914706755187613 0.308951469169597
Ni 3.789897596240299 0.2546907753398055 9.089110051514366 0.134636074151052 -1.0558278840574267 0.587307324940524
Ni 8.81532257076129 1.3816272878094022 2.124288436114652 -1.437826193811369 -0.12390403244552853 0.12880172685746205
Ni 4.356407637999043 5.8505075661928325 6.956994339761206 -0.10421272466418827 0.3144885969377423 0.8576395390760261
Ni 3.1709563523578765 3.6087019375359715 0.6061950219252463 -1.0810797166456798 3.3714155845056775 0.9687785585464025
Ni 0.5839812598417736 7.976811237168042 12.335614621834495 -1.2067812073112636 1.5197258568006538 1.6500411920891647
Ni 2.650754228064015 8.888663450814866 2.5333524820651463 -2.5225324514660428 -0.5334851369137458 -0.5424207488404788
Ni 6.203589274346483 4.662608813832841 8.436543385632314 0.010847484237465189 1.6339725686620763 -0.36377330210548314
Ni 7.738917472098157 3.604056368631936 7.044452023134498 0.35865346438041457 -1.199341720314083 1.4256077973683061
P 1.5970320662364903 6.14491472315893 5.32999789230751 -0.09465799109621763 0.4638496360037947 1.8605428072202796
Ni 4.26602684814836 6.908995361329467 3.391951514199702 1.181518833200049 -0.7440014073328799 -2.8234474234844087
P 3.443216244449466 7.184838714126356 9.194126692343628 -0.543089235662413 0.08740156664412044 -0.19623456368913947
Ni 1.7924322676334765 4.529706753138856 3.8579916617921186 -0.6531399071646171 -1.9261905271270763 0.3739448433218463
P 0.8689291888326954 4.260725542878148 12.90070975075805 -0.053486144843598205 -0.3938593228575862 0.5164970869961815
P 3.0773338235701826 5.407146661146639 2.217221056359341 1.4593658676553576 -1.3431147237693966 -0.07023251106400162
P 4.1334665092226635 1.3379515515326925 11.117411613633703 1.0975841420586065 -0.39760182061915395 -0.4970955425411181
Ni 6.274205615977213 2.2834033271534357 11.941176267566766 -0.7934128678864723 -0.6569055448546365 -0.6391348511347767
Ni 8.776541767922232 0.8687038371800941 7.124474949116641 -0.29547168951560726 -1.5291396939153856 -0.557433420199227
Ni 3.8156560289905093 7.805359266721681 5.281646109239324 -0.32210471872210333 0.1743223369970804 1.3184115645957617
Ni 7.046238212053067 5.9836866985908355 12.286411305062623 -0.6672107834353864 -0.39657595045780086 -2.47548332049704
Ni 6.743675911265372 1.680079691654163 3.2823123937750722 -0.2997487196244063 0.4044167866584583 -1.1428903221945736
Ni 8.691896362344723 0.5361531422941803 11.183809076784584 0.3460427175949395 1.4733986915993398 -0.7140956209123831
Ni 1.2521147376279051 1.5913336248571863 3.766425005048238 0.8745746242684679 -0.7693337154500814 -0.14488217735909242
Ni 5.090583003582566 6.816139397589556 13.101348454505672 -0.3849363093363435 -1.3082693339554372 0.43123596373383155
Ni 8.086383860383707 1.9277910307697543 8.892647741918644 -0.34493714323558655 0.8795805621234917 2.6992353728801577
Ni 7.407299585282438 4.677182785464189 4.768673709275639 0.7420823359332962 -0.27709447256000025 -0.6634999102427025
Ni 5.704952564348691 3.908964543180317 6.209562016712765 -1.2454562552839583 3.1000179052201386 -2.116608484134438
Ni 0.9339163570101257 2.612250496928975 11.349316012035066 -1.4617400243144891 1.133713540791312 0.285233813837683
Ni 1.429172792218897 6.097295332961697 8.583436643806863 -0.6602189254985855 2.2008025995848546 -0.6850794361856911
Ni 0.19943528897983537 8.507006414253487 2.9367125452022558 0.30948960106125406 -0.41626443002566377 0.2554483550451343
Ni 6.253434473899328 0.2560779810045891 10.296647646255156 -1.0568725232718572 0.34034489587921385 1.5820499116508562
Ni 6.816591948039452 8.476232983660552 12.87417551723659 -0.5056999963806775 -0.45018293714997953 -0.913492127269272
Ni 3.7165936590805946 1.6931667118072815 -0.05885557136751114 1.0154322538491996 -2.5462326232964605 -1.5831799114902414
Ni 6.960696941299233 1.9162186692652676 5.513050855001106 -0.3391025388316805 0.6527095044954178 1.778115553862299
Ni 2.4505145075701806 2.690089174311108 5.500195651507016 -0.06495172228103653 0.6788645656242308 0.5596376269393974
Ni 8.665611493356879 8.5292090934688 0.8382869055129941 -0.11908707067285941 -0.19233728551726229 0.1636085501240021
Ni 5.246943801883411 7.940570258282483 7.7824897682720335 -1.339760205474867 -0.09533959054427452 -0.4889628861316547
Ni 9.096227100018243 5.2215547980718915 6.493982585893706 2.3053925050828035 0.5248454589608768 -0.3489575772488894
Ni 0.17986017309096114 5.856510786446557 11.463268215318909 -1.7464138518836438 -1.005431948103378 0.03698300498225244
Ni 0.43625401583813084 3.5046153340598627 8.581909055145378 0.13980553416713343 -0.02349885445288856 -0.6852542712006585
Ni 7.796834693961393 3.2890535483338312 0.16042174590940247 1.5138454867604767 3.4919890099160766 -1.3471220451565766
P 7.214651629478697 8.276261099147268 3.3603616456522594 -0.0021666686340156235 0.197813221030169 0.8180275811113589
Ni 5.729621181729764 2.8364199769265004 0.9883286218175342 0.10472360286233577 -3.1202499159962973 1.4593818084949575
P 5.193607498859939 2.2784899222688493 7.119797978752816 -1.5760361013566082 -2.721815057952887 1.0704206942699372
Ni 8.075384113734192 3.7835618899417534 10.899280449639077 -0.7112738351928718 -0.11440354915426103 0.22591692124492058
P 7.832115157606356 7.9149595971077495 10.864135751129083 -0.36098159829295895 -2.0982027279337414 1.5082690211139638
P 0.9506053093154787 1.2627173481683287 9.433303299403118 -0.8122940210616912 4.189293013192418 2.7775285494651065
P 3.2350338017737807 0.45837264996989063 4.419410972775704 0.035985416955673505 1.0975715436531164 0.6786640195776505
Ni 5.219301281545878 4.151623941559312 12.958442258151942 -0.5398753567108057 2.7342319435600007 -2.7133602423173144
Ni 5.7171529550489515 0.01404753539371441 4.904564450083631 -0.4838042247488506 -0.31658995955146124 -0.9291236631589418
Ni 8.028475874243938 1.2720177216998672 13.323020594877647 -0.23582492438725194 -1.714460696015815 -0.022083462162600678
Ni 1.152184209712067 1.1727244587032706 0.3841285161612178 0.9812381244659939 -1.9560960564372571 -1.2279547560650852
Ni 0.9425979370693575 5.325789173123477 1.7680647348374372 0.27067031420121124 -0.12618922893527945 -1.978148408251606
Ni 5.885298536494031 6.6214411111760825 5.275387059445556 -0.6807113890249825 0.24301681415000081 -1.724498282757475
Ni 1.7124139595130679 1.601502156394648 7.514817260026636 -1.4269218881940393 1.5400666252405348 0.013706293842498975
Ni 1.5090987431046332 7.428707992279564 10.483809582319338 2.51563700989779 -0.2285052507973871 -0.4392138397329855
Ni 1.107086172021398 8.731609973253974 8.743523132954405 -0.16235513733287524 -2.6576521501217325 -1.7011243839182253
Ni 5.537453483546321 2.888814236156311 9.317054171692963 0.4842220290125596 -3.318292736538769 1.903114362033903
Ni 5.523636841239289 6.632293086250122 9.734241960005267 1.1804083737446895 0.5502482153046975 -0.04291145465154545
Ni 7.470056326242522 8.123991726342423 8.846215142186955 0.25435769308411676 -0.9259740617863664 0.11118761332012465
Ni 2.008594375384881 6.199617913255557 12.843680081920018 1.1642420483974723 -0.4029407163335641 1.192437794105398
Ni 7.813874603758503 4.117627243476299 2.29206735933808 -1.0541073018218943 -0.5853874822099917 -0.526129467879623
Ni 0.9908730636327665 3.0342953522127147 1.5177082845208205 0.21779172103462494 1.5349339319996598 0.4491143866761491
Ni 4.05322654373904 8.559622330846514 0.6593309097494785 -1.0039651337498643 -0.13628569393933304 -1.15080494905596
Ni 8.34521501055389 5.542080581003423 9.271419538468846 0.051066479658512055 0.5878966217850907 -0.6571783389000488
Ni 6.393060141277483 0.7696793337363949 8.088077692067605 -1.626598644795508 0.8335953536426288 -1.6556536531799357
Ni 8.447352876378405 6.278943542115921 0.39739009148786775 0.766349436010777 -0.7140462557316865 0.2902988870654162
Ni 0.1465275235252447 2.5936312784189632 5.711108174039625 -0.16856769390149032 0.8264787972025056 -0.4648945323285413
Ni 8.869684039089629 7.47259615019602 7.263745041141306 3.748149560536887 -0.6115962793948757 -0.16294957638376453
Ni 4.734813699899941 0.26677387235203204 2.641086272738479 3.639279539606345 -0.37755132972618205 1.0207225557138613
Ni 3.34419081743342 0.6321501755853092 6.676683667523198 3.225764133080728 -0.25380310613222745 -1.2392699239675882
Ni 6.078177385384453 7.451852715288537 1.7318108259390237 0.5249148787462314 -0.4518549255357638 -0.19564629528583727
Ni 3.3549873781666557 2.557140934999788 9.00692411909619 -1.8580213263500063 -0.6595190712180835 -0.05328842701049532
P 8.990210230337475 3.116105390685773 3.609149870124134 0.16341854560038307 -0.33011396217982497 1.1334286625610415
Ni 2.158915010538132 4.584225228766139 7.23742692354898 0.5403911200049597 -1.5653297706826976 -2.403587819908318
P 5.842804972821132 0.645702676201178 0.7569211053387109 0.28942445488026286 0.20787986123755167 -0.5179394758696628
Ni 2.043459231473817 0.7308505051353072 11.561540007300026 1.0095873650326486 -1.6106529200995294 -0.3433538579088667
P 6.161954632956039 5.128938963142129 1.1864893809588868 0.17310774786368896 1.1173155590492627 -0.2757366729805251
P 5.846914869764065 4.650574666154991 10.588596253634266 0.21571272701840916 -0.10908522226514115 1.722834521901807
P 1.6849192107510116 8.060163641460136 0.7057256430149518 -0.026186942808012963 0.23598947498957423 0.01618252329713342
Ni 5.003850324501453 3.8873067716495737 2.809513543749309 -0.6343731680800753 1.2996720792047294 0.8373890163571063
