# total energy = -381161.7343022353 ev
CRYSTAL
PRIMVEC
9.28738192437590 0.00000000000000 0.00000000000000

0.00000000000000 9.28738192437590 0.00000000000000

0.00000000000000 0.00000000000000 13.59302222928545

PRIMCOORD
 96 1
Ni 7.116511987429119 -0.004684555352857593 7.8731326885878445 4.036494923420357 1.6290049402441558 -0.11448248202131252
Ni 8.57008010454994 6.616005697736715 10.814880208383599 0.7782425879039371 -1.780681257706946 1.2988439268764793
Ni 7.662795781749269 7.824953467040492 4.930025496104426 -1.2033295013172374 1.086997881902328 1.1532156153799817
Ni 5.070297466310383 4.3384332099347205 6.3062241508491255 -0.6005613617369528 -0.08309574017991496 -0.07690041000248046
Ni 5.341108230652124 8.826616163147545 1.9675624713234445 -0.4625903096753969 -0.09291889691792385 -0.06416470760336693
Ni 7.452696631883399 5.326266994621461 0.10546100594429783 -2.251265641331413 0.653957517969906 -1.2122270609171832
Ni 8.170388343714135 4.108199016442771 11.818521116802621 0.9025891072035229 -0.38128739972984654 0.8700212005698306
Ni 3.0460290282582654 5.944760182019462 8.649525296746368 0.08092932865621545 0.45350531665499316 -0.8862728865420026
Ni 5.44882328414626 8.913239572695726 11.285239656927358 -1.6101896073098656 1.8430130258666324 2.5790108461687455
Ni 1.0786550907842714 7.533023196607558 2.6395611937003265 0.891775818638103 -0.8680977582948728 1.3310361953383076
Ni 6.974545070054454 1.0928276353291975 1.119618016714711 1.810096991864902 -1.2828663205013002 0.08957003505034897
Ni 0.590804716197615 5.696824238918973 7.514902586082259 -0.965440495312105 1.074359367202711 0.4206687297409465
Ni 9.093693400027256 6.132959685727444 1.3355496423172863 2.2492568384315006 -2.238577504340783 2.4499635789593803
Ni 0.6268704057332056 8.057323758334103 9.363145420419507 -0.8621132585766637 -0.638127492916185 -0.29086452976089905
Ni 6.988494717437467 7.016644771510646 2.086134474079061 -0.7989502527649337 0.6494812273661072 0.08533722791592399
Ni 0.30235814265773436 1.1202811357714002 0.48156560335890314 0.4583824422416363 0.6829374501420238 -0.9391923602488536
Ni 8.860199335542337 1.5138246498911219 8.170371626426991 0.2135565999073548 0.28957383597393355 0.8767148105399224
Ni 3.141726209772628 5.111059784795101 4.485561125345831 0.4952374062864568 1.7094192769371654 -1.991794281169815
Ni 3.2589236800297847 8.642605268607166 3.1358287223636974 -0.5649958059275173 1.4256651329688028 0.4718606792337293
Ni 5.791249049134087 7.727064463433992 6.820434901046439 2.066516452574054 2.4680109233793948 -2.799295508828553
Ni 5.564070404236684 1.0723118090515162 4.252332679978858 -0.044791188172761565 0.1831723311885426 0.18447948003574036
Ni 5.691781190630707 2.051591915149871 6.671917593326074 -0.4171602023670557 -0.7035396997734077 -0.17629745844558026
Ni 2.474632153695992 1.1782808347773392 12.680209967657774 -1.2104697119064445 1.1794298118815043 0.38233563848870283
Ni 0.5378406355745455 8.947547160866733 11.931438032812888 -0.20956676202167132 -0.6938834076305663 -0.09816728980105675
P 3.75454480692361 6.082250581392387 11.95249345597003 -5.13626964537238 -0.24760494774131547 -1.7918215905944819
Ni 5.6792153631278985 7.929315775724198 9.427753091537971 -2.66491320255952 -0.6099536015851301 -0.9672101856180181
P 1.586554136346768 4.0435402647247 8.343179152366753 0.12911900098756474 -1.0049382962964113 0.2523434908675654
Ni 9.025078223685242 4.0895035169873735 2.962776009545833 -0.5366445084783339 2.1088442668079876 -1.2322906644362779
P 4.891896150344797 6.289907149858967 2.449027770959487 -0.5732451904205031 1.8566041342875057 0.2732133923380391
P 3.428371959991892 3.1154522068122117 5.364159512146558 1.5444853231335207 -0.5502137625223363 -1.4031852066987318
P 4.236206999052675 2.4904950017187533 10.613988568781057 -0.3808641961494989 2.271345957021056 -0.14524881666989178
Ni 7.776101839054706 1.0523625130603622 12.567033933696788 -0.5331748047621786 0.5397892247549027 -1.3459154264429851
Ni 8.681556547651345 8.431140873624583 1.3264684404457079 0.15685940432562662 1.6306237067945015 -0.3667169581148394
Ni 4.3725086135620685 4.778302184205223 10.202949484927565 0.8285935295526633 -0.5794400063773053 0.3803893133956094
Ni 1.4432219738553895 0.9110698596004817 9.770025614726983 -0.6829135388826238 0.7596879648302014 0.2817797938508115
Ni 3.5769607805517025 2.925961757041487 0.5553064856867262 0.14162870341880124 -1.1844056678295407 -0.8470465940515284
Ni 7.751815335788008 1.1569477189059794 5.766241845043871 -0.03269774734333723 -0.020694809345190163 0.24359839768508373
Ni 6.614881924545407 8.188777359571903 13.482428926976542 0.5235051428828985 0.2632225996739144 -0.9228010633750237
Ni 8.955738631567012 4.445813917685988 9.641992556186361 -1.2497494833426737 0.891989991531438 -1.714638873464892
Ni 8.193662522370483 3.201750557999271 0.7616423884689757 5.948224280816781 0.15373242866087075 2.0408401308538724
Ni 7.611928791924524 5.626537333862617 6.390514570102624 -0.0074934801635677395 0.49717241852564054 -0.27093462360619147
Ni 3.929305469244628 3.3199139159580477 8.20521045283389 -0.28268070839852605 0.5352085473627556 0.8072957965161516
Ni 3.720255793516096 6.925814178031369 6.607662842713971 -0.8428410406106129 -0.9338354668123143 -1.3387181373635975
Ni 7.5782713204757615 7.276496425391698 8.750317535886778 2.4997560770014755 -2.7239817265869024 -1.1284913731604242
Ni 3.4908946139083024 8.40182989683311 12.38363693508984 -0.31985140391155237 -1.7699664423926034 1.268285080253016
Ni 5.566559422544706 5.60133137980303 4.5426924541584865 0.6977310635114305 2.3530209055940445 -1.054220944581623
Ni 3.5773787127302885 0.583342304964425 10.661373719189095 -1.1510170650667662 -0.6090696563182801 -1.4923472076773847
Ni 5.503572399540977 6.028123720574675 7.84091754752429 -0.13297462728822904 -3.9405122999754463 2.954205502737293
Ni 6.73753108788767 3.8834258034176723 7.784954571335325 1.0017555276930554 -0.20383397330295216 1.5188290560179973
Ni 1.8328647876416453 4.477855384710886 0.6958059967454687 0.022628536032793287 2.470835280202067 -0.5559750904861457
Ni 5.704393455042246 6.524627148734403 11.497222287811388 3.3680849774705477 0.8344728711515758 -3.4010560330799295
Ni 5.204667305416535 4.600866755941257 12.598121586616335 -0.42748806665562505 -2.659232607234975 -0.4239926519078569
Ni 5.257224598719116 2.1771758911239796 2.013996593840657 -0.5320424909299482 0.1289066278664425 -0.5696716141366318
Ni 7.37394892205612 8.431373058168242 10.987566069622481 3.9355464713297375 1.2487603799565268 -0.1663524314177264
Ni 2.68234444645305 4.816686932962876 6.584867892955737 -0.9737780686435229 -0.45776846280672134 1.3428187897955324
Ni 3.189435489803614 7.401374560353084 1.2710673508523969 -0.14195317663775553 -0.7520031945914339 -0.44035978041197066
P 7.138978163873533 2.445135429269593 2.9538591943311654 -0.0421105560168049 0.20174083821934932 -0.31425874031512324
Ni 1.9052227788274372 8.382140647530855 7.23518522264577 0.1427615314716638 0.543276926193187 1.0036422031928072
P 6.845543337597689 5.33326039307646 9.748045168347902 -0.15425333416134723 -0.2794503743866865 -0.0771066124760156
Ni 2.0130771430477687 2.302852740915552 6.579647455676114 -1.0776460083737829 0.44371095627239066 1.9352984029656157
P 8.689135051156365 1.1041953905867266 10.552399296730155 -0.21740502711916754 -0.5679859989040927 -0.6495714730870684
P 8.599437518250143 7.115360352092572 13.246916714438143 0.2676330700367842 1.07268917858914 -3.4846497959421856
P 2.775812656348289 8.105943201776231 9.195719932201754 0.08811221955789986 0.21865304059365567 0.7544195173424104
Ni 3.1905314008496832 2.011349690042948 3.007265354325361 0.4220550685655118 -0.11496045009899558 0.48608453614259517
Ni 1.3147217600129277 2.7315489949451983 1.812860696098188 -0.525543770579482 -0.41352491960731363 0.46752682774506577
Ni 2.103861299618314 7.914177343477651 5.045852148815822 -0.13775199407221436 -0.24934841279498343 -0.8581938689175994
Ni 7.632333169621249 0.12784266721482024 3.259701962620129 -0.14360948129425588 0.12055311369542464 -0.13844362082260028
Ni 8.940720935283169 8.133554587708122 6.849523909414173 0.010581889280904358 -0.12834149939159187 0.04346475605185418
Ni 2.714376626096202 3.921439056905472 12.103403193228255 2.628375255534486 0.9760208419311127 0.7585062858172743
Ni 2.0707982206013176 0.9520216406728257 4.801680381537128 -0.019091469413812283 -0.6048070243871841 0.0836968640990236
Ni 1.1866394783490517 0.6561303019250729 2.6272321944320507 -0.16086826837470358 -1.6840334898742093 0.06474603402813366
Ni 1.697696233705306 5.957149549269089 10.475135710505942 -0.1408550584775703 0.187356030252587 1.196161008593256
Ni 3.1579698404469894 1.0947315485871987 8.127499214809504 0.7480138709263827 -0.8775172518365597 1.2497070601405122
Ni 6.3185215730194635 4.76305230337772 2.15864013463462 1.5672794382099007 -1.8271436629345437 -0.020605592065493547
Ni 3.997734897951715 -0.0811995786083147 6.256962949328324 -0.6016800487224283 1.3936376722196127 -0.505793070315116
Ni 5.354352037022416 3.3511845302979992 4.103094671434977 -1.2296092609493727 -0.38649414074176663 0.5234796889616016
Ni 6.419800470963382 3.101019615578388 0.006445442931965046 -4.957489272603946 -1.1219736266465645 -1.6162666667418808
Ni 1.4262910769317982 3.3905073046120338 4.432086238726712 0.8036841679054934 1.0177357051713958 0.14271268051159938
Ni 9.073075412550365 3.249989218789799 6.429812268485943 0.5055956095923293 0.6446534669601607 1.0559171013371234
Ni 1.4562893199725002 3.427954027813306 10.439821370153632 -0.10729753423709909 -1.7864757529015363 -1.171137489965725
Ni 4.907201755462777 6.532437836783081 -0.1038347854005124 0.759457336876634 2.0513762544985057 5.924261599353597
Ni 5.8670712337112665 1.9086683974553322 9.220826511276654 -0.16187948324803733 -0.7405630710752923 -1.50377910366341
Ni 1.6619769635088544 6.833116820821076 13.08808205433576 -0.42909423480048037 -0.2661554570499932 -0.30734735790727064
Ni 6.292628352710647 3.0218075366637915 11.076491821105584 0.15809250540177935 0.46756925094722707 1.0183316868841816
Ni 9.002574897713842 2.0850079146732288 3.8551986640759983 0.5646350801539889 -2.652064885841942 0.693468945800967
Ni 7.532577402283732 3.5642463549409533 4.848454422226257 -0.9619391670270658 1.392314582532815 0.5381007813088862
Ni 5.0181116682776565 8.25199656711929 4.534197286075102 1.0730370488468617 -2.556699327155739 -0.7279242992653592
Ni 4.986748180120242 0.9667700028860251 13.216807951554658 0.2360645512018838 0.3861807232664059 0.38240325850184465
P 3.3169605285627095 0.3398773074366283 0.9613554593279048 -0.013587765986763697 0.1986071776863741 0.4419795754035808
Ni 7.9563699187513075 6.023015660614184 3.9204583093930574 0.10425180543223982 -2.450844181792121 -1.125305776343591
P 0.8265286810398312 3.173433331054658 12.732134790263428 -0.9214754025850647 -0.6446488389744705 0.9849713662561811
Ni 0.5264654504116193 6.2308486893339445 5.242583970134174 0.48637532791013655 -0.6429722226029959 -0.08288696660321852
P 1.6554293593776794 5.274703451165741 2.7892607851170004 -0.3373346482979803 0.1850168405964491 0.28536211188543115
P 0.04616478844656866 0.011025050871088914 4.873899990734899 0.771629967683426 -0.7133733980343778 -0.3794696297948174
P 5.232678048763519 0.19656186223239341 8.042474163659868 -4.245616627484811 1.2850337604662645 -0.4510663681961974
Ni 4.0294327318519985 4.278065228583462 2.320750454278938 -1.7284770648995653 1.0610366819518757 0.051562445458324106
