# total energy = -340886.65182032005 ev
CRYSTAL
PRIMVEC
9.11165579916311 0.00000000000000 0.00000000000000
0.00000000000000 9.11165579916311 0.00000000000000
0.00000000000000 0.00000000000000 13.33582928236127
PRIMCOORD
 96 1
Ni 6.056590472970069 2.54893102726391 11.183986137293527 1.6038834625861795 0.054187541785997 0.14283995011808304
Ni 4.657231493917206 0.7204932447654319 6.190451629984123 -0.019426227045411706 -0.25754431834221453 -0.16157403619247657
Ni 3.158263894160954 2.1815946255389598 5.011231165114938 -2.0069730457927824 -0.5795225387887825 -0.29059919191465433
Ni 3.6069673817696652 4.773796905978903 4.818488666286995 0.3593355780491037 -0.5884206126093608 -0.1211912615000558
Ni 4.042987444568724 2.998235884152389 2.670286436755516 -0.04076406929123948 0.08687886137143103 -0.2576466482480337
Ni 5.657636625778529 4.844940714106608 2.71764153404052 -0.6349421532096678 -0.5580733677760711 0.5069397823250494
Ni 5.93001135123466 3.1847332541265 0.3692954077120734 -0.7573055806409538 -0.9213941557251679 0.33656408868054294
Ni 5.602483773499201 7.921928638941342 12.648127166426608 -0.357302606779475 0.2704615406245149 0.5563489288857967
Ni 2.572493769043911 5.330118159698823 11.55436218737803 -1.2552171913254642 1.2511059973705678 0.5965180449055146
Ni 0.8258558760775109 0.7002425898520322 0.11618636718232749 -0.2599642406376168 -1.654542422393628 1.200249576840333
Ni 7.94386950599712 8.941176674902062 7.156965958268218 0.38629822268087666 1.7196188431779866 -0.13552953249959884
Ni 9.185642398783504 2.788731583399275 1.2868291193246397 -1.659957422761612 -0.6395781093197823 0.8585013728556892
Ni 0.45599190104638404 0.44828890727190124 4.867457437806042 1.61760826837144 1.0731085255147454 -0.5054220601289425
Ni 1.9014749926918766 7.105278268672158 0.35275501902172735 0.9057921875218529 -0.35934354846890365 0.5757324756187311
Ni 7.855905581347419 4.115889802256962 3.805031998723556 -0.22197053500266287 -0.05744770059450751 1.007239690736078
Ni 7.731331023877903 4.210487012295618 12.660355919614133 1.5224232011271588 -0.25333979334256373 -0.51037991835485
Ni 8.069154772615452 7.566337161483375 9.344508672683428 -0.12218010777588634 -0.9704078666197095 -0.36304285169736183
Ni 7.207757060938077 0.8932046795836492 0.4500839034554512 1.0865944758163224 0.5814092142885342 -0.5603922457172349
Ni 1.835606833245773 6.464592194325392 9.47740034952525 2.0027785480954607 1.7844844335031205 -1.3089918139437586
Ni 0.28100801928310387 5.3995763115120265 1.6922504197704122 -0.00820798973208909 -0.8104672522655978 -0.5621691351119995
Ni 6.372956272406805 2.422880381562236 7.136869290337062 0.7247860107466937 -0.7955263146850493 -1.1369351330524031
Ni 3.8978114334392777 4.452447030844696 0.5840616896631573 -0.6647952320153583 0.15601351138556357 -0.05366766472678499
Ni 6.423817534825972 6.164244685704294 4.886421526926968 -1.7193576190968 0.40007599319125936 -1.4053544464359087
Ni 5.385544361650773 3.4057911343757628 8.978159974442217 0.9601548214331335 -0.22160029614743773 0.7608848133517799
P 0.2799000419434101 5.91318212305691 12.835255974144475 -0.2336960509697072 -1.2058070163234524 -1.1030320525470552
P 3.9943494261535486 6.350951623760749 12.710752487589842 0.6879295040399765 0.017193995280783293 0.8036355740557449
P 2.464074177226344 8.962160818103664 1.5080291414036657 0.3725129959713262 0.03908591025786817 -0.474631300000331
P 6.288281655484321 8.352153688680819 5.834825528234291 -0.3046862661353398 -0.8832384705910531 0.2642878077136352
P 4.634096999957647 1.6402893805017313 12.494564787341124 0.29260902325583155 -0.7478179528654927 0.8093879031584901
P 3.939160127251204 6.535198414763607 8.250664422229791 1.6429405764886413 0.7913027635220049 0.2670458300747465
P 4.834134290382292 1.061781245020674 3.6615790016972025 -0.04539925407040569 0.40621450198882947 -0.581500745561076
P 0.13414817417030703 6.079697631962366 3.862603084440012 0.516544138184033 -0.5121439522338084 0.44373306775957777
Ni 1.0439406230542234 7.763358493853427 2.7635706572000123 -0.08117204079464085 -0.2673011406186622 0.027852503435893967
Ni 1.9788147267323424 6.506205126154187 4.925028523522498 -0.5718737639942731 0.8540891027206066 -0.5465993056982006
Ni 6.205538709581696 5.786894574305632 8.983281636141575 -0.8753153590892345 0.9517025769007221 0.48059728777577876
Ni 8.5875077568082 2.5619971416152327 10.272322154317726 0.33471546550757836 1.041898161350212 0.01867623625326461
Ni 2.5077098966325404 5.475603967123907 7.1356957090759385 -0.46537198618559206 1.3454456858954185 -0.004457778661037484
Ni 0.4675245237342984 0.21492026893332744 9.257106026028177 0.9515182288040581 0.8338012990058479 0.39920721743306087
Ni 1.5965169862592246 1.6672143232549803 11.514875004836659 -0.36809429807834027 -0.6850200437026654 -1.3380617347265213
Ni 4.128509445476336 7.366527662452582 1.330088527348193 0.621216318983143 0.11225436402174216 0.4864455190264397
Ni 5.7418465482575565 8.300244585849935 8.12241331166351 -1.5950776913690916 -0.6467257761081571 -0.11635167401956736
Ni 7.247985021092255 0.9220084457533855 4.631132978340851 -1.3256960140723169 0.21129557178732 0.32636015156434767
Ni 1.0183915403198378 7.955787551723431 7.188038526720715 0.0032115649587622108 0.1777853558450164 -0.29694133208259826
Ni 5.034663610217656 5.0347456151194425 6.823837445740737 -0.6930681108181226 0.22896162160851538 0.840765646138823
Ni 1.0738724122063124 7.509289084807203 11.558856967161509 -1.0614799401368817 0.6964401126141491 -0.86215002535187
Ni 4.868494344230854 0.7313752952325063 10.236142502815078 -2.2624496829726906 -0.6133667410317372 0.8804174562024902
Ni 8.238166875197521 7.716305903539458 5.027394331257066 0.816060172972343 -0.2727583070784915 -1.0189554365111095
Ni 7.424623579540472 6.601658831833724 6.926175918508043 -0.7771395846477455 -0.4773337865331586 1.9309061874351905
Ni 2.4881836183515884 5.76543662500482 2.3704701376648805 0.4644911262425356 -0.8853012666573529 0.6640015324694692
Ni 3.6027942434343054 4.636693821847554 9.389250547098166 -1.1380509918244013 0.4407917257430667 0.18999809586112437
Ni 1.1109568511253387 3.78081777355714 3.923854367915533 0.4897802398266275 -0.13138234310044472 -0.7127966995953015
Ni 2.2471529886894253 1.4635232588729572 3.0006012699861433 -1.7017519901998952 0.08836315922644136 -0.7133219759711522
Ni 1.235941433103787 3.654967584282056 8.13617646768002 -1.4635413391892858 0.13872104285370304 1.1101293257134688
Ni 5.298974520331444 2.831328574049508 4.799911822535615 1.7272763597232443 1.1684049215259102 0.35455692571353775
Ni 4.017611483293665 7.457771783173744 5.797991659848503 0.9670726315988895 -0.5565885557004285 0.7828782869037355
Ni 8.630141194081451 7.702255730366697 0.3758047745827743 -0.9438488851842584 0.18341195800317447 0.12091743901337884
P 0.25142520654639555 6.182978249934643 7.965544312704878 -0.6964773936099876 -0.6919118857264922 1.6746098825674645
P 8.468573314250449 2.025165719553248 8.122573676804782 0.4329166938703641 -0.8541369252394064 -0.9834474734124871
P 1.5563254727280638 3.81820289711605 10.46175803327252 0.7397392896224164 -1.7047918054674833 -0.9354480627150729
P 4.240837937612395 6.327972027949008 3.424827205577146 0.36007579864923794 0.8952486076780516 1.1432672459180182
P 7.258982789587406 4.474424344523491 10.361566266600871 -2.5937180704719327 -1.0389655610844495 0.22673273227799662
P 6.165574987444387 8.224308046795596 10.661915597553119 1.5747387227014233 -1.0573805732565273 -1.8864333018337964
P 2.3318093823004014 8.997368255937353 5.87531317057746 1.5713474376316874 -0.040018706484782694 -1.0776534645729505
P 7.487639790735554 4.361221133435042 1.6980381435053915 -1.3486513373169096 -0.1973465658063956 -1.5266534371584224
Ni 2.9212059464075613 1.910422638642364 0.5881500896000043 -0.05898496317464035 0.42600762545535664 -0.09533007746257775
Ni 1.4290083068765758 1.427395543808107 7.151005113073911 -0.6045969652589072 0.16623647466515243 -0.060019317976425665
Ni 7.110836378682135 0.6714187780396372 9.319878044849052 0.023986849832900625 1.5479604261663147 0.17198006201714897
Ni 2.83941061270336 2.172000052029934 9.407960421023553 -0.3770286244534926 -0.6762448686131967 -0.3239392008276808
Ni 6.565467335178596 2.2452577642925804 2.565373010072112 0.41918417477562 -0.0023952397050539392 -0.012063873143069545
Ni 4.315599073074461 6.863136017007999 10.5207286693128 0.11969179413639387 1.2612227740895958 -0.2906138472026737
Ni 7.4501999972421205 6.5004830063406365 11.44156808963294 -0.11348875064947553 -0.5964640517391275 0.8635286508669515
Ni 7.828078584674518 4.194404939889702 8.021140902619429 -0.05052371978116459 0.5154642748562929 0.09588183620098971
Ni 3.1958221391791914 8.964283833894358 12.56275095201106 0.2356863419268586 -0.1564858230362918 -0.7390574330640434
Ni 9.121222992602297 5.324951850886271 10.031917495405867 -0.12513790485262966 -0.5010229026199823 0.23643581849837345
Ni 8.800875399601036 2.923319850542503 6.011965227748982 -0.45730926378211567 -0.5937749349427387 -0.29796925912648037
Ni 3.4359780498889654 3.115621345231951 11.531798083068676 1.3513558807322663 0.44222897241022546 0.36266052865727866
Ni 1.3724522596111222 3.635814883887021 12.939955276917658 -0.2667411543501341 1.143910793039288 -0.8390167817685164
Ni 3.070974232037054 8.992821539716076 8.216937628456135 0.43577678902697853 -0.8800937543144843 0.30613199744293085
Ni 5.683449946529782 8.084116111363619 3.5215392309163196 -0.2070871901329272 0.8924964988542113 -0.18604708163317635
Ni 3.1573800635528104 8.35920611023446 3.64620217144665 0.7523230398246978 0.5508174575446062 0.1388801941393866
Ni 3.4203515602707513 3.028796377551508 7.157365959955821 1.480756931736624 0.3775225333707756 0.6733336085036727
Ni 5.251275002458937 4.768175014378648 11.547174913319227 0.31943462808910794 0.5671416486259264 -0.10904382750424446
Ni 8.270239903451813 -0.17365084652646107 2.4772104513269735 -0.9261162437911856 1.3977208411500508 0.5384571362070404
Ni 5.0250781483643845 0.619075960394861 1.1740095089434375 -0.7869457721048899 0.20724839830113986 0.7195856974926769
Ni 6.097383355780998 5.7134181823048875 0.3861911509768279 0.08649705255198006 0.9438414289850907 0.35922579194411686
Ni 7.946083638345357 9.019864933994128 11.625682761627365 0.7544706822953201 0.4977817699748653 -0.10000639989232453
Ni 0.15957789421431456 5.342838031131491 6.060547665064058 -0.4021537016558945 -0.6074709443725925 -1.272878613160969
Ni 7.516824424115811 6.615791009908272 2.691397231972099 -0.3888770391516464 -0.7740372915733379 -0.40480939411118677
P 8.778524508036327 1.8245817297833598 3.217095121868197 -0.020318399842377908 0.06735313263367755 1.4602626684380142
P 1.9895391455548714 3.6331269454395727 1.7873214359082799 1.8431773193586385 0.4126666853720764 0.19577947842959184
P 4.655208706339805 1.4717237490516115 8.258465821886418 0.49052868795687776 0.11631490724436096 -0.5850825493750632
P 8.620419057391869 2.0115529058566817 12.377142879638546 -0.6750968710516825 0.0732674412355835 0.5503718853667553
P 6.613048401526299 8.024753674125915 1.292199529226083 -0.6278957878858477 0.14576020908867157 0.07259509775890723
P 1.7819118458870942 3.8516335620776987 6.004030797918346 0.4444167240901637 -1.717751450951945 -1.3423832449200106
P 6.685777637755211 4.333457918352419 5.793444032461651 1.9430502789968924 -1.8175760738507665 0.6247577564774982
P 2.382297066833651 8.747863786423913 10.337041333973243 -0.07346130241394444 0.7071415581920532 0.05149405411423389
