# total energy = -340860.202253024 ev
CRYSTAL
PRIMVEC
9.44536386215194 0.00000000000000 0.00000000000000
0.00000000000000 9.44536386215194 0.00000000000000
0.00000000000000 0.00000000000000 13.82424476426988
PRIMCOORD
 96 1
Ni 5.066644320527627 2.0220540578473307 4.840697992586123 0.4290183872572224 -0.7681224687507997 -0.19475437959918718
Ni 4.946149813285167 0.7203535112642717 12.609853609658025 0.49584727195631373 -0.4269190815260325 -0.06468149933878538
Ni 5.553458375813066 4.423613391738776 10.797799271883775 1.9302024764999466 -0.701332921930076 1.6924523100655238
Ni 4.283463082225285 3.0094629543448956 1.4105432529213637 -0.5275983391156656 -1.5032458568677594 -0.3726140403255647
Ni 8.198311392980457 3.7187625562397346 9.74631397124087 0.2075998681032876 -0.15205375540686716 0.31320021714362184
Ni 7.343260380780814 0.09865682591106727 13.710388685021483 -0.23721769096972048 -0.22602722157053975 -1.8222382552131262
Ni 9.593089389020237 8.06445169582281 0.3836480126496281 -2.1898435294701897 1.7057855368393202 -0.7499535111512569
Ni 0.9547751642311464 3.3673950192467523 8.168455542236343 0.14028504490671326 -0.644422067675645 0.09884811791816524
Ni 6.094847743699188 9.290063224455482 9.66708720340368 -0.01877650927655476 1.1755975826196077 0.9833027203045065
Ni 7.754672096071227 6.104311998324644 9.621937419436472 -0.009300194355003339 0.3870471850317592 -0.1895386397262026
Ni 5.929648329129101 7.056763603036966 11.663404533702666 -0.23194384416529085 -0.2745958745078626 -0.14288520153372167
Ni 2.0506829558211406 1.053063620950205 7.592993913162187 0.569652073752606 0.7068283978270085 -0.7510441731122742
Ni 7.659387265071625 8.875005598700572 2.040555636650069 0.8613696955424198 -1.2086802241061894 0.909735488440317
Ni 8.102941553705778 1.1318474012205937 10.131761325713002 1.2681323567252352 0.8751994023366605 -1.301234281485527
Ni 5.772779725516751 7.432188481877291 8.51414547099044 -0.2372837683209655 -0.33749302825271554 0.5536754958186916
Ni 8.302635437230123 4.6523801053401215 12.269072436521538 -0.822640654403338 1.6019016562694606 -0.7799852816266567
Ni 1.381101109115965 8.41682988675284 2.271834817048192 -0.4218390958999638 0.029191791072607793 1.2469202414239946
Ni 4.507582676788981 5.379729797643391 9.157912193626919 -2.16281095083243 0.3520909806715485 -0.46983105039821027
Ni 8.481870662552133 4.6149575735775885 7.470981535941373 -1.3650742587596232 1.3614225209396487 0.8391471366987936
Ni 2.6318845325359037 1.2766826112273248 13.032848174696138 -0.9080172201976298 0.6247330738871499 -1.5982758865914153
Ni 5.83463741368253 3.715626695425711 6.1722213311396565 -0.8574503058833555 1.3179726772861302 0.5155092691616154
Ni 7.09955110149337 7.163486769716636 6.707716791953639 0.714079422962467 -0.33801470508414044 -1.203854777693088
Ni 2.983544875809714 3.180291805797989 6.257917228710354 1.1258202540861644 -1.1678835018048015 0.7223614604656011
Ni 8.44396641723082 5.214048669514522 5.153858088076678 0.12897116255579077 1.0943329821111605 -0.2584614308398452
P 0.9361772427166521 8.833172081997832 11.008909766751223 0.41193932028774866 -1.3037873869246837 0.3682781319543722
P 4.406706190361962 7.409746297256449 10.188039637424435 -0.532669840101302 0.4488734743099366 -0.31047767600613624
P 5.667586707788501 6.11030980439966 4.826320259661104 0.5783742841169524 -0.919718567794958 -0.3484608401181289
P 3.295940841360948 2.3677543765017166 3.437191535768517 0.5117626576349895 -0.6068664780193742 -0.10528204646896708
P 3.0053353303216177 6.7499592929131484 -0.24932454812460386 -0.9183769661653991 0.9407548196399669 0.8724858600602393
P 3.1352846468256352 8.492355016478538 6.845793844091594 -2.666451493580918 2.3211281706505056 2.8756775844337183
P 7.089491788942361 1.6555078210708074 11.798661200180778 -1.193145875916016 -0.059920844725348414 1.9528870625816561
P 6.438602317390657 3.2530211078099773 2.0759729176571278 0.8868896941903952 1.1881615353275472 0.7821681482105884
Ni 3.2121132367692082 8.258298899094502 11.861451145763258 0.08578639963820066 0.8788264575662865 1.1088674282819095
Ni 3.4832046259959712 3.5823431654658195 13.048552981248779 -0.30306312870962 -1.7261353041402658 -0.16931279959763101
Ni 9.090133206833695 4.007620674957998 2.5088378879682973 0.7142588859631247 0.12316021230096855 1.702447473605023
Ni 0.2174719474525223 2.909729356949495 11.825618268744703 0.31095847229729673 -0.1264136862412597 0.3404683088309556
Ni 6.007270329640077 2.467591872899992 13.86322884093148 1.4076075041361436 -1.8303050913816605 -0.9226305992354304
Ni 2.3151059181361555 6.593449613128907 10.514333511414687 0.26583484048578093 0.2987691293199564 -0.5771224139877222
Ni 2.344169302849258 1.4691130099143688 1.5398691754081357 0.889918710824706 -0.5053441557031555 0.43899169641985036
Ni 6.085931320179796 2.3924540030941 9.52370185675524 -0.5110574040378488 0.22577191102662406 0.3912997896605261
Ni 3.026908541463875 0.8903436144032532 5.197805477219714 -0.19495184032197393 -0.8715445791928926 0.23838137226051848
Ni 4.961526865710559 5.91890895037746 6.9580047671958045 0.28106451295134177 -0.4581991225862367 -0.5573475453536402
Ni 4.693713017756285 4.094489686724784 3.304464337742197 0.6901126277342244 1.0346443080012762 1.902990434861529
Ni 4.09172219510277 5.3341370261093815 1.0473784564202029 -0.8273367743274267 -0.879995281063407 -2.3127654005081073
Ni 2.0523547852310267 3.67032673017253 1.9638035541540668 -0.0018830759553257889 2.192809554077049 0.4005873856100391
Ni 1.595397525226094 3.1047855668000883 4.4914556624701145 -1.4276528528227928 -0.196865512404919 -1.121174527784037
Ni 0.8388559912607142 6.007279775003975 8.801011562462687 -0.2504799552962654 -0.3866036697364374 -3.2011283368099193
Ni 8.973303500783528 3.0947073635212843 5.83839289036824 1.213574061863381 -1.5319655933999552 -0.8329523207419913
Ni 2.2648660275644974 4.006062189914884 10.236604864977037 -0.514288766490953 0.467747171285988 1.1415795738029502
Ni 3.40382578780003 5.260274280429673 5.292418742846193 0.8135060390919215 0.35420262769791255 -1.519630725983686
Ni 0.035121641117061994 0.6555375351257436 12.735502451979436 0.37175632031095973 0.04572552706157287 -0.8777167694418756
Ni 3.7682468176995796 9.37708336204463 9.12839732051951 -0.7150245604845556 0.026327582150935305 -0.3650567968035971
Ni 1.7421123626484594 7.259281650366712 5.376470202562308 1.62440292269577 1.2808266643634523 -1.2281753567163234
Ni 7.249675715282792 5.636653141023662 3.212408876659205 -0.011738114372534624 -0.03186342436749997 -0.6783140924373996
Ni 1.2758041923848424 5.003775978424796 6.1144223158407005 -2.0088550933068436 -0.26135160790344664 0.06675895069310438
Ni 7.574171191986928 0.951639303417123 5.030075649661444 0.2252296653699089 1.2506066891366463 -2.0708528751658783
P 5.531885164670808 4.33270176422379 13.160999093914041 -0.40210819312993973 1.8279167936551421 -1.0182111021459175
P 3.3391533811927463 2.0910713318475382 10.67587001386526 -0.28843689415601287 -0.5008156717051827 0.5360351570291091
P 3.3082009237001118 7.9728600021071925 2.981170311325842 0.3457069315220756 -2.3940202308245415 0.7670683164546724
P 6.288827182065449 4.40433540402365 8.270934906916793 1.1053673855484512 -0.44461649880579557 0.38120795264216284
P 2.6601828427732954 4.8328054465132375 7.684800961174671 1.5383380725852023 0.06878138043977187 1.3979923496438826
P 8.839406022170287 7.0212018079622736 2.2224270630359175 -0.4609939117225545 0.20434330883920293 1.010566698226782
P -0.09151046358609709 1.5070833727829653 7.384040739408965 1.397945298456031 1.0315841810187139 0.08532514373106596
P 0.4753464389772887 5.341315502671604 10.679326072515416 -1.5972983531694944 -1.6704074144503425 1.8586149940699475
Ni 7.172743226336343 3.3782760784568575 4.316040142308317 0.019220281682192707 -0.7143475890221891 -1.6352012988628548
Ni 3.6023390008371674 2.9329366160460477 8.626260051382895 -0.6209008446252532 0.5932902819968363 1.233828955457675
Ni 4.196348490997159 7.6669813376453435 5.401975518695161 0.5097163166289221 -0.004960943549701133 -1.9296424902314184
Ni 1.0563978344060792 1.2868458227812078 10.338047128701524 1.743612377879107 1.2036845706638106 -1.3666125497810206
Ni 3.1333577925905125 8.939026275198918 0.6156195382214495 0.8705202516934363 -1.6752148631413148 -0.12444010745465664
Ni 8.060154055249374 5.475364107107206 0.6742403001795019 -0.8718577395579372 1.2232159558285192 0.6521657161768059
Ni 8.148062057044902 7.7507806061453905 4.5108092130964215 1.0202003646618043 0.15522829648010686 -0.5050106836231367
Ni 0.9067275426201356 6.031988846960256 0.9580602617947529 1.7095989970481393 -0.7164260688177726 1.440507597298274
Ni 5.900405482501943 8.459041218011487 4.053365516850759 0.5742144963123078 0.1287780727083782 -0.6847045693447756
Ni 0.663939186312713 0.4242545765820618 4.9540565274039 -0.5985080787523498 0.30249722890382097 0.2337924673382554
Ni 3.851252675632223 5.572594683069727 12.04099995716667 0.4911030724031091 0.8779659093382041 -0.6599888117656504
Ni 8.246388295219552 9.2932179759973 6.792722233423417 0.3191425507699859 -2.153931388954613 1.6253179783108718
Ni 1.2125108089066174 8.566652248897537 8.524706332364415 -0.764325977822845 -0.8142339183968815 0.7848734629568935
Ni 7.30810473635372 2.2860236426952576 7.24390459794132 -0.2574730987846469 -0.5636984272723324 1.224767616586355
Ni 6.584212047236996 1.2445211471557895 2.8639684579381077 -0.06681422941107203 1.1089782428281612 0.6150387294175215
Ni 5.131316727134911 6.362406566828226 2.587456374370477 -0.4949286167967863 2.6642755689755213 1.6577524446904932
Ni 8.272023012837803 3.2664240791807577 0.49453469573538666 -0.3362784391193241 -1.6916179870896868 -0.6637243675486828
Ni 5.299992035619337 7.5880653222803875 0.31879519959189917 0.23410742747551294 0.23579201426678745 -0.13038295530165286
Ni 0.5640620193860679 7.04241609527642 12.174487506986754 -0.5683454391260405 -0.15802257139579237 -0.12492604595213969
Ni 7.8814477703056305 8.31382819344885 10.942580643316289 0.9463824502393896 -0.512433201339453 2.224898207081478
Ni 1.4115435169581259 4.831643666753825 12.93298234220617 0.22919019267955365 -0.6613872347750739 -0.9762381001482414
Ni 0.19840742496148367 0.9819211400730236 1.397755174740321 -1.7800603362934955 -0.6186819825970635 -0.8754675683963826
Ni 4.201288416315635 0.32197639815263135 2.7795854659491854 0.29145948303242064 2.189923747888822 0.455958406181176
Ni 4.922054689982235 1.6954617103579126 7.517168420864545 1.2302769764403587 -2.140224066670849 -2.235453613999821
P 9.408054710265061 6.874099710620103 6.232328793375201 -2.297653741677649 -0.16604132793521084 1.3329408685601882
P 7.617657647371759 7.045655855093317 13.062418775450544 0.5691512228567875 0.849797160213472 -0.23888505136981442
P 6.00334105825865 -0.0782189475093088 6.062829849158898 -0.5261325532034165 0.004633899227585568 0.7124460011241021
P 1.6033977484474125 5.17359417594084 3.6214686963391 -0.09913788124444217 -0.19386477790538223 0.4531348206894518
P 0.9314677842772786 2.8318523316132818 0.27564311008904596 0.7586852345972998 -0.33000571873673484 -1.2570534732032543
P 5.63226104681125 0.26030856180119366 1.196618039612413 -0.2919143111816521 -0.8764386740604003 -1.5882575831234647
P 8.225088999630326 8.690414852048587 8.948737998358492 -0.17641007276404458 -1.0890743048153826 -1.413200939063521
P 9.136018784648531 1.616555140356854 3.3370763456716506 -0.4915437594849535 0.5550093841387668 1.3818998149573942
