# total energy = -340859.7213806593 ev
CRYSTAL
PRIMVEC
9.41564707671371 0.00000000000000 0.00000000000000

0.00000000000000 9.41564707671371 0.00000000000000

0.00000000000000 0.00000000000000 13.78075124496238

PRIMCOORD
 96 1
Ni 4.076316009460655 1.4229490523774075 8.480659974773749 0.7893009026006278 -0.831670111595458 0.8057973575937541
Ni 5.010272856088104 6.847886997640776 12.362256640224862 1.6721084563018493 0.517965701121908 -1.85932410432183
Ni 6.168755218530115 5.182663935055177 10.51035802077056 0.5584137818346253 0.5509102743687286 0.47049850877888
Ni 2.1046607187367967 2.1800706347042054 7.5054927248242675 -0.6653878712940348 -0.4762238412984314 -0.736953242236847
Ni 0.2040427175631582 5.378622378195858 9.55317465638704 -1.25260546473423 -2.326153391779239 3.1867589554621247
Ni 3.0994143973534523 7.158565682527856 11.20523841087474 -1.4805219329076824 0.38989288201067046 -1.2665030486519284
Ni 4.156207773349214 6.566180258243984 8.628004491440297 -0.23881460314319516 0.2846694566937807 3.0046469472172963
Ni 3.4261750071340695 5.727349692178245 6.51307224350774 2.1195161446995368 -0.974809852342147 0.3423274735268814
Ni 2.645231838167548 4.2190760476549185 8.754029158846636 0.49371531321497547 0.1699360350039267 -0.37576775546319796
Ni 0.13410517557006033 7.181521029653408 13.356468919145161 1.3336576921215548 0.5581900958595934 -0.24943840140562848
Ni 6.663538047119375 3.1344782663836224 2.5852692324930757 -0.5552271565765277 1.0840100029185977 0.5414712404430158
Ni 9.159795520143167 7.36524854747986 1.9092681559743947 -0.12864591800588812 -0.517446081173012 0.13715935479353797
Ni 6.698724319559156 -0.047748628524650345 9.671193199240117 -0.8183199155407972 0.305820379739783 -0.5663965429297859
Ni 4.691016516881344 6.370683181801068 0.6519215011540844 0.49588249606962337 -0.7102489934727833 3.370793891761278
Ni 4.810482244661902 8.16239604474953 5.723049566242133 -0.5203066905502588 -1.5048599954324147 -1.8586214218278507
Ni 7.817293754821014 2.1236238315796436 0.9601163383907464 -0.7523749761085559 -1.4584958063455786 -0.38248990467837995
Ni 8.446098901287675 5.360968040271162 7.730174540377257 -1.6615692473334225 -0.23738815510931371 -1.5479959073899403
Ni 4.324295901686108 1.3666528996031362 12.695047971840557 3.1768712640347676 -0.5130497518775293 0.5257062642992754
Ni 5.004256257723368 3.873766613494754 9.040131122213163 0.038669391545739853 -1.092902420312221 -0.5298297995493455
Ni 8.839908332594565 3.434733830159962 13.259328631713004 3.7501725045041865 -1.9172011791442725 -2.8007001024855636
Ni 2.7525043032214485 0.05596095574487436 3.3486126742868816 0.28830576789478735 0.09855244105461737 0.45367269547079286
Ni 5.6587002106801325 3.2533696397036964 4.699966089253303 -0.05347611754126919 0.29784224663031283 -0.08306231583881823
Ni 5.5095281169516195 7.369626823285184 2.8246130933881117 -1.5167192087638461 1.6210229504799436 0.0934562574786326
Ni 1.5949352585280745 4.481697270799253 4.305974935961375 0.3047603139063848 -0.6650374299331515 -0.4239119192685925
P 6.191230367664115 -0.049508412928984065 4.54031626366207 0.8211051915954181 -0.13174795396997954 -0.7862106937110782
P 3.0359341059996914 7.438765918421741 2.914766970825538 0.42327222880206455 -0.18569432627944793 0.5086410812868725
P 7.571018094683226 6.992756140739109 0.20010603559712328 -1.8193177391322213 0.556561559117235 0.26600093375
P 4.561824425860141 4.252454515891211 12.9548567412579 1.1138869929836879 -0.7419445248038512 0.17536980442498828
P 3.175605812012994 2.4793563868505486 10.15772227176282 0.4108406879069311 0.09307933375518809 0.4239561422429666
P 0.38778530042463905 3.291474762680361 6.821926176026924 -0.2678405580619 0.5355404767808777 -0.330761623066153
P 1.066708052174271 6.304161636500813 11.57835225031044 0.4788137135127947 -2.6412482548424125 0.28976718293166226
P 5.813154482315714 7.358130318428622 10.290114741163013 -0.7967005374988085 -0.44951445032804516 -0.12532045317708093
Ni 3.1633843023456585 1.1392932740737285 1.0146423495491015 0.3301453296383927 -0.031439449456203916 -0.5020305179488902
Ni 3.640409220894396 5.281678877783767 3.11895563091554 1.1886220199037336 0.605826209680318 1.834021106780667
Ni 5.305236826310481 8.726732256938645 7.779054929658467 -0.10348021737353791 0.08948775974918781 1.890933503696995
Ni 0.8061422647467159 8.178543879171318 3.916075822809219 -1.4640704722198785 1.261993333707033 -0.8416673320174859
Ni 0.2657378022659739 0.47759833144453223 0.8375387393119957 0.0007448485858245237 0.48856436514165535 3.9922336396091374
Ni 8.896345720072233 9.34620649733417 5.635679895591018 0.5620030418477805 -1.560649591598209 0.6232678021955331
Ni 4.380281338112905 3.951200893544195 1.4267765128394814 0.12182426709836437 -0.26945803906066496 -1.0040525512573482
Ni 3.0146641596680177 5.689950742718567 13.128135715727002 -2.945296373173121 -0.2417428325335837 -0.3333784918637097
Ni 9.263857249606495 3.055509235890595 2.712975534434537 0.5447139157500296 -1.2279709540150012 -0.042921996174506725
Ni 7.709635248244493 8.071149010707806 11.121217885823526 0.4403857485538996 -1.4653742786329667 1.0665848654636148
Ni 1.9254997896535329 3.379219176077824 1.4057607889739232 2.325247849245834 -0.2689864987408851 0.32255800420943803
Ni 7.220247585325022 7.483706801042848 6.649915489194334 -0.7146486652023757 -0.24039274626359247 -0.5131106870224518
Ni 8.778631302613805 4.249554496648114 5.06391567956788 -0.7908836737067153 -0.6687871267835707 1.3384558848411465
Ni 6.577554359690934 4.124674771903983 6.932806716970288 -0.1556119050717707 0.33211762287341506 -0.37011261405994966
Ni 7.172397267813925 1.6392358771604456 5.7941584147087415 -0.5282557701940063 1.5216313013534826 -1.2230766020371773
Ni 6.976796619255184 2.248946091727754 10.026709194632478 -1.4496057029448002 0.244052968723999 -1.709805199521675
Ni 3.8007671031319967 4.758620861574315 11.012349468621235 -0.35863803776144687 -0.5900154679003066 -0.5781279724341011
Ni 2.3234709368872046 8.133546502668851 0.7478481117017137 -1.9399215035599235 0.1957547958392435 1.464235022822201
Ni 5.726455205723393 8.512319145887348 0.3381413021803933 0.6391929580662218 -0.03897149616719094 -0.06067649194445034
Ni 2.1753722269045133 6.901349040700202 5.109268967522907 0.17520422538140148 -0.18072901185437262 -0.6895585550029673
Ni 4.547823358929995 1.1532001845349427 5.443354950586412 -0.14966005836371 -0.30516860508839705 0.07164198981701855
Ni 4.3145507071516755 3.172216179131453 6.747124510848813 -0.8156570239966533 0.2683997729994797 0.8883086860251087
Ni 9.251984118874207 2.4137010810644655 8.807773671312859 -0.1443227053111966 0.3132148724316412 0.2881425028440457
Ni 1.345806657381655 1.4315926162253387 4.864274776927279 -0.22506254366442532 0.3699501203401564 -0.2412509804988297
P 1.5449946674066941 1.509111637096818 2.348515616058351 -1.216259579115344 0.40964563915756547 2.0968138180060145
P 9.288083709062626 7.194608778834916 6.800511228733095 1.1586383290574496 1.1633689017638995 0.22830496186112292
P 0.21126169403615264 0.3515360014506188 9.861050303194022 -2.197909851418092 1.520812404996613 0.08326954675361788
P 5.997927136947309 2.14089212798172 7.723449885366154 1.5096476466290452 -0.526877401789241 0.7026151310766092
P 0.5551135860572544 4.6955548586838525 0.8007791122763657 -2.2404140433288897 1.2250380966389225 -0.08361921678355275
P 5.261971928836359 1.985242069190705 1.3287568039875002 0.46129318813052816 -0.36165137066647396 -0.17870683921802127
P 6.250407708387697 0.9340641850020307 11.729624033296131 0.4254070157568802 -1.3524357440600063 -0.3602822582330892
P 3.5992063500898785 4.133826780684146 5.054628085472455 0.08576300259943294 -0.16223506681524316 -1.3378344492070637
Ni 5.635490641088465 5.68265361637636 5.0181782332196105 -0.33530399102119673 0.2864692289066808 0.7003826422016647
Ni 8.91738969087847 1.8429528133411 11.581577109371352 0.5744775201657074 -2.393833568735032 -0.27125832549419737
Ni 6.620791010224377 2.909444305636828 12.321066009761308 -0.5148053011160554 1.6770776273816665 0.9091870721360147
Ni 2.4331726388395434 0.5648173517453567 11.879131324054041 -0.6143594439623098 -0.20264638075275423 -0.7737367296137836
Ni 4.347627874687387 9.075855028090544 10.58135670616852 1.3290644163239176 0.6043748219457721 -0.05665040150419277
Ni 2.7022624113994866 2.8443351073705485 12.69747344248024 -0.7166011609430561 2.103456263023197 0.00854326158432077
Ni 5.002919235864536 0.20520554995446486 2.5453873769476703 0.7162507195821729 0.7493379890544449 0.5032386793243784
Ni 7.623472663525083 4.717474484651156 0.41044876249650236 -2.890453200080996 3.269441005143389 2.6784400334013614
Ni 1.335214054626837 3.3843507036346026 10.603144513079318 -0.5723602167123885 0.11846383526656372 0.8995346366479154
Ni 2.2270358814073443 9.288300268941168 9.518668193652942 2.0390084769617722 -0.12552305610619025 0.3252026409211367
Ni 1.2687772501486205 5.45739368010413 7.146366770413064 -0.6096689804651758 -0.18409175767901845 -0.5607249464663052
Ni 7.497896180910857 0.2779018764872619 7.454504172203677 0.3553028027406268 -0.1685826062998258 2.1372660124837903
Ni 7.776891214002416 9.414554678131703 13.096619662446177 0.16738472933698267 0.44903648225036213 -0.11429453438022251
Ni 7.447597795207536 7.297691281021355 4.104073336501724 1.1608394504738264 0.4692142427498177 0.43059241661256165
Ni 0.6535240442553023 0.20528087512961024 7.931276751415679 -0.6347110110354681 0.03127181353008807 -3.7547390408289463
Ni 7.605093320789612 9.172468980861375 1.7384419575209664 -1.0111742499037941 -0.7654446648083204 0.4480589488284412
Ni 0.7068071900237587 8.317801296721322 11.243384021133046 0.18476538670727535 -1.4954641560398116 -2.1551719462299337
Ni 2.302059755852133 7.8001384461816565 7.577538430156747 -1.515715707199996 -2.1773163435374565 -0.029529119807368498
Ni 8.192657933864181 5.069516106339937 2.8918078574412287 -0.8212918536849275 1.0612351711159274 -0.8266168654422668
Ni 9.110438699129162 7.547883850266704 9.023043606231434 -0.23933010932703297 1.0669857004464591 -0.45995210072160136
Ni 8.267823043012369 5.596152068368796 11.87980642593628 0.39008340075492176 -0.40822407621969053 -0.15567232599606093
Ni 3.6902839024875242 2.326144980604865 3.4454083490427507 -0.31309814434811883 0.7101613188549835 -0.628426206468021
Ni 2.094077531628872 6.00170281135147 1.6333906435691647 -1.4542370310692245 -0.8915313067274645 -0.8122847650903108
Ni 8.148357315231811 0.8324533484249939 3.7177436950867695 -0.1866613181784076 0.643660249808956 -0.8520561314509778
P 3.75175866105304 8.668148101969333 13.257716672964893 1.7320115604153852 0.09476237788456582 -2.250221259227299
P 1.9473346747987972 6.2672052224451145 9.225593002197337 2.6128167389745967 1.2240348521853885 -0.4346766139842643
P 5.547717980750322 6.205570397882416 7.214030433681461 1.4827153410145755 -0.5802763862356717 -1.1804196865985992
P 5.932686119624524 5.420625578986296 2.9203476247391205 1.26472641636748 -2.9631344297958067 -1.0408854038149815
P 0.6088778713819519 0.06078176695417808 12.788454013714883 -0.2938963746086874 1.1570221336102653 0.28735523105606
P 0.166222888687357 6.105359667998393 4.160573808813577 -0.24509169440115855 1.0020987699650872 -0.21089447969415936
P 8.38899300288059 3.61925226232544 10.637995588489702 0.21690906131935547 2.985672205887006 0.2636432321511008
P 3.255168028260292 9.408199116478812 6.892291188388971 0.47180360074354877 2.446962073128895 -0.5171432052206125
