# total energy = -340867.62755966844 ev
CRYSTAL
PRIMVEC
9.28140364668653 0.00000000000000 0.00000000000000

0.00000000000000 9.28140364668653 0.00000000000000

0.00000000000000 0.00000000000000 13.58427241558435

PRIMCOORD
 96 1
Ni 1.2484230396556546 0.7654169383955942 11.455318121626263 -0.19365394744615683 1.9363641252259685 1.3496527819982305
Ni 7.9374749484015465 0.13282709550968003 10.68135393862649 -0.001523635733378021 -0.3350692493025713 0.2574270760380599
Ni 0.5744511305386709 1.808973411975541 8.766922434169611 0.1571514816447487 -0.011990339592656768 0.05985296760189047
Ni 0.7772173149725875 5.4563422854382395 10.833294228634362 0.40976468123393295 0.1824691344739309 -1.2423015117050606
Ni 3.2253712945527173 8.811504728372798 5.798949522106103 -0.3827380161334441 -0.29372951001351993 0.6572708986138551
Ni 4.816723635582247 2.5382318581038317 11.233351497500017 1.6512694080693109 1.1980016613464206 1.210486681187309
Ni 2.7082022028061092 5.377561731414707 6.356489007087956 -1.4412071944684597 1.1607430341052785 -0.31804314705822
Ni 2.9079101647434715 2.7858504255866072 12.894381191871377 0.26131201291476286 -1.1844835722553277 0.3441434436896976
Ni 1.3445226928554246 6.533198578967011 8.129453357394658 0.2099223455888772 -0.25193674234744995 0.7290823241292025
Ni 3.467124014940433 8.358080316766813 9.221425344877568 0.7749266361568267 -0.650316578783209 0.7101206954250351
Ni 5.38481050765085 6.785420722650973 1.4192714051414654 0.4629116975705576 1.1745693984654095 0.289846630019346
Ni 7.645314924891564 5.059042521591479 2.7181175263055604 -1.7169482383243593 -2.587369759656402 -1.086460264231303
Ni 5.971014679607993 3.10296814346149 3.8589523913464676 -1.00499614611754 0.2652478576340593 -1.6335311102492835
Ni 6.972877231794855 6.778970147127133 7.128455832026245 -0.4715259216021298 -1.213346262123291 0.16912819439065066
Ni 1.8012048771360385 7.7886012341534965 3.161590416937931 -0.8126344351202457 -0.19821585578522638 0.7271763653557413
Ni 3.9638925815051693 3.762105585154368 4.899018129020635 -0.007609951136773991 0.10863502210159999 0.28382562063624667
Ni 4.042543195877862 0.3772872013366821 12.503249848878061 -0.5982031459174214 0.8288138730935855 0.6891692899843486
Ni 0.16926681430701596 3.411036492795734 12.589957649743193 0.5216053547570243 -0.5007372530587635 0.28648902640102275
Ni 8.167319627930144 6.326928664662232 9.242860746564343 0.21803931826905673 -1.0626065975421572 1.3361521764086344
Ni 5.526379757240968 4.502882253189257 1.8228463259834313 -1.1714506503307696 -0.35617286405040594 0.5294873286082623
Ni 2.346849315223857 1.8842177512154998 4.635293541816249 0.750207793253908 0.8697646044743342 1.0733324686000933
Ni 9.229028670732431 6.3917871132386255 2.129402734666116 1.3758134995539981 1.1882499812762954 -0.541693640866467
Ni 7.1661995880337965 7.5010819124592265 3.2106157190594784 1.3479818220537108 2.4793911401918782 -0.4968530875130088
Ni 0.23518705545884577 4.866889622210096 6.228904976489667 -0.07788437118230458 -0.230368529258371 -1.0624268774311831
P 1.5779964012039094 1.0258735433813566 13.68099221545933 0.11807637002015793 -0.36074068592674646 0.6388427738156546
P 5.726375442690905 5.12758568740955 10.52139915658288 0.5835738260400208 -1.1909707226415682 -0.6606171893782687
P 9.403918159359366 3.4374049605126116 1.6176020067799242 -0.9856809907286959 0.42485011481214574 -0.03581366726449961
P 0.08179144136156578 4.627531503959289 8.143268726700033 -1.4697613519570687 -0.8146519797709066 4.408989407448923
P 7.001584613226851 0.8664914239418078 13.257841886218326 -0.1582565417834694 -0.7530162092369805 -0.7566697468291679
P 3.160178715445591 0.14528273918305176 3.6945007692434353 -1.1407843315951642 0.5070333704801203 0.1960425022829914
P 2.597549308712266 6.703475209989126 10.139409996166519 -1.0087337587831013 -1.266961990566218 -0.269248237042704
P 7.206972794186645 0.31408269888740714 8.407414689629288 -0.0621384212019575 -0.1880607696290955 0.047039360776989954
Ni 7.001269045503383 3.2314227697204063 0.5687161512348136 2.585323675760651 -1.3715938050456957 0.9888781575097549
Ni 8.156664576561269 2.243138911046319 3.16718710332768 -0.18930441222820946 0.8538633598630456 -0.6652896551532735
Ni 2.175366101729657 4.274309125958164 8.631677533013946 0.5809405021822317 0.7488371381586265 -0.3519164027668972
Ni 7.261129784376007 3.597982524739888 5.532738446868858 0.8868521560842404 2.379841111110682 -0.1950325729612383
Ni 1.7741403041468045 2.6815274487693954 6.926783925080474 0.3718977309848304 0.8825640702318478 -1.0714797316620708
Ni 9.17657945881125 6.112537522179956 12.982747579565443 -0.4176384275550549 -0.551196695260896 0.683755575167945
Ni 5.545508730125334 9.479097528773904 10.758648539928629 -0.3018963620950284 0.2867489649306287 0.10807580716402032
Ni 4.366287835945582 6.700941386797747 11.44921838315969 0.911988803250868 1.7563018004213173 0.511221697529855
Ni 6.672725919758216 4.58076251106054 8.3379452397288 -1.0896463752687686 0.01301440998179694 0.16274465946181005
Ni 0.4099679516632911 0.7379012891898731 4.161134474497662 -0.695466178736654 -2.133076914103107 -1.0969737621681173
Ni 5.948275240711004 8.0253884035984 12.935419846168084 -1.573979733048212 1.1571725431452007 -0.5170689003392515
Ni 4.305856616901376 2.518945101357731 8.904965678520153 -0.794757811950141 0.8875507248131618 -0.6300454872389989
Ni 3.484730837629245 4.674402592297983 10.854825228778541 1.7797677447537414 -0.5639565660297254 -1.740988824213331
Ni 2.822586221159786 0.858179926989867 8.211814676939193 -1.8865677705291315 1.2238407338967117 -0.9721371906059905
Ni 2.2948920176951426 8.10493003271971 11.7899257165042 -0.7746458716916143 -1.0891938611123824 -0.48963831493212445
Ni 8.20917875830787 8.011020790776954 5.5455078019849715 1.129409256989003 1.3248514066838344 -0.6970389225404124
Ni 7.402513405893498 8.255465118217783 1.0441356331665477 0.41598675088424486 0.12738453479496126 0.2381234906134415
Ni 5.342051081120877 5.340324740045432 6.433701932038139 -0.622005904763974 -0.1943229484887234 -0.9463981339686732
Ni 6.900797851193211 6.701405456979318 11.422756173266135 1.024806753085564 0.30687427492559405 -0.5678628430626672
Ni 9.14144934606631 8.615425795255321 13.14367969341144 0.9909412106863709 0.47865121979300146 -1.0662645060097187
Ni 1.6614640640613105 1.8293089673319922 2.394852734805585 -0.541613422447835 -0.3154969835975986 -1.7215515414243252
Ni 3.0806278049206512 5.907019401569321 2.2811388337940977 0.5342487545526476 -0.1508885314541724 1.2500407893308472
Ni 5.693732746119185 7.963267969093275 5.564620996483164 -0.26190722329660054 0.29819757308720257 -1.1386534012950906
Ni 7.355530940711227 4.519839377623869 12.21140539309155 -0.9820320811221991 0.16597525058396578 0.3579052733604804
P 9.002005537907786 2.059376400547744 10.692045187469526 -1.3790173512032766 1.5403283635423537 0.4243621194321336
P 6.2361936627614245 1.1354126690394293 3.006661514960739 -0.07087425841305858 0.05468813557149936 0.16677177834333212
P 3.617603412016719 7.707221887113166 -0.14396849242884205 1.8977947495932028 -0.9679468066737266 0.15166757571204204
P 3.1347569508991193 1.5044412774248699 10.634868956678861 0.4212019765365972 -1.6137544418429883 -1.017602522027641
P 5.8012949328037635 6.151185286901207 3.795051783624836 -2.7505134543288436 -1.7044233663844712 -0.10512289518328348
P 1.392099167870107 8.520365659262271 7.322452946309192 1.542476777343924 0.4461514473930833 0.34018831569669156
P -0.12862633222609726 2.6608299186713182 5.144486195282011 0.7108267203531242 -1.020843911783074 1.2053280198045049
P 9.034657515883138 7.365378509964168 11.213898603628914 -0.2064007055888639 1.3122589147308046 -0.5772054606198317
Ni 8.720305656290419 1.4252801858524498 0.8791698213023337 1.0379857136696833 -0.5390932271291424 0.4178199474382417
Ni 6.014767216326529 7.75826032568237 9.307549345454284 1.0863430219271486 0.2534806897958022 -0.1655060242570311
Ni 3.990957154494404 5.431106148964395 13.795779974870973 -0.33219527018888595 -0.6395238590430792 -2.460930105273213
Ni 4.3835234024891365 6.0624365053775255 8.937486788704302 -0.5876161144301945 -1.8772680903947603 -0.0328170465300209
Ni 7.648897546693294 5.976713461437688 4.795669699584723 0.41030409867717077 -1.5104362039686117 2.5149304707490687
Ni 7.324289736087851 1.2046519401298563 5.428207566610301 1.0009566859408436 -0.9169618309854272 -0.13515492276899946
Ni 3.7909150620263103 6.35975698930658 4.5180471385826415 0.39808056002778536 0.7765369180667401 -0.1719903464297941
Ni 6.498495410789114 2.07870028290837 9.438380011042844 1.2401176166798644 0.0803163776625649 0.09449215494231468
Ni 4.021520816652685 2.3185224713407493 1.7172694315356138 -0.007182890901684403 1.0458059810450504 -0.043046951788145216
Ni 1.797473752876206 3.161765835466565 10.536803502189956 -1.2905382352242611 -1.3572653042381657 0.8421201032841883
Ni 5.335916073320504 0.5272830372837712 1.1141591828638302 1.3548641509958408 -0.5278230535319619 -0.424504815657585
Ni 3.0838020449625985 9.105994384194267 1.464099656540883 -0.8687719015437619 0.5674486383433841 -0.3123450682321782
Ni 7.993014867731991 2.663753560815217 7.484934126421274 1.7085073066458574 -0.09438468283017293 1.0400734494366475
Ni 5.1090135987430685 1.1305028065184055 4.873806124196234 -1.770893839302879 -0.6043876774615785 0.27104672370402355
Ni 8.638852058021037 7.908971757849441 7.868486275209167 0.8455175590015116 3.563578292118289 -0.3437217827712467
Ni 0.303103726531795 0.814221343110714 6.462758294246677 -0.5917918430744388 -0.04961097815890811 0.4934180936895308
Ni 5.833575654633859 2.4171837919427928 6.870028141874313 -2.411830519533085 0.7361831968400417 0.437619241552356
Ni 1.8766998142740459 4.6050055373458205 0.8539290441266746 -1.7707927949486406 -0.9238351610664929 0.2265121316267583
Ni 1.6745601245852504 7.153901728222159 0.5556052404650632 0.3987282209141133 0.34657673572153863 0.5422600548928984
Ni 0.22155545794537254 4.455853380988828 4.041279996843625 0.850848998516754 -0.33328078994358085 -2.587011347875719
Ni 5.049111419705855 0.2605419938991714 7.594830586119156 0.8762399277860329 0.7364703890631574 0.09543806379535176
Ni 0.7795942824425953 8.794092815160244 9.636805282998344 0.8088554276937877 -1.5267693939109963 -0.7124804539064632
Ni 8.063887665861548 4.047434495591622 10.081445774207547 0.9978759901329911 -1.3930620022218008 -0.18824383217417903
Ni 4.924981927539183 8.503538474478498 3.140643217082169 0.7853192922450605 -0.3818275885040327 0.11545667300912374
P 7.231280790297346 5.8430983747597 0.4560361985878669 -0.2973239122329976 0.1634170029384863 0.6504718734141507
P 4.83296609193724 7.444372536271222 7.468117151181495 -0.055542256041678534 0.053171698926972946 -1.3609833765197012
P 0.8187757278726541 6.417218159188729 4.883599861308114 0.3544389120784347 1.2242099443106722 -0.7717389824574644
P 9.004567205310058 8.636615239745865 2.392611275828596 1.1806785966869409 0.236081006262116 0.7954221850070171
P 5.131465314127485 3.316041326628104 13.424629637615388 -2.495812776083011 0.06659465720109821 -0.31959840736048184
P 2.1359015734888396 4.714117718436848 12.328080061861462 -1.9381803524991008 0.20183622614663302 2.031917374442946
P 2.6868642558574645 3.59526307347588 3.1250077645246708 0.6930226022921677 1.1648287741388776 -0.0586769450159183
P 3.8678764609380822 3.92304512412327 7.201050330529433 1.0067668648647177 -1.9827943916640496 0.6090598861262672
