# total energy = -340892.6749623138 ev
CRYSTAL
PRIMVEC
9.09563251941290 0.00000000000000 0.00000000000000

0.00000000000000 9.09563251941290 0.00000000000000

0.00000000000000 0.00000000000000 13.31237759278794

PRIMCOORD
 96 1
Ni 5.995058566816831 2.2487222612972753 11.17699216706446 1.1810853452070562 -0.9870781281865386 1.2802977884431757
Ni 4.563797159991008 0.4602608222879381 6.035871578367435 -0.16727828566610545 -0.9653083406096149 0.8327795426095528
Ni 2.7609518881127526 1.4802686734868402 4.568235828537886 -0.43227597496257164 -0.6002962810010243 1.0790125497040064
Ni 3.498634951959895 4.563578864816571 5.071190639129488 -0.6799349158702742 -0.5770187985303223 -0.7170217934202425
Ni 4.974610487016149 4.320407136126469 2.659866669336979 0.16701063382701561 0.8397672867812958 0.30714218387500003
Ni 7.379268267919301 5.889321841699104 2.4898001754392394 -0.9399469790266909 1.9068951692325737 -0.6046190767460942
Ni 5.311076115881092 4.593285199804485 11.503478068204743 -0.8180484070469654 0.440330469835932 -0.15762790706053498
Ni 5.8742594746629795 7.733324849590926 12.30441761622425 -0.7973512837089299 1.9512127602030267 -0.10005293685954382
Ni 1.8258299346199751 6.340528871627285 0.535569928778884 -0.2513759847479735 0.168079184300846 -1.2077739102418361
Ni 2.89299318175009 1.552315176683186 0.4664594956787107 0.3175826624820337 -1.046594795494933 -0.9010682996836223
Ni 0.34173836689081394 8.776093610977751 4.787450571396798 0.9915549330109696 0.6355571610858474 -0.02343329132227577
Ni 8.51858716583298 2.1991146829065578 1.431000362179727 -0.30368327879212215 0.8159066781136142 0.2832854318620605
Ni 6.949126722324252 0.5545443272535585 5.001513548139005 -0.5185706816957585 0.5095787626097933 -1.5785061601636559
Ni 0.5462291002339777 7.533703008200926 2.396121530019454 1.0362147378121898 -0.5244358822272839 0.576278320819872
Ni 7.921504385587543 4.036032193261459 3.7554082891438507 -1.0821742352614394 -0.7194067487126513 1.0295000447961755
Ni 7.517812938628395 3.6932450999701225 12.766675839358284 1.0758624341107987 -0.07221843114577885 -0.538442480919021
Ni 8.06349630092628 9.026842001347257 6.915713007623824 0.15235303181484083 -0.4861701538778659 1.1094477262654119
Ni 6.992858522269717 0.5163563151755561 0.3541438997414005 -0.3673805598407673 0.33395904695752804 -0.5929064162948563
Ni 1.8567550843318268 6.501330554496644 9.341028788534492 0.13523565540826388 0.960429672361075 -0.7674917771453362
Ni 0.19071357914653397 4.698567143308802 1.5723646788919607 0.076007722984882 -0.41843135576999546 -0.6990125013270155
Ni 6.414467266335414 1.9772358293562924 6.980531211856637 0.7497151698882056 0.044904573822174276 1.46534882471167
Ni 3.671833981610799 4.430418808410246 0.5904065861605843 -0.36724840513827717 0.04581782966506303 -1.0477744176253312
Ni 5.780538079771533 5.40242355075054 4.810467068851456 0.5634032646294167 1.3431131811074997 -0.19547891647003754
Ni 5.294667595269275 3.218198417867012 9.200237496655154 0.4460437181706254 -0.058214403557202976 -0.9820197398270248
P 0.14958949697235935 5.306319100204829 12.493985145704992 0.387684561505442 1.5249482815418576 0.5264796521301901
P 4.0414622857255695 6.208287474080047 12.545304522088582 -0.11185610014205898 -1.0681054158731993 0.3027440548073044
P 2.18658090164099 8.458601471024256 1.1612330047374326 1.827584350016388 -0.09594817066255089 0.6414976949399984
P 6.215118293913459 7.699389045598304 5.937733344446554 -0.694904649806229 0.8372913144369775 -0.04663518336003581
P 4.917999271778925 0.936104281777742 12.610934966282947 -0.04032826730540151 -0.2002038327495326 0.25023570049594324
P 3.925529356835199 6.074463436518144 8.248908036023685 0.5904504985551959 1.2796334153862996 0.3507326668714411
P 4.921801246067028 1.0378662155942695 3.9083013197560175 -0.7136670180153967 -0.5706110952317657 -0.3351407259704551
P 0.3709735481272354 5.748066672574089 3.619275780112281 -0.6811649316226333 -0.976277438026609 0.07201042890003082
Ni 1.416162657260626 1.0603960967225803 2.417528100562643 -0.23800084899264815 -0.14336059850824343 0.5762307554113882
Ni 1.9835663894149538 6.610278037805043 4.752065833183852 -0.6220380435534899 -0.2594122247888887 0.19140628906256066
Ni 6.166856869098434 5.733941155661587 9.13468709402475 -0.5134022501209415 0.020923637526544612 0.1274387850716644
Ni 8.838635178453837 2.4123526858020417 10.323003253403952 -0.05402221985272632 0.14987731658083867 0.48321904166934193
Ni 2.3423254129692346 5.063884117728449 7.112936330784702 -0.8407070249867457 0.6008593525933459 0.20301327717386972
Ni 0.646201923183352 0.28744108050261746 9.169472430071222 -0.35845677498857614 -0.6810199214043369 0.19267872801708108
Ni 1.6765342265698784 1.0438420459944715 11.737150318553946 -0.2581382431724716 0.27840419251035925 -0.5141365571838049
Ni 4.065893153997932 7.013496511886244 1.319517926158183 0.3387346139693005 0.3595973163509226 0.8487795175822351
Ni 5.335225019553142 8.021547244905381 8.011694856032475 1.187751187263006 -0.1791380132181689 0.4003505870088847
Ni 5.047675701026532 2.7549669620802826 5.30933521186496 -0.389384060695052 0.4298956476558532 -1.419042999666595
Ni 0.9179766866672362 7.614590465961953 7.167969453823395 -0.9436951332152135 -0.9154199404196041 -0.21090347855522387
Ni 4.985234185505397 4.528196855293306 7.08363566099595 1.1519300637993388 0.5427763324076845 0.22618611574590722
Ni 8.281363980646274 7.3872178505217 9.15052895674626 0.08947927510875557 0.029041381537672564 0.33380092411310897
Ni 4.677083259891334 0.33173226183257637 10.348735706653892 0.4969338201522731 -0.8439263032549917 0.7806229152106555
Ni 7.785470109384469 7.056509756882522 4.584876287772541 0.602257261382137 -0.13983664451538497 0.03092625726521125
Ni 7.502377650669274 6.378102928527184 6.987919593948089 -0.33905137387877093 -0.7323357980694937 0.3981186123545724
Ni 2.4651346398543574 5.170748701247432 2.590961797526066 -0.6328654731862972 0.2856302779451532 0.8788794222914089
Ni 2.289125059832582 5.42379828658079 11.463807468067026 -0.39494689949481016 -0.5035932344503198 1.4554955860666738
Ni 0.9892227742239809 3.2624213819549595 3.6822966874089 1.202817337567509 -0.3096142995645765 0.21011286433312845
Ni 3.561340240816808 2.396298894848684 2.5564020331598454 1.4041748243055108 0.09228691976087977 0.7593017851353762
Ni 0.8870933768638184 3.3896419904901554 8.145430665961378 1.9983909605507262 -0.5170529594996515 0.2466456691518397
Ni 3.388450462663022 2.8802411053100854 7.360865984714295 0.42501826495889383 -0.8852043360681724 0.37185787888583055
Ni 3.8194469976912804 6.848456264379908 6.203088410675549 1.6516427322483298 0.4340019565147429 -0.4710155576246146
Ni 1.1051284162175463 7.651336820325447 11.624061593873838 -0.9686967974658734 -1.0850862667019119 0.301675504333474
P 0.2117581435254489 5.58862023891269 8.08466001808791 0.4977120930791945 0.5919484232569612 -0.43793934389593614
P 8.503079112815714 1.7442875913356375 8.0538685741704 -0.014105586163446674 -0.6341420259058757 0.4157072719706131
P 1.9381246106030685 3.353350417740071 10.54120656195464 -1.4781662881913122 -0.6856844167595417 -0.11179825032093003
P 4.037651215805197 6.196672351673566 3.6843331994737483 -0.12899353115329398 0.599953810059941 -0.30427103297479213
P 7.034343701044938 3.990854187785351 10.385025460277523 1.0471606953007322 0.8388964541405681 -0.4254219281552157
P 6.299525761362276 7.72702157642907 10.115676501919564 0.7249176512285516 0.7958479596905262 -0.1678930364319689
P 2.4323266942629904 8.536823908530703 5.850776371272962 -0.41473745185817606 0.7768999578331136 -0.919278652044062
P 6.835476797133198 4.035077151873299 1.546485785962502 0.6724411785963904 -0.2370197160263015 0.24957466987317659
Ni 5.4033876877709694 2.7922408631153317 0.3999476847175597 -0.20698845977153385 -0.4023028256392491 0.09418233701137972
Ni 1.6911690988893986 1.1756013750314949 7.0343136854584545 -0.5150891509050614 -0.2796226382984926 -0.3736910754398274
Ni 6.937784468885817 0.76627882213511 9.354874159973132 -0.05890731585916952 -0.4365038970009902 -0.5502566999451297
Ni 2.765426939188703 1.5022164341499866 9.574807457781233 -0.059950155301387066 1.6190578563337732 -1.4338288997265178
Ni 6.2954873006352 2.224937182915954 2.784070256648815 0.8889818008327335 -0.2641078304923452 -0.10655371409253908
Ni 4.056388218277672 7.06934369401294 10.501295837125042 0.5540717028158457 -1.4369180801748027 -1.5757044290488023
Ni 8.385736360923772 7.120261043450277 0.31377930286161987 -1.1266201242796403 -1.485277959535429 -0.47789994344927367
Ni 7.767797295887373 3.833899957365437 8.216372959400365 -2.04643819376694 0.9938486141411528 -0.266642938209373
Ni 3.402930709233983 8.27590660128536 12.419489188738822 -0.5463257403218398 1.4439248505099391 1.4292420516867836
Ni 0.18201906426136966 5.044774194332979 10.211951040788694 -0.9555126946754319 -1.2609396956315382 0.3156592202070757
Ni 8.808128427826322 2.2683597313643005 5.916539611698441 -0.32141489174393034 0.6830027561623205 -1.0655253138508487
Ni 3.7021042457993407 2.765326887233753 11.728604062474751 -0.37436984667440687 0.004929061870501189 -0.07700376834956416
Ni 1.2427544280675533 3.268087960858043 12.726100223809881 -0.3124661671910748 1.0537938843465335 0.18445325478349525
Ni 3.0041418080673914 8.366208038443965 8.042153399808969 0.2095996721421358 0.577996074841927 0.9932433764569862
Ni 5.549945610508339 7.938595078619474 3.7141668733134168 -0.4969916699734021 -0.35186446648303915 -0.3004904828864373
Ni 2.9366522166374094 8.347261836429322 3.373422659029516 0.8200173578478781 -0.07293345493493245 -0.33253799824028535
Ni 3.4139637111752994 4.5171456620874535 9.601911532377217 0.8274897549655232 -0.1801821382119671 -0.6050744191159579
Ni 7.440163525954843 6.2884927594209605 11.385024739612858 0.7865804183456712 -1.236352236100161 -0.09085430107941127
Ni 0.3454011780052147 -0.030061974209600023 0.3788158022688702 0.3750092800306186 0.7978266806834517 0.017116605075628587
Ni 4.841277613596728 0.4130717725173333 1.5947963271917747 0.02518035592036954 -0.6106300588268645 0.2541224371448591
Ni 5.977067406190349 5.7363605938449265 0.16105181275673439 0.8256120783268363 -0.9270508397903131 1.7841501900921533
Ni 8.23330265974115 9.036974535694021 11.394435990320755 -0.5816367569183081 -0.0748098460220389 -0.2736959884014125
Ni 0.12848217273079393 4.994520826051221 5.926231007880199 -0.2581115036995942 -0.7874710484807405 -0.9325517150038842
Ni 7.763222192856472 8.759685090365933 2.6559791961055534 -0.5269733039371569 0.7718824500138642 0.08257560601038683
P 8.66227996440587 1.4840797434072126 3.627795658857896 -0.76999860272759 0.16704637216095747 0.44935144238761965
P 1.9723059966669325 3.2724811512435794 1.5531683469899422 -1.1286147861121658 0.10844296069545194 -0.3439498396216528
P 4.740725398871871 1.2781728201198914 8.40637980791966 0.10724071285723467 -0.357044725132398 -1.441001763325873
P 8.836142975212352 1.6701763796144127 12.589408333393818 -1.4574704504048577 0.18064030879530824 -0.5103300389535211
P 6.37802106783677 7.652137235965048 1.296362265529821 -0.18886629624952636 -0.041884556048927865 0.4768879572449916
P 1.8603569547100305 3.1114793644643197 5.795370327311273 -0.2754186275194741 0.5459310759865823 0.4434507606324685
P 6.8673751794977465 3.962848736031589 5.904691641105894 1.1149393455076024 -0.6431974512399246 0.45887815093113227
P 2.4528282493954943 8.61505544166942 10.319767937006155 0.04088876779456184 -0.44532895149178786 -0.5378308154769511
