# total energy = -340894.14796513563 ev
CRYSTAL
PRIMVEC
9.04590167594312 0.00000000000000 0.00000000000000
0.00000000000000 9.04590167594312 0.00000000000000
0.00000000000000 0.00000000000000 13.23959147649952
PRIMCOORD
 96 1
Ni 6.35398614588205 2.0051960020437005 11.260868627682347 -0.5266727419776026 0.6950841128068869 0.3372197199866709
Ni 4.396869111807989 0.22066120511146353 5.971730760522973 0.720117915847063 -0.012516130189139735 0.3283445289842281
Ni 2.8555559990307313 1.6198948615547313 4.874685403588757 -0.9065293227981935 -0.38306326068334673 -1.1193819546599881
Ni 3.4344032540405722 4.510223307034249 4.989406434574228 0.8304341823058279 -0.6399000114355754 -0.32788301596677727
Ni 5.020484534735375 4.527356245008755 2.715877325029599 0.8306301003667179 -0.15446673572373398 0.4454148263373748
Ni 7.357411846916924 6.113763178167699 2.5300591244008186 -0.1306241247781815 -0.8878420308013356 0.3938325833847089
Ni 4.981722845600867 4.384403859152831 11.465685031233017 0.5555434022653658 0.1269775291645297 -0.5742517773081465
Ni 5.548548097142852 7.774871168239773 12.252884732799988 -0.05267856134063831 0.48104748793931995 0.5032793027543268
Ni 2.0398146681621983 6.193349022042938 0.5718828152281238 0.3369849782680454 1.5372492103963975 -1.0611413258505402
Ni 2.706506675373954 1.7598530539209174 0.366901776265028 0.13769337292013706 -1.4142975145618095 -0.18927561587280303
Ni 0.6066896361036803 9.191993095456318 4.767378393703552 -0.6059791903184144 0.8026521270965532 -1.0070160047610461
Ni 8.687023720297475 2.3775976865919914 1.5130075815121966 -0.5233560188995439 0.06936913462244182 0.31353497477522135
Ni 6.780391864066983 0.8838470207926398 4.870885220250273 -1.181410589756959 -1.0568491262330895 -0.1784633557486475
Ni 0.8497946281256754 7.3525722894637235 2.6215321878073667 0.6103017289531683 -0.2928100835230441 -0.37740529106662096
Ni 7.516692085488783 3.7992697024047217 3.752643506261219 0.34421080659252334 0.396058387391434 -0.23400844000380344
Ni 7.7599002007910896 3.727843261936559 12.723751058241888 -0.7277546064567144 0.34472374167319986 -0.5069156139553335
Ni 8.029097191912168 9.103976471120552 6.794584883962442 -0.4419903740368582 -0.26841699939066027 0.19083421860917454
Ni 6.702262410378594 0.7940962970853239 0.14160906944134322 0.17023145475715842 -0.7599311911892589 0.9047318645781386
Ni 1.8980201577343305 6.236407514523745 9.348793852349818 0.1422128580570454 0.2749216332783975 -0.6755213601836109
Ni 0.3132794796835726 4.873135840613554 1.4525954310534106 -1.2705797898244635 -0.45657212850577494 0.5190095690053901
Ni 6.36452462145771 2.1285187810333737 7.018916916016912 0.043658874340531256 -0.2764367843713433 0.1888920072811392
Ni 3.2960190485843985 4.101520418636067 0.4996639537638861 -0.0019715219040740244 0.9406062098772446 -0.3825387556384444
Ni 6.250663855731676 5.89049223039222 4.905215322101934 -0.6237658248778741 0.03754170569919986 -0.5025190275495346
Ni 5.459246954754086 3.02134024098362 9.116134163115133 -0.30995085696838875 -0.6467697419722152 0.36595154070372454
P 0.3121107491733792 5.640273541209109 12.490243768010258 1.1986434086954776 -2.5405078049975405 -1.6902982398369986
P 4.0466389325266015 6.0142853962745395 12.644233963220188 -1.0622420151138867 0.22393897158294337 -0.779312166819032
P 2.3983128016720436 8.493278595937406 1.2340455394177916 0.06569297132243525 -0.520993175094322 0.5734858456763995
P 6.282740623449522 7.963080200709452 6.014098146107659 -0.23389145480996493 -0.18498418758630078 -0.5029252618490178
P 4.645649502607812 1.1097150469696395 12.523038780329568 0.9038903425134497 -0.6525971472872696 0.3323845033815566
P 3.969993006730409 5.991779192641715 8.180889232989152 -0.1828547999481238 0.9525315005599208 0.917887171013174
P 4.671385093176698 0.9572554183411686 3.6462763655711314 0.20630480344094793 -0.628442404417937 0.5341937329449962
P 0.12804564430988902 5.708000207848564 3.88632293820074 -0.015194962572883509 -0.31474699280545143 -0.31722939290767305
Ni 1.6693759443005325 0.9895583336035556 2.7030212894174723 -0.808562321933401 0.9686232639154608 -0.6230549148537786
Ni 1.9958787232085682 6.576316319872234 4.762837351009147 -0.2690415203485367 -0.22205023920066275 -0.1013397739917674
Ni 6.144654932752142 5.876706276076936 9.125679398675162 -0.014644489386052199 -1.1972550129883832 0.38783188571658367
Ni 8.600174017291543 2.2231750972768958 10.244093889388244 0.45199685043026666 1.0962672230193957 0.27065668735445647
Ni 2.2851937998921086 5.325675169045768 6.882654879118721 -0.2559018976427851 0.13579769855932097 1.1155936912621498
Ni 0.5301667345717184 0.305634788087873 8.989550336533162 -0.22155170229768942 -1.51788314716496 0.7544418859399136
Ni 1.4410935669380018 0.8386374128681487 11.550974316181607 0.09281708123273691 2.112983228677025 -1.057103922556373
Ni 4.1819384854752215 6.5616167294770005 1.623782790140498 0.3762621786011133 1.2545227363616007 -0.19170839368401177
Ni 5.4073325244290125 7.989376637188802 8.160791953000789 -0.6877407850679381 -0.13655411710937126 -0.3409622177482386
Ni 5.049205272892216 2.690034088229511 4.990147293930147 0.2797082560337635 0.5073840689513197 -0.42092224051264926
Ni 0.5431114200213055 7.453045120552868 6.548328299759709 0.42021518714329564 -1.2240047702784018 1.0468909865791132
Ni 5.189778586579557 4.501023624922278 7.232286219702162 -0.00023551304957378794 -0.13858477438615488 -1.0039119119144257
Ni 8.482351146585135 7.154023791257582 9.591991112569985 0.1942134194940526 0.38194200259471 -0.5883046558567868
Ni 4.313990559684218 0.2825885441186814 10.434929851735324 1.104994832700381 -0.6306998329935462 -0.8800215063156522
Ni 7.997490811086972 7.60787477544814 4.5991029103999885 -0.4904065605567166 -0.9643428913725522 0.2222137613617205
Ni 7.402288565655849 6.387446936572492 7.078455232363588 -0.4927691472516223 -0.1864646287865692 0.10816733843656211
Ni 2.492471593317573 5.048825345017386 2.739854392292126 0.2847977547415289 0.5471153261026707 -0.10774876284190475
Ni 2.4510775467645955 5.004934629572664 11.299647504030242 -0.2640119283444292 0.16559292754388255 1.224673257100336
Ni 1.0845222105076546 3.468831956221654 3.7957381823491527 -1.2385057921080542 -0.40372053192238216 0.2823171544115202
Ni 3.780219033252499 2.556227109074869 2.5081219079900614 -0.7511364757157645 0.09023646498975427 0.19845419704827755
Ni 1.1404801589291405 3.5088148420966894 8.254077815124385 -0.4850553235471324 -0.35421059811771255 -0.7418077421156708
Ni 3.506851881410064 2.60264163111668 7.070259645349384 0.8042986615610407 0.5697814002416187 0.15214502956909282
Ni 4.137821622485958 6.83329229768626 6.074231682791569 0.13388479780732426 0.2211552381902191 0.23824433246202198
Ni 0.9274672637740892 7.703752288432188 11.916360903898203 -0.5208152547555611 -1.8302094463440608 -0.8151967965307833
P 0.19799850737781524 5.675073125363241 8.030871093251557 0.5853085493429404 0.417578520851397 0.46188659874015286
P 8.51141562900968 1.764511693338484 7.930012002156335 -0.7004386922505808 1.7557837231343179 0.8566679191913762
P 1.7675782540424738 3.049319215194363 10.305896394950876 -1.3553477755004786 0.2649989748480468 0.7726746068978564
P 4.220835863136455 6.235493878443795 3.8752281396655066 -0.4826829666602138 0.1796648322559164 -0.24914915229998383
P 6.885043901779263 4.129436071534339 10.321823514217883 0.8697082973151021 -0.4818512147875379 0.8262265719823835
P 6.437624553755483 7.708537570474698 10.169012904600283 -0.6262209712865859 0.7161638162953213 0.30134588890819713
P 2.239177297528691 8.557920610069306 5.83642216167257 2.123513695894704 -0.13319419949820285 0.2791652390460999
P 6.870688055651734 3.946735993249704 1.6062274085527877 0.6165132570805189 -0.2948805928988276 -0.13337623360202192
Ni 5.262100571324106 2.935820285539597 0.4437629945236249 0.780057786735805 -0.6759080540990682 -0.19405812486311094
Ni 1.3850089758915725 1.3776094282341564 6.918626812143758 0.19867634036141268 -0.6729877951284797 -0.39228940726730505
Ni 6.932498702525968 0.7006467041394783 9.133954589625043 -0.7419424679213221 -0.19368582912535676 -0.2886762638603287
Ni 2.6299693003991416 1.4375385275378008 9.09002588139284 0.8478312947363528 0.3431905928581251 0.031025501847236892
Ni 6.439497055424291 1.7516031914960233 2.5651183259360844 -0.26081219046020887 0.407707284484272 -0.5511167339525799
Ni 4.083844726554661 6.751616850499452 10.375801314739359 0.3707327641424519 0.2238844641959241 0.09595434131013796
Ni 8.488439038484207 6.980089191799398 0.48250206890367875 -0.9872352225896934 1.9555070167030064 2.066761221595008
Ni 7.780814325710339 3.933610389764483 8.184398138290266 -0.9858180305271926 -0.038347232319630734 -0.3937760191151605
Ni 3.2032985553221565 8.377581512149693 12.419995103954069 0.08607462030258078 -0.45056988817575305 0.7649155317777279
Ni 0.09489693723091476 4.8359481383890595 10.145141674388602 -0.6761985887562935 -0.8465040912844969 1.5481226627757918
Ni 8.427424430966761 2.4841403177766437 5.815622919705949 0.8043467411901566 0.021810411006872116 -0.5907927123859632
Ni 3.592579892595066 2.4442026614105172 11.225611320898063 0.1596009716265058 0.8051383838535167 0.2903227983248161
Ni 1.1025778304638922 3.302251674911978 12.505575666940029 -0.3472976730479632 0.2493910931074608 -0.10802747042458814
Ni 2.547316895819912 8.211851545607493 8.074787137221266 1.1009219481825878 -0.27318202487947146 -1.4212893724986102
Ni 5.7104878308385265 7.914585121257855 3.358116450545112 -0.25793461180209776 0.42333084995414183 0.29248689585567045
Ni 3.0893021010693977 8.174066813865407 3.3592155276115867 1.0788485133223162 0.5559552929918038 0.4155692037308521
Ni 3.3280324949897717 4.063916604929615 9.172719897120265 0.8198618061066203 0.532190072251406 -0.21113796316353317
Ni 7.412808949427945 6.3629958640566056 11.744087132007136 -0.028221199629222364 -1.2302947170521714 -1.5839640979544332
Ni 0.45495277502756576 9.253505227571756 13.763349511321353 0.5605431694728024 -1.2123576729577765 1.263666864754714
Ni 4.5883346689190745 0.2729591816720807 1.4664040001231484 -0.2349080689999374 -0.5340672346694609 -0.4816774082138349
Ni 5.948919710000105 5.431512219891449 0.26040437458928406 0.5998707634278314 0.5435445780322768 0.6069814063306836
Ni 7.866090041806256 9.011084105724457 11.25248759968162 0.5094275817439098 -0.4229552117822781 0.24354594718059347
Ni 0.046929233853188826 4.786295183509407 6.0233123016624806 -0.3284692274875504 0.3044291558192112 -1.195161363684148
Ni 8.037428467453097 8.67919901525632 2.453746087790192 -1.1298502011811637 1.3681025040629857 -0.41613870308107687
P 8.380693302362591 1.6866264789982004 3.6751517886484386 1.0059078592985322 -0.7932616870205886 -0.7933953843849756
P 1.6504066882643451 3.2004219585555815 1.6698960836529793 1.5364655381528378 -0.5485476876738231 -0.05346840423178534
P 4.791062373748352 1.0574568723768618 8.087920882018091 -0.5915213630218716 0.2281136717859233 1.0933611051161942
P 8.583601925227503 1.581965395384138 12.574037765394335 -0.8332695948720938 1.702241528241804 -1.5282750319222451
P 6.355931014765111 7.517669042881204 1.162261785829253 0.16902252205072182 1.1387045662480002 0.11309845718959231
P 1.7975201889398418 3.2954220190668075 5.842856511609882 -0.39430849457986283 0.37149843866388277 0.8895389588877841
P 6.749472971777194 3.98817526931159 5.804621293959067 0.2480021831797342 0.0540211914114618 0.8101972864336626
P 2.2619367864114035 8.282481946718868 10.190420935756812 -0.05067387220578369 0.20366479471493956 1.0097971670506094
