# total energy = -340859.8635884399 ev
CRYSTAL
PRIMVEC
9.31659877520347 0.00000000000000 0.00000000000000
0.00000000000000 9.31659877520347 0.00000000000000
0.00000000000000 0.00000000000000 13.63578404374672
PRIMCOORD
 96 1
Ni 6.935751202714907 2.5268944765422447 8.450859336146161 -0.6074064096832442 -0.18933577968677714 0.24095941740033983
Ni 5.025494442898265 8.042404743528317 6.876689557053217 -0.2968873389162113 0.05620354377476128 -0.5844757690289999
Ni 6.354954441105013 6.689010403316825 9.44620281424969 0.7496856022018509 -0.7840329693334691 0.17060683581870617
Ni 4.215388238017528 5.913450146335503 4.385622992388531 0.5391490200677425 -0.054159259651222855 0.5424690855799109
Ni 7.576537543214858 2.605275021223413 2.8743281427963354 2.6089233174574615 -2.476295274875374 -4.599436932142639
Ni 6.833557431811812 5.544270607106217 0.35928065313351226 -0.06248423457715045 1.1919701104403602 -1.2020357222064784
Ni 3.164093926551021 4.6621936774350345 2.597602802211772 0.32269735800077975 0.1938547506030532 0.0719896029644244
Ni 7.019758972997814 7.482756660918335 2.583667033908658 -1.2548955463199871 2.088463132048474 -0.12932468924046758
Ni 3.4947213804491915 6.902546845025179 8.277057256141209 -0.3327542280161495 0.3746017601795549 0.5601469624756482
Ni 3.4177942251618494 1.945138105268478 12.18713217052958 -1.239069377921008 1.100112822017731 -0.44081949365720857
Ni 2.0612788243931 3.612799952098915 7.608303418068645 1.9064025458668719 0.4955829625513336 1.7482143954274922
Ni 7.17446109405223 8.14168241904508 11.419300963811837 -2.6525251133078127 -0.9929410147252191 -1.2983384479949704
Ni 6.081009173566076 1.8743599051088635 4.23791950026131 -2.4265521420139757 -0.02996157935909679 1.776759811165353
Ni 3.13509135486524 2.410464942858593 3.7940208396314574 -0.06277168391058222 0.03516163550279751 -2.3791939644449864
Ni 0.2568865753588324 6.721357633928143 12.577755724936882 -0.1834356121522583 -0.25482871918326433 0.24275841828229158
Ni 0.2132019758158001 7.990259740725453 5.382575447083814 -0.9416637046074815 1.23939333691933 1.1961818345288626
Ni 1.8547950478842763 -0.04818172172508387 11.562844594629164 1.3139645845680017 0.09541878052164211 2.278454028820747
Ni 1.3240936373680041 3.8299046511010864 11.108828107834597 -0.14642458214554782 1.6697155305896405 -1.09814309988587
Ni 6.364559854342418 8.508001762480108 0.15667351333476012 -0.8504401931141096 -0.5436026849637219 0.8696054531886508
Ni 1.659807954144567 5.907701804950945 6.836273220326558 -1.9874910258087706 1.1912471162314064 1.7129177770087274
Ni 1.2031641865226974 8.21680215418882 7.595704581675879 2.1879884785393218 -1.0562150921935165 -1.7413783463422654
Ni 6.020777363110382 5.480712770922342 2.6783274031204187 -0.2354873385421751 -1.329812864454168 -0.7874314534920568
Ni 8.688790359833973 0.455907756326278 7.139724155879909 0.1467122885892957 0.8406100943975652 0.5117330899486348
Ni 7.884162314976121 4.130523340656211 4.220411748024908 0.9020157511985563 2.8435159120995093 2.8364736605407472
P 9.20116602074988 7.264832101232468 9.5592848940282 -2.141225254241854 -3.3719004945618964 0.3262642494164317
P 0.43328053311610876 2.968696902469463 3.4254860090307155 0.5464509530457944 -2.589794824158127 0.6066957567694647
P 8.496542346105706 5.983827732751947 1.7044726598685642 0.40366833852820805 0.9853603741644835 -0.007789671247747875
P 6.896202241325206 8.311393580570359 5.712833963674319 0.2859061573143592 0.4393516508624304 0.6145296509915869
P 8.932950461398145 5.5189108255036805 5.915707558195273 -0.31784568633543325 1.091031428541753 -0.7390669461457401
P 3.714453360278664 5.701208711843442 6.435244888515249 1.1949883284413936 -0.4030538448726607 0.8453632928118344
P 6.937437507075693 0.5136361967170927 2.325569300721637 0.7302537187294843 -0.8491374151422859 -0.04731446881524755
P 1.2066020114350176 1.808920115991958 10.405125844799713 -0.3539930827902678 -1.1986408375923163 0.3387289575423457
Ni 5.246800927904383 8.647676209866304 8.973545676819429 -0.30087563413999796 0.5892929879119851 0.7076195262697361
Ni 0.48093586701586444 3.4711131193981886 6.11376726617911 -1.5957857731797096 -0.6392063278026604 -1.6492168964156564
Ni 2.6955901288115798 6.822861976529039 12.563792938497599 1.8693467786651548 0.41066071068564114 1.2593348130382636
Ni 0.9306518118604945 8.870287018687394 9.60177324230093 0.512115412988718 4.166303237165463 1.026603954195303
Ni 2.313497783814067 0.0871213775612198 3.3450483593613622 0.9938293308674432 -1.2710153346999853 -0.4574792137010767
Ni 0.7904379334108194 4.874369895736345 2.823357031426946 -0.3537408575701456 1.4019117393029468 0.2418929849582028
Ni 3.0460339880986536 2.8428948705153663 9.735894996874814 0.5254401551220821 1.5478349563320442 -0.6065538318749618
Ni 3.6832520713047865 4.355733480508569 12.142719944629766 -1.9429839445353312 -0.15275798056274337 0.9052175459653056
Ni 3.785417892411846 8.605798098807009 0.6817672631065183 -1.363316138417936 -0.6818352182167806 -0.9110794040627211
Ni 3.207024813260973 0.6927235831522872 9.664416188494585 0.22204509699434016 -2.1321083795422506 -0.4293647148530476
Ni 7.027370634118046 6.3806496202599705 4.776356482660237 0.420657673997353 0.25654518765373885 -0.6815745083562261
Ni 4.472572944534069 7.261515392102966 2.4576451302257514 -0.8656909486255929 0.02005023378265579 -0.4303072812719751
Ni 2.4643707828116708 7.898565776532887 5.446841344767243 0.6318020649187894 -0.9913420456692151 -0.564393396456828
Ni 5.436906123936624 3.016556269880275 2.108187898738718 -1.3592378545835044 -0.027921923221248687 -0.39601570707895667
Ni 4.851050449244372 1.2681101959096492 0.22840573319904017 1.2868379035545388 -1.1104609980212747 -0.12145222847092631
Ni 8.964925028062327 6.9673717386293115 3.601783074161737 1.7902879275587749 -0.8162463208412201 -1.263830644026088
Ni 4.8238646143008745 8.401522356184959 4.6046543639973905 0.4141481550136093 0.1571136864282778 -0.36996863228291765
Ni 1.3868409294668593 1.5635302234022403 1.3562200645906446 0.7050664208305794 -1.361082878212043 0.6905360884248881
Ni 5.842858278149455 1.1241221633353642 10.32194725179918 1.363640354526574 1.4435283864024686 -0.13921212355750864
Ni 6.184479318488108 1.012099380826584 6.630277633588482 0.9390170110132536 -1.0836212521206112 -1.1186386487360604
Ni 1.872627017754686 6.673712548286933 10.488699461584206 -1.0473730684218543 0.6083119522166492 -1.6018414924554862
Ni 4.625309263267347 4.454834140650442 8.175061928789964 0.3285625585323051 -0.8066280810251656 -0.9494572325099712
Ni 6.038553433388722 5.831547927353909 6.6258187094610115 -1.5764346223466077 2.5230322739205966 2.2569449511043773
Ni 3.2355895048088703 2.7739240904993565 5.917834537673546 0.9213414481103617 -1.0490429999251096 0.944902009039121
P 1.4389952488684024 4.673867375579038 13.053044801493783 0.485756463379215 0.3452572455791667 0.9019183063887434
P 1.2231203408917766 8.550429552861425 13.599389712850915 0.4898131499470919 -0.09644053691793714 -0.12683071917402028
P 4.092511618048441 7.6930043432932225 10.532115743085301 -0.8775316500142629 -2.181134945952598 -0.8333891511690937
P 4.930390603589414 6.658163145092725 0.25918498025278747 -1.329931135199587 0.5400355364377538 -0.14612067775188384
P 7.994973939656711 2.245570462850035 6.150242681664816 -0.029160166503723974 1.3208692821076349 0.9023823905093554
P 5.548043829570958 4.037599585438099 4.114038550954694 -0.34830837370066464 -0.6709321981510317 0.7499478547243019
P 7.93077325816403 0.6736208292221473 9.201522846479262 -0.8131545692897737 -0.10190747356977932 0.19923195575456654
P 3.435225581289089 1.6404387454922256 1.6047002729619793 -1.1715203272264405 1.1922231069914306 0.7893222427568665
Ni -0.12531477384321787 3.2296082484573536 8.430677720089065 0.28253672662149404 -1.039460755553313 0.324335407824835
Ni 1.689108656988056 6.267816293666172 1.0906783690596018 -0.2986200053366019 0.5554649836189466 0.004163130238754121
Ni 8.202417325829408 2.0604496471107248 10.869070099145956 0.6100579883734782 -0.03420878467122496 -0.0813147370200922
Ni 5.232462682538364 5.997821263966866 11.541367971355774 1.4489122764222016 1.1975694589050085 1.241986551567803
Ni 1.282541607262452 1.238241180546779 5.114863915720577 -0.17921591764395586 0.1584959114877851 0.07038909124652394
Ni 4.508190301281496 1.7527596591587138 7.834275655692894 -1.646450389414113 0.24433630429237274 0.8195414466527241
Ni 9.332250564154615 0.4425468221616205 2.9513698922474214 -0.6317120763081443 0.17298176380878597 -0.640887057939193
Ni 8.573935331326966 4.968793623341675 9.890647427562094 -0.21859956164790093 1.1744135896138357 1.1470367402627795
Ni 8.277658176755963 4.013022398124546 12.351538460767392 1.0657891090351967 1.1401631530713978 -1.2367070483364184
Ni 8.826368572517536 9.240575233159408 12.110921461680604 2.6976528588843864 0.8314819068440519 0.39559456038113805
Ni 8.498787646387195 1.2533247538070682 0.37010374581818045 -1.1510466327531208 0.21165578334021612 1.9678657953786756
Ni 4.445088978432863 9.329176086590753 11.71686101402085 0.4713572572347495 -1.1025844234866753 1.6403450478473236
Ni 1.6682394759484962 1.1516527124299623 7.58652773197768 0.935740397144511 0.962823112293916 0.0984223432346563
Ni 8.064690047566991 0.7478005195592364 4.75584785398953 -0.2896221727133657 -1.9509535930043693 -0.09002229209641915
Ni 2.0450120431006575 4.773117101299766 4.971688290551046 0.858615015615418 -0.3841276973921191 -1.8541518160922712
Ni 3.604424329887056 5.217080978120367 10.05540868020955 -0.40899900671250206 0.09354110388295503 -0.6368051745603356
Ni 8.552945034504587 8.251068604127882 0.998889375560516 1.8113002681443837 -0.785088664291493 -0.13022483245723382
Ni 0.799704222456331 2.226611184539542 12.774643404806978 0.9826841128839011 -0.5371924105620038 -2.0336325573618392
Ni 8.446679909979043 7.51621256677238 7.603804432566857 -2.409882908888411 -1.9148445059866377 -1.2229205360752875
Ni 0.1546424948228744 3.429020726569291 0.9808710737165389 2.052666176954523 1.4903939406057558 1.1788685400613956
Ni 5.853535100234874 3.016230188926532 13.006778572456973 0.9169170937904207 1.0010194208579795 -1.3811387684216536
Ni 4.3833199291952365 4.555891286514775 0.5898115024910898 0.5187059217220421 1.0159382469513407 0.8117867424079697
Ni 4.743182869746147 0.4853062834558901 2.7241436404410635 1.2835846867245637 -0.56900826952102 -0.12274986423642731
Ni 6.577975180267953 3.809855330745224 6.456898527163528 -0.07279512958485528 -2.4590071772188877 -0.7203521433450562
P 6.92432905273522 0.8942993754773433 12.627308849987422 -1.461584215462915 0.7513426781892996 -1.735902925049991
P 6.827101028927699 4.748055450854937 8.657672920248201 -0.6601975853423468 -0.7078285569567487 -1.6419046790249592
P 1.273327491169539 5.117272256478937 8.912279723910434 0.7345423188025092 -0.0454272790948637 0.7564892553872457
P 3.501885844832861 0.33551587322471343 5.963214758176043 0.27342679390042585 2.1114595929436475 0.895325226552258
P 4.890422395259185 3.101700665201944 10.917899324479187 0.10884430989892868 -0.25891060256212184 -0.704070118355581
P 7.555649728977941 3.5970642169311398 0.5790303345004743 -3.3150364343850005 -1.9388120725458289 1.9967156297308322
P 7.678507715749672 6.07095656359211 11.716234006929795 -1.3372924606606647 -0.4479103390657189 -0.5259124667728104
P 2.262535989043356 6.7869744384199375 3.2952641826635976 0.35760445429060994 -0.09488321973314627 0.19460062763014227
