# total energy = -340890.80187446065 ev
CRYSTAL
PRIMVEC
9.10464885578465 0.00000000000000 0.00000000000000

0.00000000000000 9.10464885578465 0.00000000000000

0.00000000000000 0.00000000000000 13.32557391244949

PRIMCOORD
 96 1
Ni 6.32520901070762 1.6179507407366795 11.267918964504062 0.7688855721690694 0.9568069880068233 1.7562884306848785
Ni 4.875730693561542 0.377070855895455 6.002344503079099 0.34683538869956393 -0.38605011122581256 1.0975224355827358
Ni 3.0773076019594865 1.5157783705716485 4.885967960805667 -1.4871044712212067 -0.30333515142408407 0.5604254129480154
Ni 3.487645024073886 4.209889508843216 5.108331711810618 0.9719122190793777 0.5925194652690828 -0.5270568647898988
Ni 4.96939021698764 4.730065415512145 2.955226096004055 1.6307862005142948 -1.3707335139279297 -1.611854396606798
Ni 7.4496786754048365 5.721953182656058 2.5697033945174224 -0.6936098422542054 0.8585880190322246 0.183067173069246
Ni 5.170885202206167 4.7304569154156475 11.595794670897407 -0.6799410865178613 -0.11670571492487641 0.1456655924923362
Ni 5.662326836887853 7.870896152977017 12.528971109489436 -0.5596214289894813 0.3929393821464781 -0.012093183719108206
Ni 1.741054698765675 6.755303520975478 0.38061802711415904 0.3015040117526162 -1.0861455612043618 -0.07783449178097562
Ni 2.4838392714954676 1.4606406167203358 0.2883870231033961 0.11190032311643311 0.7578267432517465 0.06384614792168358
Ni 0.5046024046935873 0.2954376632259946 4.725088814413214 0.4459652995242061 -1.3656352734694157 0.4169642843061657
Ni 8.494009220320143 2.4121674752078963 1.3180618146543597 -0.17646200904790255 -0.17179082882447835 0.4691795328571403
Ni 6.947539078243742 0.9856237686878848 4.722757113825149 0.689586065806793 -1.445974019729484 -0.011434467089186759
Ni 0.6232314277790687 7.649644079605031 2.6486980599302594 0.6793579603208816 -1.1436261719193337 0.12436914500740516
Ni 7.321175660567085 3.4939909643701816 3.7733625641143353 0.99182721283575 0.8573184082911816 0.29415374203513206
Ni 7.6844875710166844 4.02478289167825 12.722258253707805 -1.3107905577153942 -0.8305848489510792 0.10489946631856771
Ni 8.02908032328955 9.089307585216808 6.9877579543769635 0.4440863373339384 0.08390409501382323 -0.29977957286234175
Ni 7.208806083613172 0.3268760159420748 0.437418289858016 -1.066867686811356 0.11619766494020634 0.13381100714659538
Ni 1.7760620738578639 6.593841677052232 9.305848002773397 0.2678762963958419 -0.3735211255208664 -0.8055978399884385
Ni 9.315603634089722 4.837272656529187 1.385367021320549 0.36344934310716115 -0.4843081609684627 -0.6097697677090982
Ni 6.533514273317292 2.035125754188981 7.267634862136102 -0.2944231936464349 0.3540213649250419 -0.863385697531184
Ni 3.1016352238701055 4.420571084820655 0.4180681795112204 1.3551801395743628 0.45740927969508965 -1.6857324748431868
Ni 6.375339207653678 5.6921991899899265 4.8641140720062435 -0.5962758469877214 0.20410522468646783 0.2769903428819681
Ni 5.141113000242198 2.9913779254653177 9.488475424037814 0.07737452142542159 0.10782435327484656 0.06165402536637124
P 0.06147367903379732 5.615911336700602 12.494617448189608 2.2497816005867186 -1.0136029139499447 0.4093391636607402
P 3.840222553448403 6.417821499508074 12.84510728156708 0.45525418102529985 -1.2187496925270493 -0.7327996250797897
P 2.203188468578244 8.566755365180114 1.545952998017821 1.4656154481094952 0.35520921458555604 0.09450912422317918
P 6.576579262702482 7.869475827745708 5.7611250241636345 -0.7333750379672853 0.5795243385609955 0.07136765310970934
P 4.650244958442387 1.0215871319165315 12.689237513009665 0.08086556529781558 -0.6604454396870948 0.13942038291357278
P 3.9993900258441504 6.375849067993122 8.293930918473357 0.5938227574615386 -0.6069816634409998 -0.522598571908229
P 4.853278629328163 0.962989611476134 3.818616311099567 -0.0942656407538054 -1.3707255435081296 -0.9947634126459383
P 0.21811005903016117 5.489456867869547 3.6037147303483366 0.02022198347382969 -0.09993389478317628 -0.4685179880137415
Ni 1.4469108061510199 1.3426352620857815 2.5488355391958883 -0.12969981319169924 -1.2411213753540302 0.2942139058491062
Ni 1.7698891218910229 6.405921723371405 4.746103254582338 0.9301130236554046 0.2116010188428807 0.511939549532486
Ni 5.9236666794486315 5.724739205225163 9.372342895685827 0.36379592781330244 -0.09546043239285495 -0.12727243469712918
Ni 8.666132608127121 2.452355395534794 10.158298071728264 0.5366069703721791 0.09988838625722153 1.5659753746864966
Ni 2.388905097220759 5.27895738487048 7.0581032033170885 -0.593367672201991 0.14872469103363417 0.07519216906212212
Ni 0.7236493320974771 0.19818817673127467 8.808017635945497 -0.7125275050943147 0.23981527649356763 1.0236543846486756
Ni 1.2923229721613512 1.0061274380526726 11.57773833116195 -0.33225929065760196 0.6615512711567638 -1.5416892484456224
Ni 4.107471313157381 7.042282054891159 1.6359406165350299 0.44588662376747085 -0.22629307363741671 0.030564245940102198
Ni 5.935238688224229 7.879436313662706 7.951489594739967 -1.1799607446843097 0.06567883025504818 0.012744187039545794
Ni 5.421381407904839 2.6993736253465443 4.957486798991404 -1.818980410397461 1.0979448678321349 0.4817990213933638
Ni 0.9503705680748924 7.534807142794165 7.199328144088862 -0.6951795007341705 -0.3400939562106723 -0.9989121447069893
Ni 5.330635372132708 4.723464545046127 7.148783685617007 -0.07733055556136359 1.7523996371534334 0.4736877051401391
Ni 8.299761535640856 7.390161585423656 9.214034902147999 0.394204879122463 -0.2615045885415432 -0.2581269303185619
Ni 4.52056744389413 0.22281443112642493 10.342138232228647 0.15114024245366228 7.893286705147696e-05 0.24080129455592073
Ni 8.44324169794978 7.216781756065905 4.720038465658042 -0.20490766598310517 0.11922436758167208 -0.1296126527945316
Ni 7.642069011704718 6.444980667232391 6.932230521551934 0.02014587882025563 -1.2697598650263293 0.7123207884001473
Ni 2.3358705172696537 5.433481486317718 2.388075663704271 -0.13373618804460194 -0.12687648481029118 1.757056933419787
Ni 2.3257006244275273 5.246071392976335 11.53183178084925 -0.3947736071417394 -0.41630685322782496 0.15701495606688445
Ni 1.1816832785019802 3.3747109588870168 3.799054972897859 -0.05954674921538131 0.8151996247442606 0.47756878536210007
Ni 3.662308608929166 2.730984966392079 3.106724722615628 0.2947047294425957 0.43540346484795983 -1.7384416323114447
Ni 1.258826968789657 3.191980655089817 8.177944974968959 -0.9701265879338647 0.8104721373616041 0.018076397885736614
Ni 4.026785914440352 2.9421035655176127 7.301708100249239 -1.7002378675482137 -1.5491670448799062 -0.34867784122494144
Ni 4.029562832360539 7.215124709962711 6.101127212451719 0.3798804920799909 -1.4017829270345665 -0.8153970854670474
Ni 0.9854598850073492 7.323524659988095 11.373390859437212 -1.1235569119732844 0.24347087096828393 0.8066357943346495
P 0.1638263212474176 5.551350271218493 8.035134914820448 1.4817000123761837 0.5921253151544577 -0.790712952456806
P 8.510051611714795 1.9366225575381637 8.11640756339273 0.27033864189340534 -1.758510892257494 -0.2937559923760812
P 1.8917730569649196 3.285348829750519 10.412363299803046 -1.0190883625445482 -0.30242986600099525 1.2098459622795166
P 3.8549993986433635 5.991851395200363 3.967755923176319 -0.9598596587902178 3.086481047075968 0.9017496420213632
P 6.860371169496638 3.7955642505024505 10.585635694303557 0.18653224879971098 0.7189110400231554 -0.392749120512543
P 6.516643358871043 7.699983683476217 10.385592900587554 -1.975833129854868 1.0462800924679916 -0.8900935458396734
P 2.2272156370745475 8.374210249848614 5.632320645446676 0.4745379689555762 0.9723462212930026 0.28975715562933324
P 6.69616882624888 3.7917949258501316 1.7159877793628622 0.15745435759714818 0.9397250928238718 -1.8146627568587133
Ni 5.169382935134591 2.9723583138742686 0.2680709095063322 0.25788241840792364 0.06674043875034312 0.07670500616222273
Ni 1.9820729649400382 1.0117267971376391 6.902447394009263 -0.606750264156484 0.5648335693180402 0.1755299841519364
Ni 6.92572433943467 0.5473578360155429 9.304715384447917 0.28750101260530486 -0.02636692002930298 -0.501494185829446
Ni 2.67971668833119 1.6085547430526383 9.272747141164771 1.0340786653057934 -0.5622953762772187 0.37099038867921263
Ni 6.095862904446959 1.802201520903293 2.27888634061764 0.7964570540294348 -0.1911088124267999 0.43371810672573696
Ni 4.095243769659642 6.888959767101183 10.553600987083307 -0.036965521480755686 -0.027069088302650157 0.17012038310059088
Ni 8.160405779292082 7.12605392959161 0.278350968600374 -0.3994278180842992 -0.11531886187967881 1.049173611965703
Ni 7.673197806357565 4.03593608660359 8.411035823329858 -0.660897696733165 -0.09195344768086099 -0.8520749005040551
Ni 3.02380868491353 8.444962476595403 12.405669580578909 0.838848374511452 0.4362660699585712 0.053916804623113594
Ni 9.071380531495997 5.084245363096343 10.087593189155854 0.6475922378735105 -1.0719443300033151 1.347828584305298
Ni 8.771118314808014 2.2889724706897145 5.860707121711312 0.14798318488191933 0.6246808804929758 1.0264093216859937
Ni 3.666933770579838 2.660068855964755 11.643806216040096 -0.4615482415641277 0.2941784246254805 -0.5762328122939172
Ni 0.8595617102252218 3.282216830522505 12.709532685914215 0.7884915193254549 0.09964104613310582 -0.46030974117133633
Ni 3.1175319408820594 8.34158829277311 8.16776415654813 1.0322022742186867 0.9528644584193073 -0.1238901484884576
Ni 5.896298104799186 7.894923321473319 3.674993205802622 -1.6379369526264629 -0.06365254385363876 0.428023884554437
Ni 3.2381867483519393 8.355454673076208 3.5690551528448395 -0.03678065916345923 -0.3518564960632392 0.806404909270766
Ni 3.194193084777048 4.609037317436601 9.29157646559342 1.2259297552152564 -0.775711079731335 -0.025300940658633846
Ni 7.406540848828298 6.136114557316288 11.438273319026148 -1.0916448937560361 -0.7278921604758432 0.2531757569608737
Ni 0.6168181130807755 8.873882487152757 0.19779940822244854 -0.9997410683661878 0.9827378489399721 0.10740757745240212
Ni 4.257798171453125 0.4180827469494902 1.5208878995447919 0.4769841165032237 -0.17219474913111635 0.1580246282783214
Ni 5.941602837818362 5.632581948870641 0.45515505641642784 -0.4394809773514431 -0.6007930181317847 0.40908231045492777
Ni 8.082515507793076 8.664812434033918 11.53035227539997 0.09504982721799758 0.893261916265326 -0.1914659386559025
Ni 0.09684341915294836 4.658921688861856 5.732288780108504 -0.2977702557417969 0.6049319800008227 0.43520626123548917
Ni 7.788699382539492 8.798477784808542 2.64716483705236 0.3805330380623253 1.2748496208444107 0.273589030509903
P 8.658530226280053 1.822058760194857 3.6642934223934307 -0.04495933831950967 -0.6357273681151244 -1.7149178381578918
P 2.10687949231682 3.198718095289614 1.693813406921503 -1.4552893835931389 -0.08230795417129697 -0.18426505003208912
P 4.843117841134958 1.1082087617285172 8.294290552105643 -0.5926243662780633 -0.626567041772095 0.038201193660069695
P 8.30907559148463 1.6337564112594467 12.503692962231712 1.2157173334586289 0.26765081064859714 -0.55853899455858
P 6.367582046774992 7.463171765102269 1.5707786442242895 -0.1324742906130428 0.5268804871130345 -0.7280847361026236
P 1.998761786407914 3.1677804982640594 6.106417923938344 -0.9552684398751096 -0.6886671535369494 0.08145691902491134
P 6.845211929047094 3.883815612470874 5.998400369167543 2.048945790680142 0.29386809247391327 0.17359342925085586
P 2.3702860901821308 8.52674043318267 10.251070802349687 -0.05005680744707509 1.2346812761556414 -0.03273014324316944
