# total energy = -340867.26484280603 ev
CRYSTAL
PRIMVEC
9.22698892515549 0.00000000000000 0.00000000000000
0.00000000000000 9.22698892515549 0.00000000000000
0.00000000000000 0.00000000000000 13.50463097029451
PRIMCOORD
 96 1
Ni 0.11951072791845174 2.3806277169349057 9.301368548232759 -0.2639954732841969 0.549011771794435 -0.425468465122435
Ni 0.0055417295142810245 4.822190468355846 4.514854232336068 1.071671793068219 0.1153420018081304 -1.0401071308880603
Ni 3.3194922882587865 3.4983482404812696 2.661492644590512 -0.434991831231838 -1.2566924903194099 0.6077069716427985
Ni 8.954838831597245 7.198850580077396 12.097434980069169 0.4318982799081788 -0.6688845715933834 -1.0423943842603403
Ni 4.516241971461856 7.3220585624353625 4.201398657298856 2.0401181650861835 -1.0034997640776717 2.10118675026273
Ni 2.656293236363244 7.876333010741016 3.133290730198276 -1.8813977962924178 0.6714299637230565 0.0744329222985944
Ni 4.1063791259334455 7.020216075587752 11.473669310499938 0.5738661118339536 -1.151190871640469 2.934983421282887
Ni 3.7472739461693707 2.4800023870461385 11.302633231343313 0.5748999524151067 0.16026611601433044 1.149331449834227
Ni 6.854028779081399 5.718896927540616 8.235082951433663 -0.9582822870007689 0.053082224536960196 -1.0745072056344849
Ni 6.0317379851192 9.027076927446906 4.99082568500895 -0.17704050725919188 1.5290129385295343 -0.3331506921236198
Ni 0.08046118832905994 6.506429654436053 6.988295307597983 -0.5470389643387804 -1.2989467710029308 1.275499595723584
Ni 1.2380312313996944 8.334978946415951 9.19483096666309 -0.2476676826584509 -0.5307273716629505 -0.5472765342708833
Ni 2.95768360075631 7.9424259320044115 7.4293158491367555 0.2265033898760099 0.1571576522923358 -0.7306257573569224
Ni 6.59279427024303 0.9766214097728284 7.411449630591131 -2.058285322913513 -1.4861739889871373 1.6046511939901398
Ni 5.546010837115901 1.0021155800158494 12.159259496282104 0.18148491618379065 -2.2362126036530325 -1.1251882769291204
Ni 2.041720415803467 6.59779529820963 10.643688744014925 -1.8508176095127158 -0.2337040213895072 1.1221263501743448
Ni 0.6537303159189274 0.5693328941386648 11.025882618024065 0.2583179632834455 0.22161495143545706 0.45847525906575876
Ni 0.3376985655896957 1.6090669077704378 1.1993378535806178 -1.33989415994957 -0.09449138361136629 0.7757347338804188
Ni 5.414553926709704 2.814360782665522 1.913836195487063 0.19856372604294836 0.8504419928863224 1.0074158113026264
Ni 7.261594104381611 5.0771690787415285 13.38658649789572 1.3019647318936483 -0.5321674465435868 -1.9468089747083763
Ni 5.905595820301125 1.7038742183918791 9.891075556491446 0.4286779731986682 -0.048781026058445025 -0.3486423600013157
Ni 2.468450196983069 3.6943387110321244 0.46641321490424353 -0.06335918098293605 -0.7455448405605999 -0.7210453127573389
Ni 6.535310129593727 5.8388201018614785 1.9626008316558532 0.363081161134465 -1.3886420187772344 0.6059959024889627
Ni 3.8842947308631324 6.6890409911279205 9.17115728132378 2.9960743750569367 0.44522147937964607 1.687922026295338
P 1.7592546055792162 8.18311193663315 12.393618554643872 -1.5433882334146 -0.1546459416140756 0.5306427823689441
P 5.3531390888025205 8.444623255137566 10.607860346239447 -0.6535517978910551 2.0636445303428976 -2.2841101986652594
P 3.1448622969379696 4.768175675521012 12.308052996072886 -0.344827871351232 0.4614235430608053 -2.2419009122870612
P 2.2985167429961995 1.9080305740911498 9.914938395102554 -0.3157970313365206 -1.2659806004895553 -2.2321870274334072
P 7.667729246407241 1.6977936327276912 11.402459101210201 0.42681726584084556 0.7333719526434918 0.3051655197646035
P 8.039060186421768 7.444546839661603 8.798928555292369 0.0965572650014595 0.9893772086333605 -0.270113927477109
P 8.064120688187982 0.07572774303963907 1.9767264289142827 1.1434027430546179 1.7602114198883685 -1.2705018853986765
P 7.959505088399572 3.6472533868373587 1.461363115364997 0.20505139064982106 0.27554821111880284 1.4243775245056307
Ni 2.892319611613508 4.385643171020408 10.05602090029613 1.1370243503320998 0.5360549545234511 0.8031864023334683
Ni 2.0399672879184965 0.9125565806626785 7.7699707419598445 -0.23530067645266575 1.5247343657588386 0.12593854637705407
Ni 2.4788028784932643 5.692507739377372 1.8051505709088622 -0.2830434910545835 0.4133925077945074 1.8526891155038159
Ni 3.0556742225373026 9.178537949719505 11.165993521289808 1.1006560961157108 0.6464902630585834 -1.068362526189328
Ni 6.246763733705289 9.168111452298364 0.8175545805761171 0.0636232332776001 0.5686598850426658 0.4767866557804369
Ni 0.6631270813823701 8.617813836194934 6.58153549842597 1.687613493915984 0.8016871920801225 -0.4053069025728955
Ni 1.2534956647429096 2.981729133747013 11.391777016197409 0.9978865316559525 0.6926058264697232 -0.010733841477736355
Ni 7.984085786744635 7.316697681902899 0.7669620779125236 -1.927507960386919 1.4720228942977358 -0.942670548605441
Ni 4.283694171014928 1.8316311062619008 4.223154974351343 0.49447790241261297 -0.17639490325539298 -0.1411859594544278
Ni 2.075887955582659 3.470999445475727 8.094027204507807 -2.7141809384463964 -1.7472044661057395 1.2092561512143174
Ni 6.010746585443893 3.3213376860324395 11.919997216035737 -0.9468020542753114 1.2080305063373324 0.30680356958865873
Ni 7.379256666429748 3.664572444943096 10.1625723223491 0.969299464046879 0.5311714011789045 -0.023806615501294485
Ni 6.714636658248492 3.356981544030554 7.887595473353622 0.848107688326191 -0.034177931433289524 0.6128494350756865
Ni 8.889945418886725 5.4737081523441615 9.344988215408605 1.7949804479384377 0.11303675071372145 1.6748574798018963
Ni 7.018610579524673 7.5759576151234596 6.555647335758274 2.3825893632797808 0.06734413377261304 -0.5529260192471768
Ni 9.1754284544709 5.572916736655766 1.2931006690621711 0.4645458907398709 -1.3920664710777508 1.6162229579881393
Ni 6.8402528847010755 2.193873462241186 0.2840888375661789 2.09333742942164 0.013213156256164342 -0.8158040910974788
Ni 6.723716015294867 8.044282662121207 12.204458823952196 -0.5161448458630853 -0.7502070219229596 1.1477705331050103
Ni 4.24018891850105 4.77612011293659 4.439971681476762 -1.460256240680111 0.7311582328216246 0.09248772291777621
Ni 7.246037401149713 7.8007455179321745 3.160461444318661 -0.45638623774721393 1.04406534420486 -1.4580795447437662
Ni 4.932609844142394 6.575890426636365 6.547895742410043 -0.5791309597773188 -1.2387245929870794 -1.3850131637753953
Ni 8.518983558426928 2.4252678890795805 3.516119421041551 -1.823221445062002 0.1309714808152712 0.15633361372914364
Ni 4.029361449850023 0.8384684735449306 1.7108608943629307 -0.5358600649038255 -0.3029705689958137 0.407333188974305
Ni 4.55646241593863 2.7747308654763163 8.120132201413908 -0.4304461208426845 -0.8388020946545489 0.9616689440848146
P 8.066187533694473 0.3595812923896772 5.95177413149014 0.43485967652934787 0.19209354493757239 -0.6231754995920429
P 4.496376264428477 2.1736848105974187 -0.020288303123544984 -1.1448201922274348 0.7026968921571382 0.7964010039805187
P 4.497880263614005 5.155109453711778 2.182551024200936 1.3647410437899206 0.4181986709338991 0.20781429810693888
P 5.002771867496694 7.5773047554982265 13.574854901462725 0.8854725021278944 -0.9473556127859362 -2.2096821614626716
P 8.930498034962758 4.600973410239149 11.556655002983357 -0.6717138135120625 1.882551964501519 -0.7279502674072882
P 2.1381885844211963 3.7879003781563494 4.483672546154647 -0.7300847972517878 -0.5659044337847158 0.39756608228521206
P 0.6156053206141358 6.513285307165175 3.1796784940346003 1.3637285433650064 -0.849369328647434 -1.9676256543434114
P 2.1094741950631497 6.140413460009646 8.464581232059627 -3.2728454028392475 -0.513829053245715 -0.5233807014898921
Ni 6.804673615625039 2.442171732686245 5.770379834629996 0.919916542738377 -0.7672670627290399 -3.0226770652461297
Ni 1.7601865314549112 4.963123496329752 6.3284050539106005 0.1790711645359755 0.5663034689953472 -1.278430396217134
Ni 0.6951004432086881 8.134273484553413 1.6333578786650371 0.9468285366378726 0.6911323272479903 0.3514806007810592
Ni 3.9577600162322724 0.5042392557697032 9.00618425655249 0.944464150170754 -0.32019567462484855 0.17593081913478087
Ni 4.9681152973074845 5.260915335064193 13.396972396565843 -0.7790547993925873 0.3290968337692203 0.5156563362624409
Ni 8.526116020822098 0.2666295292296445 13.004594694942798 -0.3215951260755365 0.146830816445031 0.1967261586135773
Ni 7.77872992249249 4.614186458298508 6.16711913389107 -1.339532662845093 1.2699827796704128 -0.9341805088565589
Ni 2.242010663166934 1.1602569422290738 13.297915134871678 0.058728881299776284 -0.2851343121453412 -0.05262019729887712
Ni 1.55012490287995 6.161838528161762 13.32192652800357 0.36493466940343605 -0.6396210467425759 -2.329350044339666
Ni 6.362968431512241 6.488510842053879 10.444076680333277 0.5620801749426191 -0.4761780756621606 -0.17831705997877034
Ni 0.3901576881013396 2.011243671571582 6.123607422484985 -0.3459604422937783 1.5357695405270777 1.2276359392730858
Ni 4.999357881615436 7.5968106099657415 2.1093016503713136 -0.6943215236092494 0.08668885684781198 0.38591204298605153
Ni 8.743550013502805 0.48681870078641554 8.153961110701633 -0.2663313205062252 -0.19137929247936716 0.4940117614094718
Ni 2.8143238747100487 9.253654866096065 5.3128300652326095 0.5356368931494259 0.46214242350470086 0.2612911869791565
Ni 9.102701328211221 7.548415053351683 4.735465999983005 -1.1256803860741904 0.06593439790927999 0.676791485145286
Ni 3.7189009553994503 4.930376912836273 7.671278869024863 1.8274917903025816 -0.21114156270795895 -0.9454625095282815
Ni 3.1907296586021237 2.7717320940941295 6.282677942477243 -0.2782188159724306 -0.08475950103558307 -2.4956510536941665
Ni 6.510258854816383 4.124870011625452 3.929253234123762 0.8119482076864983 0.150161937700793 -0.4769262666820947
Ni 3.0401636542497465 7.807665759583374 0.746755894989906 -1.019057766416929 1.066937363707027 -0.89810047530455
Ni 0.1423060039175048 3.4307144120768744 13.232687705164127 -0.8440157776450045 0.29732854021868793 2.0857976694011686
Ni 0.7379699561895424 0.7410969827169981 4.350003926516727 0.33931054107742853 -1.3023431982789893 -1.6175185368711111
Ni 1.000851482540897 3.6091274688336807 2.5450960254151007 -0.27326944238695516 0.23400946844506795 -0.515770236132486
Ni 5.560091222128875 7.918786386523911 8.235218588170026 0.5639264841227385 1.9278470888938928 2.0246748339479193
Ni 7.68497448860203 9.132116968723256 10.220021400440702 -0.6461861015546032 -1.1488267422836667 -0.32751149155997145
P 6.365201362818361 1.5650726248465419 3.5209405227252204 0.1484981768451249 0.3233121087666432 0.15558876514331915
P 5.4128284797913375 4.686184652437594 9.538914608549629 -0.9030051116950191 -0.8260165128541064 -0.06944061129032558
P 8.974630722719679 4.054375816671894 7.722069751949125 1.0558157998725688 -1.2404526314217799 0.7192648238181484
P 5.507709606323726 4.117543782464048 5.950815447346726 -0.1788467072299952 0.41889415433902694 2.1330465750858036
P 1.9408509734955748 1.0571361146373244 2.390873365374229 1.0745097767376461 -0.7069399837042083 0.7354121230019722
P 4.574916393675164 0.9887272191679944 6.3886489869304 -0.6507408108048212 -0.0231772094474117 0.48536077060269317
P 2.7765762632499693 7.0736495681238845 5.37657194973237 -0.3483361416148065 -0.46917567620239836 0.4392192390496242
P 6.885077596623116 6.474061377486173 4.597692292997594 -0.51282323768902 -2.1528103879762925 2.0562739489104396
