# total energy = -381171.2174976762 ev
CRYSTAL
PRIMVEC
9.22088175020476 0.00000000000000 0.00000000000000

0.00000000000000 9.22088175020476 0.00000000000000

0.00000000000000 0.00000000000000 13.49569250243439

PRIMCOORD
 96 1
Ni 7.532676520125021 2.3292500260647695 10.651272741772056 -0.9019627864734336 -0.6250063821531946 0.34619852644651344
Ni 7.526738272352657 4.551888218676015 10.492023505510243 0.5477416468327599 2.014976118602917 -0.4009159725940515
Ni 2.01593368901951 7.2048649571509475 7.208211215095965 -0.6084981000855263 -0.8396790979428636 0.23099767820193767
Ni 8.848736072234315 5.599647777877751 1.5990096817571182 0.35980943236172874 0.34377629015826605 -0.2645767997089637
Ni 5.9252371083780035 0.032949898431311395 2.0828708350659695 1.2707957624900112 1.1444772070657192 -0.41420934726884795
Ni 5.604912901290825 6.293113402052263 4.752872087301951 1.1998641684764562 -1.6090624356839578 -0.511825392552125
Ni 0.6330006149470319 8.773060296663214 11.961015989961988 0.14822641124097696 -3.170070181952534 -0.2558795290452819
Ni 5.188359573470124 2.8064029879848094 1.8947408754379755 0.6046784692291199 -0.7292689862187117 0.2908190212349443
Ni 4.832857702948833 7.232232533840973 1.5515461156337251 0.5298480543817907 -1.4153637510427948 -1.400606647338278
Ni 2.11469855220241 2.621007941849491 7.469609378100396 -1.4238604756598963 -0.3581053051864284 1.3393220894961837
Ni 3.8801469916314537 7.649560415718938 8.533137566984614 0.12480186166944957 -0.00964420795798339 0.3415296602159344
Ni 0.28169147930476895 2.9179387722309453 9.285535689859021 -0.10426440383773011 -0.79677947036586 -0.39270464042785275
Ni 8.359273233332745 0.07521012104857878 10.22140814922436 0.708285184878193 -0.38514148336861415 -0.32716182153003653
Ni 5.358853674884728 5.3214445580951635 11.905764467210428 1.7035291367049759 -0.2509075297519872 1.0793493642181347
Ni 3.545548859774679 6.696379439438219 13.025839712715797 -0.26763589825026163 -0.031336862440068614 2.426778141981853
Ni 2.7099802287369714 3.077589116843842 9.863852788363156 -0.06328307632936198 0.40135717389652814 -0.2811632433127352
Ni 1.985606209324938 6.390255390067561 11.42145794531865 0.1896024030846025 2.2332452934945928 -2.1082284876008592
Ni 0.9479435155125474 4.334321516519303 3.169139562236219 0.997467956061295 0.34512149133225084 -0.010340976914691869
Ni 0.9887551376250969 4.286732546405687 11.161572006902212 -0.12364769346034833 -0.4442218344705382 -0.19534958998102486
Ni 1.2412413185301645 8.463312440810354 2.594007356248504 -1.0336598326008197 1.0695848286322032 1.7367333913710863
Ni 7.117275802508583 7.211236586360115 11.202018482102051 0.6429681088379379 -0.9750294245521207 -1.3097299776613636
Ni 4.801709564788825 4.731981257871722 0.7121259223374516 -0.6822087995061153 0.20280038983211524 -0.51812562373854
Ni 1.60174090689714 8.211840556885036 9.628906568502481 -0.10780249889797562 -0.17745368353721053 -0.4194369142163744
Ni 6.208982078022688 0.16360794701025477 10.969002192767398 -0.3279503788696029 0.10338251545340905 1.6710591891017283
P 5.352777113887853 6.199392361123218 10.0197419353575 0.9280330011979243 0.8498508962695428 -2.077810023210002
Ni 5.225510505573934 0.4608845604529882 6.920928193168274 0.5039189932208548 -1.0788994211649097 1.3573588923932365
P 4.995191324117255 4.08674084464358 6.027284605422646 0.9161704454323835 0.1799592235678836 -0.7632772248433565
Ni 2.856610688482512 9.166432328055773 11.874333247984254 0.4178628848610352 0.01710657777329957 1.8320061332331676
P 6.00157678742676 1.3996468441224572 9.321839222940655 0.7355936428851589 -0.3221129462522194 -2.3689000387181456
P 0.8719957239332402 6.626236192847581 4.02557597050007 0.0373766408762453 -0.48167637977257044 0.22165454642414084
P 4.526374039194446 9.012406721239682 13.50149520345846 -0.08845314783708637 -1.0164563242383398 -0.2790145724008485
Ni 4.328208071995891 5.229733669362354 3.076720509793909 0.23071948483988652 1.3240348243198101 -1.7741923075484929
Ni 8.422196529603877 8.03745524342084 1.148397183444523 -1.4817470635640353 0.4942837841239358 0.5714523601861384
Ni 1.270572943008253 5.047455281219364 8.899518233657822 -0.17809260267279006 0.11866386709251177 -1.4748037994769827
Ni 2.8573760216581428 9.48247804606473 6.974938585251882 -0.708285184878193 -0.5223872272283713 1.0911669256783532
Ni 6.612829030951592 3.73833905298055 8.281496940925395 0.9819503200416703 -1.101260048248297 -0.581660668177708
Ni 6.222324693747238 8.083034061338221 8.889788359357516 0.07426451504153017 0.03607489134568626 0.08829708187519632
Ni 8.242905707110337 3.3637868410031984 4.283235988090034 1.5618261284048134 -0.7629550656172474 1.0429672260446745
Ni 9.235635044719734 6.671335524919989 10.20336380595458 -0.7206095107715009 -1.350179858146294 1.088309658735216
Ni 7.343178181662525 4.968662847655934 6.264538811956335 -0.4267830701688005 -0.8575338667360973 -0.3539522022500033
Ni 5.073495050954076 1.5269042315547423 3.8219936574296427 0.21143569690961003 1.4767390688264825 0.08235834779325817
Ni 3.3151374695016593 4.470818227348962 12.022354216680219 -1.1465988813944124 -2.0113619188890977 0.06040884010536047
Ni 3.3441371422409203 0.476029858537006 9.788021179892437 0.6320969704513889 0.638457622562094 -1.6858093508277097
Ni 2.1433109479130388 8.314330656248115 5.015714240370283 -0.4374716602308982 -0.04332565937082861 -0.6437751781202655
Ni 1.412888030149032 5.397562935984701 13.228707407459583 -0.7049013560076247 -0.17364742241724287 2.548471025708676
Ni 9.170590945672757 7.780146541421135 5.856145042293654 -1.0825367608071808 -1.6063704906740917 -0.6511071930053044
Ni 8.583091693237378 7.828380973249139 8.397977883991901 0.29158546708732364 0.17597221389567758 -1.809711326390709
Ni 3.4328789070875483 3.4770745927598146 4.012647372360891 -0.35750443837763596 -1.1264620014352211 -0.5044144448000345
Ni 3.5638246471734756 -0.05784074631441488 1.9975786020386603 -1.431520306197999 1.3043396598837278 -1.6968848919155808
Ni 5.478706694364827 5.82300519370068 7.780658300351828 -0.24909593046454523 0.12529602769704873 0.7944495366811027
Ni 0.41847403746508494 1.6841110425346015 11.532635959357384 0.7304627494164968 1.9620589588889115 0.5077051997361643
Ni 4.765176431754502 2.075666560245243 10.8422768502054 -1.1631323602730612 -1.099338662855868 3.1539586211026522
Ni 8.786993048812347 1.3597941936998545 1.541302638226398 -2.083606575287121 0.16266315549159727 0.7753040741009034
Ni 0.4630938836925198 0.708269749638069 6.1391634064655705 0.09519226633313282 1.6213440812647884 1.5254936125223661
Ni 3.6798048963672505 4.446456658071656 7.690344375186585 -1.3349478716878882 -0.4575712591942507 -1.0389830445859463
Ni 7.37059186276072 7.817564879092334 3.416461127338024 0.17504378854413724 0.7818246488282407 -0.6702074041698651
P 3.1242375570307805 0.7236492581155929 3.9358973640794166 -1.0898636334858973 0.5404664533275853 1.1595240740965127
Ni 4.643765083278239 7.678707622564345 11.417233859442067 0.16902097938882502 0.6274193624700615 -1.2330792217758442
P 6.477973637052804 6.020479594776676 2.3812207591309127 -0.4485492582012985 -0.5484710687996167 -0.9142714286374577
Ni 3.8221568670345665 2.0721718461059173 5.9359858900988804 0.7006490084891739 0.7596303721193886 -1.112790674595716
P 8.440085039974042 4.950626803179624 8.345128400906027 -0.18112804706500418 0.13915915883238614 -0.46022206655353637
P 7.294796215728375 1.85250278293663 3.077746793919786 -1.4181749952393448 0.6247009350976337 -1.116684096112851
P 2.536692200187233 2.1472482643708015 11.788500671293187 0.00023936970431571682 0.4255707950282541 1.0510420326330092
Ni 2.401882910696616 6.46689013732861 2.3096528863278056 -0.07129771910372237 -1.399846372133486 -0.49552382717862403
Ni 6.104850661728738 3.9248313840303273 3.7109106184717406 0.21002724659785765 0.013350453164977006 1.1781432318595968
Ni 7.996532970728682 0.45656549949557335 12.83841146218016 0.10474134347414864 0.5242214522236326 -0.02947075576560731
Ni 6.74701130049109 7.187289956756343 6.586775429894428 0.9981991778003648 2.5027866362976834 -0.6169176916077892
Ni 2.8635632332346272 5.695757027150028 4.991530634108514 -1.0777956465777696 -0.2196136047347121 -0.13509578739628994
Ni 7.942636917577337 1.3836578353689186 8.096079764674155 -0.0924509561425698 -1.002740260203828 0.7801333771687468
Ni 1.3650685379945628 0.7995242047299906 0.5184219397616411 1.415610319835962 -0.44841916038133744 -1.3074434956200323
Ni 5.18978881012341 3.9360070925708626 9.986974610382543 -0.6392808897943377 2.097766411727271 -0.8605333156840534
Ni 0.5371486282723452 5.404561585144988 6.323703676873407 0.14558820228718153 -0.14722702344218513 -0.329540091954226
Ni 1.4349443790178118 1.7520320566514203 2.9272426417997575 0.8257774002601068 0.4174517654655456 0.3729158878366997
Ni 6.958685859283608 5.454704739471251 13.651702443189869 0.46400647329663314 1.964951449945358 -0.24259772433471122
Ni 3.321702737225142 5.465382520403545 9.678530587192746 0.5835167475498403 1.20127981787706 1.3502323086507844
Ni 7.908501213767879 5.754355729934767 3.8907814344200666 1.889361788334501 -1.7008225364070901 1.5474420917689995
Ni 8.975449427650188 3.0696776004017803 6.766713558278682 0.05059185401493868 0.8611771199156394 0.3302664285972893
Ni 4.067091145881302 7.674604330237168 3.607263298463582 -0.13949443068461784 0.18940417103086735 1.4154707089343042
Ni 6.734415576178903 2.2919792224997164 6.294835862741515 -0.9786137994692694 1.014117648802834 -1.5075416560296357
Ni 8.452090627861647 3.8177031812052933 12.599430184516404 0.2142896214186374 0.4907446606224257 -0.945025679101179
Ni 5.972743090556914 1.4013988116329372 13.33058616237032 -0.8104883353115202 -0.54637022040653 0.743339605379165
Ni 0.9896126796170687 3.180042332680385 13.789763015544672 1.3235473431604303 -0.853094600017821 1.2872829615117571
Ni 6.5434695592998535 7.824729504122034 13.257358530873073 -1.568955797471059 0.9600339795845529 0.9617381067598533
Ni 3.4221550217470837 2.3158428641687805 0.6091821555979747 -0.9869246333278099 -0.8054206909806257 -1.5781451772798112
Ni 1.5907496159892867 2.8571454996172903 5.316884832127099 -0.8167818816297159 0.16416467973778825 -1.4817282945109578
Ni 4.135122810577729 7.368507943511413 5.940223807297915 -0.0898374297791227 1.6077390888868441 2.7245813078441143
Ni 4.271121593799147 2.243209979536934 8.2742364187267 1.2118210837280163 -0.4024144115164489 0.21656736170922056
Ni 1.2461837110860448 7.693765322272839 0.5349217853577088 1.7959255854605263 -1.2524002907019591 -2.0331144800748406
P 6.427747494791833 3.2853448009418655 12.671956106921295 -0.8880358919796966 1.8741927939035463 -0.9770991625969558
Ni 8.67159371516152 0.5355976759814888 4.013524278204295 0.12472627123650777 -0.06461825020101773 0.0085561171001272
P 7.330010762689024 9.3993056937251 6.31213792503975 1.4893354174342543 -1.2289855113224446 -0.46429469396101325
Ni 5.871562356385878 8.945619875563859 4.719295168919521 0.4423516140310188 -1.3345902312381532 0.9389979848498602
P 8.807629381909473 6.541865125895519 12.608485090281095 0.07915218215113465 0.3494453155185853 0.38688623397386274
P 1.0568605693745976 0.6897606739339296 8.42231086853614 -0.33980162178123413 0.6724216382123646 -0.34786588684660735
P 2.8368595600222584 4.157547994711873 1.5774982869929142 -1.0321382537499708 0.35536733742997506 0.7725334533343018
Ni 7.437406371081447 3.5069041448461444 1.1620477766156523 0.12004377815917391 -1.7213121717200095 1.9439421946835425
