# total energy = -381177.6546742091 ev
CRYSTAL
PRIMVEC
9.15104405215499 0.00000000000000 0.00000000000000

0.00000000000000 9.15104405215499 0.00000000000000

0.00000000000000 0.00000000000000 13.39347797204620

PRIMCOORD
 96 1
Ni 5.599752600440377 6.65252530651557 12.367269925875153 1.7669996464547957 0.8756920257023628 1.0180015572382726
Ni 6.202632530284087 5.629127451684261 0.9516692266366259 0.5809957809001994 1.2394239330469494 -1.6331413310100327
Ni 7.2237700772470985 8.911423914038233 11.861304127526255 -1.2027291487290772 -1.0508232317539838 -0.3498430651776362
Ni 0.968180455328009 6.873605378540801 8.081303429347678 -0.09037504745014759 -1.4333840988796154 -0.9819300083266962
Ni 4.802760725243002 7.603849538793351 3.6532450121958178 -0.6912809370107127 0.8758519483189948 -0.11644886171906396
Ni 7.589720326855482 7.598633443712661 6.783783306146925 -0.621894318886774 -0.5055102489673746 0.4387176168228573
Ni 8.599199443760952 1.86316170969034 9.266384674905563 0.09026397579358003 -1.178793463849086 -0.36683162931583274
Ni 6.492592510506425 0.25125655472362013 3.555030517348432 0.5278729329332909 0.3152391019505216 2.5517890343383147
Ni -0.023918998810362475 9.216840007578615 7.623742078243181 -0.15114178511555906 0.45473481818672007 -0.8629213563002559
Ni 4.349262437675042 4.014160357394736 1.2946402896535723 -0.37940355244357243 0.37823395761550344 0.281590817768457
Ni 0.8139423540008163 4.089702225624724 3.293147770330607 0.8721783561221496 0.555538002948727 -0.2224652152508943
Ni 1.2806062485733167 0.601160448675883 0.9062644916158227 1.1667794701073453 1.7230250406460583 -0.32516664547687874
Ni 8.323871982896549 8.770223305099565 0.932874812466941 -1.6917640257492477 -0.791084991084244 0.5406613429472108
Ni 6.360314169468936 1.4865047386005397 0.10643121725607191 -0.09917181980617114 0.2514204648326638 0.528611096650896
Ni 4.3328637668248735 3.8997906094676145 10.18545879791428 -0.25061750931539417 0.015199590558573822 0.3803306922435321
Ni 0.6069100496218433 5.898616546475892 12.773627525375279 0.27220320590596997 0.23045363277300954 0.162114739187295
Ni 1.1379780767704588 3.798497703418222 0.692434791752751 0.9045061217205776 -0.6071528989115414 0.2718411945808608
Ni 4.278250336225653 1.409974557618421 6.718731279655524 -0.8405622718787653 1.3767712354815773 1.643095614009267
Ni 0.20888722099801824 3.2224943898060654 5.523349618969876 -0.5461082249943949 -0.15966987719122824 -1.262587001426974
Ni 0.5202011623971788 3.696994323356802 7.761881662963445 0.029393365560452602 0.6166639237257703 0.8437591815495082
Ni 4.364764306213091 1.7212473193195765 11.242753034830471 0.12954760388455108 -1.2040743499030617 -0.004777881004617578
Ni 9.345869727995673 9.060091774881888 3.3210602847430977 -0.4563870090781624 0.0480217792949173 -0.28479904029310954
Ni 3.529585124398668 0.6807452481456053 9.172537058255557 1.1516133038898682 -0.3404783361332846 -0.40615870905022955
Ni 8.582571996810753 8.188830026570693 9.612994193017391 0.3391166798990676 0.7438507406876286 1.0856750493258462
P 7.82091230250205 6.823677282470199 -0.29043491940600014 -0.1661230890157397 0.37521625383510215 1.1861221363000154
Ni 0.0791409738356637 5.290932318531546 9.937679639911119 -0.02808827359578388 -0.42020284584812145 -0.4608782120802966
P 3.504392300263337 3.3089900577055014 8.138787542450078 0.37883379598303146 -0.6923026934070077 -1.0810195528317061
Ni 2.7629289600653033 8.666569429697859 6.873264959703955 0.9215209111110193 -1.4604588436092203 0.5905199183405507
P 5.853895394441978 3.6291393320878305 13.015098868748403 -0.33610643231783405 -0.39196673382056363 0.4320111513369592
P 7.717908151224431 7.834574811195856 4.512075067231369 0.8468684166024512 -1.07818414026544 1.3046196530179919
P 0.7441226335847849 2.01322052922218 3.3283994220320676 0.5381622306744409 -1.1181311129720226 1.0329162695665761
Ni 0.7778753442788475 7.98858688173622 5.745534222006051 -0.503379575777617 -0.5671311071029652 -0.9494724020186228
Ni 2.325051504607409 4.767602414190353 9.234226991180913 0.3637375637715413 2.916228509272887 -2.3848496200688665
Ni 2.434964694105941 3.272303522304651 5.983750539027947 1.8613563042605104 -0.540629718378327 1.3064968154360466
Ni 8.471679645604091 2.1072658084226146 1.7237940548651132 0.5206525039254517 -0.5477709574087987 -1.2309395497250217
Ni 1.9337345610276706 2.699137032332869 9.776595642566623 -0.08809653582861601 -2.3349743325049785 0.5356728885936839
Ni 6.7778214009801365 2.1837319320967246 11.233913126325303 -0.21509797625254568 -0.09790632283018622 0.2338626584545585
Ni 8.795498488630905 5.504645800135802 1.8127138343204696 -0.30465798400056565 -0.09753968351938685 -2.4004690717736787
Ni 3.1534223096849328 5.747624320455928 7.3479030740191105 -0.14487137872581501 -0.7463174570605663 -1.8622721312065604
Ni 7.721220829152869 6.52334001835049 10.989884066153838 0.8636186394775965 0.5364653025879923 1.381561457781369
Ni 6.140533545691876 6.204609155788349 5.238256163947382 0.44851377697767275 0.5918892878842515 0.0641222844012057
Ni 1.7800244749393477 6.946456839834433 10.718505280775958 -0.905586242158634 0.4460406328468318 0.18879713357448777
Ni 3.600249486176011 3.4520117244004114 12.516178459176038 -0.5565551313593318 1.2429232044494594 -0.2722163185320925
Ni 6.4486583482566155 4.714032202607271 11.173884107886167 -0.8402915347158818 -0.8753996912729246 1.2386191777574669
Ni 3.3770829761185044 6.024049906600475 12.272858604914669 -0.7262433120185106 -1.2109142556430308 0.5973364270417519
Ni 5.26554732247219 8.61854475077951 5.929815200789217 0.3281311274218413 1.5627661237205794 -2.3600662424766
Ni 4.894326071519108 4.350131786855157 6.164200890792206 -0.8828389211597893 -0.7101068114679642 -0.14983849292310325
Ni 7.149399542649265 7.114177174288608 2.567167996582621 0.0912268539274816 0.07690915175322884 0.16683117082635784
Ni 1.9144258581851177 5.324287873915956 5.170029640291961 0.2943401470143253 1.0519738004186592 0.39578893578013125
Ni 3.6496102175185365 1.5780975380086497 0.3667042956340842 0.1444836563690931 -0.2894859042458176 -1.1950402647252516
Ni 4.863230824002997 8.705324101042983 13.16339153678801 1.6767079027470737 1.5856376290021144 1.6792967465201725
Ni 2.9498115806580123 5.7647459237821925 3.110153428334012 -1.3716305718209023 3.0313020879109795 -1.4700691130054746
Ni 5.302243008917041 5.451972390864838 3.0765086999591635 0.6435093260533885 -1.1860326619100026 0.5277747167925299
Ni 7.828946919135112 4.957129686499412 3.884858850970841 -1.0870253927061537 -0.3197369898208752 0.8835205206078462
Ni 8.08178111384454 3.8832546729574284 13.276150700970918 -0.796199429492674 0.32748423786646175 -0.2484888930081656
Ni 3.4628374094538423 3.8600201722383565 3.759536218478671 1.2904132796106227 -2.1055897644264316 1.7034090661873436
P 8.152079433861836 5.509651421204464 8.11634003151511 -0.23787692182027423 0.8288452405521533 0.36206557538575707
Ni 1.8029112359863737 1.4785707834514907 7.813085414567816 0.0511667526818022 1.1182802369553773 -0.7111805041481172
P 6.16083056128656 -0.28073938828671824 1.6601082792430928 -1.4227279047173498 -0.02483685653802174 -2.597467510212036
Ni 0.46792216312266677 6.567804941152369 3.617391221799077 -0.062324826181150726 0.9644763316266229 1.1608013981470395
P 5.660863272280457 3.5094253744640023 4.109346771782121 0.10172981034133448 -0.36041698403874056 -0.25152639428290874
P 1.4418018886546293 2.4056264470380624 12.355309511365569 1.034306465045883 -0.6624583563520655 -0.4186365298022661
P 1.5438085761361162 8.60364685114554 9.064973856856534 1.138881972366129 1.156069539889009 0.2788507931294746
Ni 4.4520652659846345 8.29272182911643 11.018412445827611 -0.24065782699952099 0.9626073967386841 -1.3400936775548855
Ni -0.25505789840172277 5.743341631863362 6.0426814321869395 1.3515237737686983 0.6022287221370467 -0.6873000979860937
Ni 6.35384438136008 7.457231511805966 9.434753818379425 -1.1075559085593378 0.038332834141927535 -0.920172624613241
Ni 4.109001777423275 1.5136558861521296 4.417008531520399 0.062265433698125025 -0.23335358002862394 -0.6270776628599264
Ni 2.6011018979479075 2.4319997558495494 2.2570290492332155 -0.48673193991860697 -0.5356286656193098 0.14032592544697767
Ni 7.285191884583218 4.339754502957785 6.607363989265199 -1.2781766283351148 -1.27991032319677 0.18876576611592005
Ni 3.4440411650753573 7.210839652073388 9.097024473366371 0.15111581697363008 0.24909850156770647 -0.1575985964844963
Ni 6.879361385217562 3.824386006897645 1.9106867416062232 -0.3796295524114494 -1.7284258999466555 1.7057780806401528
Ni 8.879349504813993 3.196706747810656 11.233940579457308 0.5905338022976218 0.9434390513403494 -1.0642150796798575
Ni 2.0366472018652773 0.4509240988904194 10.932547284859856 -0.42012391298106994 0.5173542927901542 1.0090803434892428
Ni 5.488503358517668 5.129947152462261 8.486401845193239 0.29036907818171925 -0.4014317358882054 0.40916612841798566
Ni 5.091210783205139 7.072164731279053 7.406325169131635 0.3183028284775099 -0.24565630865537694 0.32098860283978914
Ni 4.163596905934495 7.005481073642237 1.2155011460267087 -0.34496902491478654 -0.5089755818081557 0.5533667063290211
Ni 5.328698677124539 1.8107536806954105 2.312411167528538 -0.512465340128969 1.1257845157522224 -0.15024575566385093
Ni 7.255194762347252 3.7383844953742744 9.394748199319336 1.761335763300799 1.1947057642039682 -1.4877518749972183
Ni 8.686399742048481 1.3382944299569441 12.677073945014111 0.4263614092503496 1.6253300624957299 0.5559966877527006
Ni 1.7787799329551832 1.0232514381272901 5.404241460458928 -0.5856643900204623 0.4569151136674905 -1.4099670055072555
Ni 1.809893482559297 4.385518874007836 11.218604344815677 -0.12768946762988975 0.5364491046380762 3.7683463471997363
Ni 2.4054251240700357 8.172934663140593 3.752932825127398 0.06397496019006402 -0.42241682278030473 1.0993636025565325
Ni 0.3657297094479553 8.44286300804428 12.323513293878966 0.6016702785304154 -1.7131260363647913 -0.4550541491993518
Ni 7.751547388972879 2.35962414884398 3.9159980234981577 -0.7941908837030773 0.972590990313957 -0.7018972790739783
Ni 3.461949758185725 9.347882957675939 2.109620372044126 0.5434733584747092 -1.1506583961757668 0.40874780993364446
Ni 6.34779554127528 2.2994285814040216 5.839248233413643 -0.8251662490386692 -0.6041292815938692 0.2774066044837803
Ni 1.2856576248619846 7.560537647535624 1.5168248926897485 0.7007765352059738 -1.3701457597452598 -0.0981526345130374
Ni 6.491979390558344 0.4548736894813416 7.71812594607166 0.9728781825370728 -0.3514654312724076 -0.699123315873267
P 4.800106922482651 6.186737166853986 10.553953037755003 -0.3212523980241371 -1.2843986979854267 -2.284598451155588
Ni 2.7459629244870603 8.197907862219894 12.7473228493938 -1.50291906965596 0.38192606175510996 0.9445795927026958
P 2.435385642129997 5.544059346649013 0.9827232944547318 -0.19442939215960064 0.5646353372643049 -0.6449630277807796
Ni 8.030379699689744 0.6418038955028568 5.451587131912388 0.5992182174454971 -0.9355066838671502 0.3640854340292633
P 8.248302661534558 2.107274959466616 7.042009295981867 -0.1139068120235006 0.22772466387762072 1.037900867265361
P 6.56872004555249 0.4277289476605526 9.869184990666465 0.004427182533418181 -0.1197972093660066 0.6935836170019604
P 3.7363712656940082 7.0223739008684705 5.546828452563779 -0.7139884059105575 -0.14056555226160952 -0.437533366706769
Ni 5.708366341690737 2.2074971933678667 8.994002020000751 -2.161183699641652 0.2233080228671638 -0.4474197725825456
