# total energy = -340877.026690573 ev
CRYSTAL
PRIMVEC
9.17477000274764 0.00000000000000 0.00000000000000
0.00000000000000 9.17477000274764 0.00000000000000
0.00000000000000 0.00000000000000 13.42820329898475
PRIMCOORD
 96 1
Ni 6.491388453820439 7.438463281507434 12.208681362171978 0.798428833043825 -2.161771196714006 -0.35487677094680176
Ni 7.008148210031494 1.460577540480413 2.835298498994925 -0.0961399749583828 0.20960892811351642 1.1225834923164215
Ni 8.90783942660056 1.086577208433907 4.46665062441665 -2.171092474114932 0.4213724406761904 2.1303273763824278
Ni 6.542262554526893 1.5452056207178035 5.6121160953184335 -0.48791310471090155 0.2628374484203538 -0.4873608317518574
Ni 0.499547887333632 2.1899442463164718 11.047597679974867 -1.0610271688701793 0.0008746892954694614 -0.38263979999268294
Ni 5.085501718445737 2.654958298652973 12.55750520733867 -0.8863189092885898 0.5877703806198716 0.10672829199719037
Ni 8.916032496380696 7.076325927317274 1.5198713277907103 -0.49543795233303706 -0.06298765657613023 -0.7691653081930173
Ni 1.8205588236757992 1.0810998706301642 4.020833861226801 2.6199500075852686 -0.2776865976180444 -1.050690048610229
Ni 6.56027262841089 3.6876337322175536 4.223666928167841 0.7337828149286654 -1.686643930913863 0.10521828311056718
Ni 3.783776149044051 6.497397928295231 9.379331784168588 0.4271270837717806 -0.138844970026077 -0.2011137461583117
Ni 2.2144133584145984 6.556538496943348 12.180508395347939 -0.47793079668720906 1.0683404147021407 0.29276997431372803
Ni 3.156891626236141 4.732896950483532 2.1874413690084973 0.6477346769886457 -0.6093545345485506 -0.16645424710291334
Ni 1.1049634478957162 6.176813108297955 9.542121566613089 -1.2939747717096362 2.5678386316020103 0.6572135630133584
Ni 3.714800226751694 0.6931740723884813 13.031050878475337 0.11634987424735448 -1.2519742589081342 1.6858075510554964
Ni 9.103353779360617 8.17424315170667 7.952638504955818 -0.8360276172332053 0.44470031676885347 0.2355189631110589
Ni 3.8986901456803595 1.3122215064996459 10.75883738533746 -1.5662669377849865 1.9925612412428266 -0.88294845015446
Ni 0.6997780719716202 2.1245831834791815 13.44042361951439 1.039608593985087 -0.4346768710945804 1.1104108615096295
Ni 6.475745470645596 5.780609832390382 5.3973191280489505 0.7361240614673322 0.8336663160898804 1.5354646076921492
Ni 3.857064213325954 -0.3034674512528176 2.5789939539064943 -0.6037014500278313 2.9126837293444225 0.22121128823913516
Ni 1.7327837972630595 7.760396792722718 2.8326396505937113 -1.1073512487476993 0.1370703946241575 -0.13357189455259577
Ni 6.5071507090077585 0.02739586378890363 7.603962373589194 0.8527595852759056 -0.4232102652158776 0.6053317865424026
Ni 6.187318220166104 2.8351691347352386 8.413763372208557 0.8164754061328906 0.6567178543238625 -0.2626836964513089
Ni 1.727691799807319 4.811377934693272 6.100795549884371 -0.7713615445133877 0.7906360764722834 0.7849685937738611
Ni 4.48968296750294 9.191009533760882 6.389649427177722 -1.3575201005614492 0.4093736164431015 -0.4085076688983803
P 2.4481498037883793 5.177698984090309 8.238430761436591 -0.419938022222509 0.11751432686910085 -0.4873662310684962
P 2.0202935707234992 8.184023456729767 10.073206808999627 0.8378710981998473 -2.6178854117467556 -2.29103237970639
P 5.572911384817306 3.388829816652579 6.408731114219973 0.18026981282976695 0.6229137612902239 -0.4295562620385634
P 8.126690317809185 3.3229366171442383 2.734411808502908 0.3242999266012092 -0.30674623398816203 0.4551893892256354
P 2.4194052487814686 3.815410756660976 4.2249156143907705 -0.9770166301854787 -0.1489391210372854 -1.134471502003259
P 2.015137349876425 0.9113638696744195 1.7931216734210382 -0.6271342271294748 -0.7062817812949191 -0.334700810219559
P 8.095670419795024 7.4110215438675775 9.878457632073456 0.4943997408765099 0.2164516620669627 -0.3020989650241378
P 5.702697683932454 1.0750720466149903 9.353562607134466 -0.20925463009789122 -0.8749842010020609 2.0098020306011453
Ni 6.695802333665306 5.4121510615389505 1.161864455140325 -1.758394678394604 0.7011436887374053 0.11266522630691564
Ni 7.724413344035484 0.33671131356116096 10.176967037515317 0.37183473895737895 -0.13881565945003832 0.4873747157089285
Ni 1.4679907547943563 0.3266236537366802 6.317392607065234 -0.33072254229810144 -0.2175767768103414 -0.6576244252985318
Ni 1.1120188461722291 3.0110219549770054 2.4243954062880944 0.578007644806153 -1.582439690890107 -0.17298099247783758
Ni 4.310004268091725 6.956787846504942 1.693860752206782 -0.21473802180996568 -2.2086251809530673 0.051067508099776567
Ni 3.2080868438992627 2.488894958204495 0.9520787473489063 -0.17969337150100667 0.5678921536387059 0.011377131488690084
Ni 6.887674302659727 2.4677746372259093 10.982524704921559 -0.918593195941263 -1.8666682033917272 0.005457166459829311
Ni 1.971006705260006 4.22055025873412 13.415500356291831 -1.1889817172359975 0.5071953499792814 0.09260419389098244
Ni 3.951270753642251 5.384874469762525 13.301253365448373 2.1807734488481216 -0.09874578801234607 -0.6086302547880164
Ni 8.922519058905397 0.34375478463642595 2.322743539962188 1.5018448627551748 -0.8866271845576278 -1.3212770590690148
Ni 0.18295133993817503 4.392540500725676 8.402496754414592 -0.39134349841426797 0.8932284919242294 -0.13502019696334813
Ni 3.738507832924007 5.977821517635687 6.418292142235518 0.49171782316897256 1.4898519520593567 2.057909170521017
Ni 7.804866903836186 5.471135659093827 3.363818475636193 -1.7738079276258807 1.353804599383075 0.25523289660021853
Ni 4.204173293944035 2.718750475787684 3.213691711008654 0.7953252544178367 -0.6445457377377029 -0.8344934399768661
Ni 4.474526247148195 3.644282943067329 10.189562162032866 1.2610463964127314 -0.4668429143041638 -0.2615058740931238
Ni 8.041438353198838 3.4684943462168962 6.555796258034934 -1.7466984730035982 0.2379219161255967 0.3698429053383308
Ni 2.560192097355054 4.84743478154203 10.708697266246247 0.7397675717571904 -0.43554436130119834 0.4084755301088642
Ni 2.195228913946214 7.630546270216237 7.7215930196789175 0.7310085946176378 -0.45634612853789797 0.43420275967163935
Ni 8.55621635904874 2.251121613946884 8.702200714935257 -0.532733860570018 -0.5194204312905636 0.28970059135978493
Ni 1.982410944606827 0.09900769755699791 11.70188724134187 -2.069273446493901 1.8170672525351481 1.2348347710143703
Ni 7.045617971489592 8.236925181648326 5.201763488823034 0.694756554264139 0.6557830012144191 0.6250953423225751
Ni 2.111821078144163 2.919512797096723 9.394868340009223 0.1387565240773288 0.33824070505201753 -0.18880253289112647
Ni 1.7115258547316161 8.239127126494052 0.37772620622087794 0.08453401528833829 0.9400531655872519 1.0034190314384073
Ni 7.323604333492268 2.3877339420837806 0.3007498843223844 0.27303084401358785 0.20361105865886867 0.09696478485252333
P 8.563253407784872 5.670686910737717 6.441656612002706 1.8658472501523287 -1.339130285200352 -1.804607686615557
P 5.181827630676046 3.792317860091428 1.0562435832299977 -0.544908548259339 -0.7637058277403428 0.13299442478257095
P 8.219905982944905 5.986583423167637 13.096177984672769 -0.9397405194428397 1.2243040466863753 -0.12025229462555419
P 4.894602275091511 5.542781439511627 11.161321708917464 -1.159048162901359 1.12085288277856 0.29656158014567635
P 8.212052379661817 3.8967817934807307 10.513705875387048 1.4117562361971945 1.0427296561125718 -1.682051169336858
P 2.4467185396386575 2.952147454664415 11.744830670695636 0.5675589386690031 -1.4148199627241829 -0.45664746182840066
P 1.9517029887791444 6.162307796626736 1.1274425523395182 -0.05712322737555323 0.746097113519644 -0.4225608045573368
P 5.1488076327603505 8.191748613230187 0.23657144936265243 -0.5481381109402302 1.299011562802595 -0.0492376539798894
Ni 2.8451054108515756 5.977151759411779 4.243218363443846 -0.7858697654318917 0.8283392474500122 -0.8155837475565566
Ni 8.73702355519339 4.310096015793631 0.9433581282828136 1.0010857553195402 -0.3787134683550833 -0.8703662426140752
Ni 7.4190402930140955 6.38751170572333 7.929058428089153 -0.4639589078881493 1.5700132922012962 0.9311651190690029
Ni 3.943417150359162 9.013835546611679 8.878727880786027 -1.2023560816603744 0.36916182011090615 -1.0994119392959645
Ni 7.08798706022943 -0.15982541419594112 0.7386561606539641 1.122204511710448 0.44035952330165445 -1.2137818069988129
Ni 3.7733994839585683 3.591454616310294 7.80875517144293 0.14209253042909722 -1.1942691908871819 -1.1748013119705574
Ni 6.627175052640189 4.54957586730668 12.088928591737186 0.2555373152145147 -0.18053129402126972 2.291756402356608
Ni 0.8228805510029713 7.298190220064518 5.605401998493008 -0.9181203700699028 -0.9052306585914282 -0.4651012490227087
Ni 3.532185600879511 2.4727381878989827 5.411767556144987 0.030151840993031944 -1.5429177215360845 2.380131388657591
Ni 6.85111284345049 5.690889754697251 10.178175354749406 0.1506239649388761 -0.2541352926606656 -1.2421937824826026
Ni 4.77735788682681 7.611747166095854 4.518966081520035 0.16406672070734324 -0.5307893352491374 0.3371302455966581
Ni 4.573402745491469 4.592807384444427 4.833172601280861 -0.9272022777665128 -1.076676959592294 -0.9214628041795744
Ni 0.7303419839073116 5.227692306858473 2.8865937216531234 2.794106765538762 1.3144068143117429 -0.22038107902835594
Ni 1.118587981628644 2.7128969724061296 6.993931903621277 0.10300739150217743 -0.7832621526057156 -0.28162218522702465
Ni 5.398242109930117 1.4961848235898354 1.3108985046381723 -1.6032648551655744 -0.4330923002162799 -0.4073637851019242
Ni 5.543258527561534 5.12743041821643 8.041493401819983 -0.6807592115437824 0.33976794032982127 -0.3099305452534146
Ni 0.17158104724105908 3.7101486182650985 4.706598389209415 -0.27327895546865194 -0.6479043697972907 -0.8682810779502723
Ni 5.795445435788458 7.90918404090244 9.749440178700276 1.3941030418918057 -0.5820139377520686 -0.5921222298306641
Ni 0.3984254052477183 5.159753133597645 11.680079730076015 -0.7181289104414923 -0.9703225059947549 -0.17263620754390915
Ni 5.591233400887782 0.32760627162408523 11.726326076698369 2.9536046359285004 0.9134029099895752 0.5655794463451291
Ni 6.496333654953132 7.92021211467145 2.755064216201777 0.29469907301564086 -0.06134523587670081 0.18446559607866939
Ni 3.957234354266091 7.990022941051144 11.253586867861447 -0.42664808725283293 -0.6948298307042357 0.968583411816461
Ni -0.13602239041364655 7.8018667539838855 11.96111853812108 -0.20864065066297616 0.3647238389442106 0.008365084135243658
Ni 1.2960188623431808 0.783227194239528 9.120194070045324 -0.07247322746906228 -1.0189991452648517 -0.6926253668537491
P 2.69554748197585 8.069375528428983 4.72941329024219 -0.4455143280297166 1.714270948602512 1.2039936172637975
P 5.188892203722748 0.76381338051638 3.920041670867746 0.31919320150226316 0.10361982827519572 0.4434543601768943
P 2.757880870650267 1.4642382737864321 7.556842588844703 1.9954488472032665 0.006043892201234752 0.5397779119009929
P 8.333333666810349 0.6094524594459148 6.53436491234689 1.1721885569380588 0.28557885588192755 0.27432436601403076
P 8.385877575691477 0.9423589958090656 12.506062270880403 -0.6664931885430715 -1.1018467739897024 -1.120792718964586
P 8.596365153402472 7.631573844477575 3.673325678105432 0.2814360373581476 0.2763812485430595 -0.08442962849999008
P 5.501467449343699 5.8876427014330295 3.2405747051439073 0.513358798477516 -0.29642042658212175 0.2882093515262391
P 5.48851267383468 7.284547336791209 6.957635595270546 0.19239770644155252 -0.5226497368611386 -0.09344417329377454
