# total energy = -340857.31954690965 ev
CRYSTAL
PRIMVEC
9.33664009003573 0.00000000000000 0.00000000000000
0.00000000000000 9.33664009003573 0.00000000000000
0.00000000000000 0.00000000000000 13.66511653380466
PRIMCOORD
 96 1
Ni 0.7813003228081566 4.9425839094678246 8.8699585163549 1.1461317119500067 -0.33841374029477206 -0.646999341484518
Ni 5.103874369040068 6.851030514295897 0.6517852508516706 0.13922857861774085 -0.16812597837838142 -0.7476636866758156
Ni 0.5622898198135353 2.1470070987516854 4.033915008286722 2.245317137057462 3.087986427976901 -2.3714243478018964
Ni 0.4905610814248948 6.851572039427891 6.138534694163616 0.2833854477750345 -0.992173283321259 0.36882706247930674
Ni 3.5671567574050096 5.633476611489643 8.335433997188309 0.7469476344453975 0.6550615496673622 0.1872094773723937
Ni 9.476969909094926 5.102511219569878 11.189585153905746 0.3781519394246584 -0.4507406094256625 0.9192434279307523
Ni 7.169475301828778 6.058592513385064 11.21709276328298 -0.6332354549312061 0.08762165307472651 -0.3626877823507883
Ni 4.815923048422553 2.151245933405567 0.2593998748651609 1.1356130718068698 0.05479046547731854 -0.4107869518508602
Ni 8.555191431399473 0.23178582778956794 12.391528194286252 -0.6056079230219248 0.48200419542563444 0.13807003953326544
Ni 6.229116910121821 4.374794808572491 3.779880900548401 0.023181837433102013 -0.16431406083145897 1.027999548991249
Ni 9.104008479394615 7.270889887754898 12.302444509081235 0.813800944624521 0.30621478696472426 0.24387324861302512
Ni 3.269598034014711 7.762071855753544 2.0702785895323106 -2.175917406307401 0.061988525887654536 0.20624026875159965
Ni 1.4951508894344434 3.7619750919598256 1.387665620045871 -2.288616828286362 1.402663786977623 2.1437469922224435
Ni 3.070596884647254 1.5909354813158703 12.011268312936297 -0.6255995356525033 -0.23914447567878816 -0.9571751699795193
Ni 0.5612291774860443 2.9725621624759917 11.320496987237167 0.38959720514712254 -1.5365051331415216 1.449475090904207
Ni 5.27685430215121 8.516481721102133 9.642338613109493 -0.11544253194173668 -0.9586720662400199 -0.3984945076367524
Ni 9.08470030744698 6.7035582822296975 9.876340025620133 -0.538730444473085 3.366119883324377 -1.8895307098121976
Ni 1.7693213291067413 7.99798074385843 4.2916118799781655 2.0255142991300796 -1.6165119499834675 -0.02887451694250511
Ni 7.403656911495409 2.162309852050609 13.44970004677853 -0.08342869803930147 -0.4396231593562622 0.6653439054299767
Ni 5.907002822987673 7.782659147409509 12.5292996571776 1.422856202765098 1.4173391296016107 -0.6533347967842427
Ni 6.090028980961316 4.09674032657417 9.424448506939685 0.2638543197206424 -0.472159955641703 -0.3353975791762675
Ni 3.4661249737273683 8.264159019513718 7.465130284280914 -0.718618191373085 0.7828379205841034 3.846326877640273
Ni 7.296518965122528 6.620957026320254 4.9000237687492065 0.3785507175249739 -0.8185050349684097 1.871056819377726
Ni 2.9679311889334254 3.880914551554084 10.724862290589112 -2.6426842159579906 -0.20459707672122185 -0.9794062134635778
P 7.383069619839443 4.630123908307493 6.067503402798422 -1.3598276656487034 0.05109527601391845 -0.342250597542359
P 1.6448359052296513 6.311979591957055 3.012570599426094 0.3095417944554282 -1.1892370277799131 -1.4328153708603388
P 9.370812309943757 0.8565508418827972 8.169758117710938 -0.2566650010610548 -0.7516830922478538 -0.270375922889244
P 6.6314233999920615 0.5399761833833353 3.748778684691553 -1.08882542202937 0.9717625808753908 0.6662471339705365
P 0.285549003092309 2.4515496290166614 13.532687839592535 1.0306572983290703 -0.04359331120991847 -1.5847855654144642
P 7.592453113116847 6.273307228220544 13.52563680890837 -1.3257734042774716 2.027659113387224 0.5610329646250273
P 1.4358165409203125 7.174022245609484 8.24118621628492 -0.2649143855540405 -0.10584511806128868 -0.8708295554037389
P 9.42543165515346 8.35876719472909 0.7538795441848443 -0.16657251784833246 -0.09120088578555262 -0.08324769237674695
Ni 8.406477426185772 4.434829405102132 13.212391596306647 2.2451572144408303 -1.5678101139023903 -0.33392382284421845
Ni 8.271590985118321 1.8771035036538894 9.92803513511707 0.24257381307531128 1.0158446587962697 -1.0732090556483516
Ni 2.5855677625448803 2.2674497574192367 0.3607416349976674 -0.7963596092196221 -1.5149690588419584 0.8342617835820343
Ni 8.718050446526457 1.5291922796283886 5.544416267885143 -4.18362450205273 -3.93882385652943 0.2513423032965607
Ni 4.734899684708056 2.473528080063438 10.808587677979453 1.8709820002757325 -0.42326502971321295 -0.5884756342170123
Ni 1.126885789758147 8.871628841287896 9.933692205418362 0.057414790474043055 0.12485302662235917 -0.34362742328522755
Ni 7.905267906605036 8.880573342605997 10.087547898393941 -0.5327048071042955 -0.4039910119749494 -0.025387072614536925
Ni 7.588260961663999 5.746972809843345 8.051555319028994 0.11319975865414698 -0.12471495838259812 -0.14805877531486114
Ni 8.955051721535536 2.0596721662574007 1.8179110720709017 -0.7393178858142816 0.5997229249960575 0.6048700164146357
Ni 2.4954411746287666 0.7664074480143109 4.061901587306566 -2.4702017603831266 2.079953551915566 1.8675156389936869
Ni 6.7441539938488075 3.6612700906894218 11.783977143742277 -0.35015879664584215 -0.6812546631229622 -1.9250070483419364
Ni 2.95379551566035 6.686472230651278 6.100039726591033 0.08625871128892887 -1.2108085833031017 -1.1468066265298442
Ni 2.3153280483996403 6.528879080600921 10.151583245252189 -0.2644559578603833 -1.5237591463297628 -2.365907788859041
Ni 3.3263834797523884 2.782328118262708 2.71611920156432 -1.5138747973365154 0.9890059413368709 0.7243602360631848
Ni 1.6333425011350966 9.297351624796757 6.1880431625241235 -1.4086009783976643 0.3345737977233915 1.5559940951040687
Ni 7.278620625846118 0.8372295986388724 7.348594075875883 0.7944227972082254 0.29518295463059485 0.14143407090949192
Ni 1.7505546822910993 4.675369266749582 12.960174398752569 0.23713644410982387 -0.5823870048207712 -1.5136811932684706
Ni 6.399557277096716 2.136428685397396 2.106436596061134 1.3097150652630283 -0.5640033601072609 0.8723567906815427
Ni 5.317020528320807 8.552913291189016 2.143059567272256 1.5714276560503195 0.03308058460405271 0.06011187769023195
Ni 1.4035024291646232 2.172225363950217 9.284476397951599 1.0838755342232624 -0.29946358428381975 -0.642894318177209
Ni 2.0743306913820563 4.221039017647125 7.1574599795466645 2.685071679785266 1.1761028043908004 0.038845255001971814
Ni 3.6317569709957684 9.202183251168979 13.637922978691273 1.5929956120290822 -0.5665207272124759 0.9065902579431161
Ni 3.436117012102755 5.120381548925668 0.9353941001090094 0.769580798463881 -1.2287579686926708 -0.8612246853241233
Ni 9.0635434807384 7.342959413511087 3.2945912861842586 -1.0443083134536015 -1.382993305131889 -0.8955121457520836
P 2.9797887219960444 2.8331567875484565 5.132877708178432 0.8869994802953821 0.11019979548555861 -0.5390649449943683
P 3.957110872281672 3.5328072580842407 8.330501450167063 0.7455199008599354 -0.4319823549815528 0.56844442659775
P 3.092201870085759 0.694392074771322 10.11620391451661 0.6748076219460378 -0.36595796846162776 -0.36663056904862024
P 4.062558886777124 3.82031041997183 12.682307583222403 -0.5409835021733199 0.4068544495656735 -0.29744963917758455
P 5.033522785081929 3.7111090761132504 1.9230780536961287 -0.2664822442617927 1.8477392276977083 0.2912712782810145
P 9.23280743104724 8.755723789760841 4.795444995457007 -1.4850491313540748 1.067434872168736 2.6049913293929072
P 5.381181919821846 9.298107892653508 7.3650471032482825 -1.9563801633365794 -0.10756724295871797 1.2831002908889775
P 6.850367612841215 1.3360545403107944 11.416179809740338 -1.071684134363393 -0.03076324932478573 -0.7237966502502309
Ni 9.167983138091518 5.538859099634064 1.5480392215498084 -1.0322709226730933 0.09476649164962389 0.9533506540271064
Ni 5.410078821261853 6.887153975255956 7.256614164878721 0.7723362497218311 0.11692143048010832 -0.2671191065148432
Ni 1.6942827517647947 6.602974657281983 0.5505097808646323 -0.6496570908223392 1.9472728017186722 0.0815016562199177
Ni 0.4892156715710968 0.1554018405938235 2.8075118378924744 0.8595339278852617 0.16665582159075812 -1.235928261188865
Ni 6.18660718726032 4.682903935396459 0.15788165223274608 -2.1615498247318192 -0.8848793486285857 0.7798227879068635
Ni 5.926423034617789 1.3138520098990552 9.042057070630522 -0.44032635607087395 0.7218271852286858 1.725437506742293
Ni 1.0219139439132416 2.34743675407078 6.628989337890154 1.7218125083951958 -2.183358435966478 1.2072974848260498
Ni 2.2008048196231917 4.873222009371605 4.576365401324856 -0.048315142165620016 -0.3117344312313728 -0.2110772851289268
Ni 6.387634387552649 8.727443106574485 5.640467887676485 -1.201779640331614 0.6904355582912818 -2.5684112162760284
Ni 5.432580124160209 1.9150756193748917 5.3072721422809 -0.20256102012779956 -0.5586405531334507 -1.1960183123678048
Ni 6.879059108196672 6.635036679752089 2.696646704749045 0.10717849216073154 -0.1501223427121092 -1.6149602892256316
Ni 3.8362200548841954 9.068678632852134 5.491504594169262 2.5064270612637483 -0.26928783203138784 -1.1253985931677135
Ni 1.473480547514491 0.14243884933072054 13.114590290140555 -0.9371125949016894 -0.238750325564163 -0.26919141566283966
Ni 3.30653378267276 1.8469181458653472 7.042564218825966 1.0590548756351565 -0.5253411676503726 0.13719149358305405
Ni 5.923257913587689 2.830757271015312 7.243550337901384 -2.106842148776294 1.657134094380204 0.5095255407743549
Ni 9.016561507217848 4.889579803013895 4.115427611948054 0.8047133805009561 1.2117812316290162 1.0417752626191026
Ni 7.630920070768808 9.074252607055584 2.0678874759753527 0.963443005266102 -0.2510427697782709 -0.7791219051850969
Ni 3.8909140932155526 7.755442841206726 11.393222878799893 0.8431963670675027 1.2250782058482386 0.3145125081971422
Ni 4.574216106749254 5.333882500534265 10.95864429205489 1.195125111129574 1.202758973525748 0.5110458340736231
Ni 8.011864327845922 8.15817881652648 6.899558635434693 2.5067980714499214 -2.0932039891675696 1.2270777527767707
Ni 4.461746938818298 0.948901417496168 3.3088847486768285 2.609762782639622 -0.2822598188110236 -0.15718413465489703
Ni 8.108694623430509 2.852754395342502 7.312244668222819 2.0705363723667247 3.034066280919678 1.3791579905461988
Ni 4.693725101396126 5.906442624575265 2.610693595005365 -0.3467096617549771 -0.2760161518941569 2.897945394692983
Ni 4.409284357496363 4.68165282560875 5.8200684323582585 0.219399431841377 -0.5558707036977976 0.024821429919054026
P 2.062874633848329 7.091458336260867 11.996851606792998 -2.0162243891877214 0.20746668495953302 3.9229609213552434
P 2.517372942474509 0.7086267164305894 2.0253749521217896 0.7015216409021144 -0.30451863020922393 -2.6224498911889866
P 5.772041688798568 6.252094381670723 9.379107914767488 -0.13725731382398296 1.3600271832540192 -0.35049406849807374
P 5.199724317402943 7.199221837527602 4.573673647953239 -1.0640163334054902 -0.9442103822887351 -0.3087702063967263
P 6.235437815541816 0.33935606060402207 0.4351537237817385 -0.7637888743724524 -0.6757702429696233 -0.4245924902753849
P 7.980101077862432 3.8869927043287027 2.71617428774154 0.383093856810966 -1.5897891892766427 -2.181222363460082
P 0.38283492671898733 4.183178941608604 6.025332599976428 -1.6048124021583523 1.3439307919127887 -0.9576495385127765
P 8.33987917159076 4.061793282280167 9.508174827994047 -0.7955322282223203 -0.19018115840620795 0.8127187673039359
