# total energy = -340849.9831784965 ev
CRYSTAL
PRIMVEC
9.44727443204525 0.00000000000000 0.00000000000000

0.00000000000000 9.44727443204525 0.00000000000000

0.00000000000000 0.00000000000000 13.82704107642795

PRIMCOORD
 96 1
Ni 7.9246664874298895 8.802034844926947 0.5346968267214217 0.7660226487989775 2.2443827981686506 -0.3414090754776701
Ni 8.646476027498858 7.632528426496526 12.058493266012249 -0.5108799979197202 0.24263526244086597 0.1168296420972504
Ni 0.6067275690681032 1.7531117838270043 3.9409691777771414 -0.7722370051398055 -0.35761808113736476 0.40548173758786293
Ni 6.782632742452698 1.3384331288902558 12.493450495078076 0.8694642996250961 -1.929193318509142 1.293189042583547
Ni 1.3026940904880662 8.662375790023544 0.9594736730798197 -0.27253899197883386 1.5344991584550864 -0.17256755908950283
Ni 6.354350012628519 8.121821653281145 8.199476357975389 -0.053551450863894866 -0.7337853860318265 0.07800855546499469
Ni 7.661626031116866 4.080287186080935 1.1057751064924952 -0.055303400557995076 0.3117632275867792 -0.6624007636412528
Ni 1.4325374274692175 9.028826110029502 3.607226265873805 -3.8182504311190306 0.8393669660190834 -0.5301943819776159
Ni 1.624657196157278 3.5497849491164715 3.2224198920440417 0.5799938219982462 1.8025634024920183 -1.8631992710065204
Ni 0.3027681338940151 2.1279040469757415 10.398072468539791 1.6709974826258576 -2.626317087453877 0.6620881174968404
Ni 7.744799833414745 6.697295514356748 1.1114132397513974 0.1190580172071369 -2.4627496749804556 2.1371294869059256
Ni 8.303464394851037 2.423358101162917 2.5745399964414584 0.7547511896502163 -0.9883045443944722 -1.0541001027330426
Ni 3.379885169411216 5.870063841184412 9.205573274094766 -0.864187624607189 0.04328914970593834 6.791600367995259
Ni 0.12262845365369926 5.961853557577665 13.681165589854354 -1.5928542013552116 -0.07891821176345763 -2.828497070093174
Ni 4.2667763793294755 2.142301692898273 10.377706034760399 0.13544957119128287 2.2713289877401914 -1.9894918582888836
Ni 1.9787788232965013 5.299864157916486 11.603127090433007 0.48340878908264484 2.0624294269888734 1.1138841647702105
Ni 7.003453330243548 5.627599548138629 3.623707980490898 0.34114065230763185 0.26216561916430975 -2.3426621880675396
Ni 3.409559057759426 2.854871798772862 0.8204910430110978 0.8273012931038011 -0.5645651461480019 1.3381794912513083
Ni 2.9500436393395177 6.817105846108419 3.5336660098297106 -0.30608340359318253 -1.8306020537967893 0.383897583659184
Ni 4.472566353824559 1.0333239604426951 5.337500208983534 -0.393571102193206 -0.6457670117393137 -0.620360398740751
Ni 8.680590134733938 4.1069662884990645 4.102413647048889 0.10236255882932695 -1.0822647380927168 2.3928462651210984
Ni 1.7716000994899928 4.470563531688353 0.24264757016579533 0.5583541322412836 -1.7678997896715618 -0.11816918684428036
Ni 3.640828330845761 3.072943229763543 12.483923863747183 -1.2982949963515447 -1.0014840191992236 -0.6236750649362808
Ni 7.678536651983881 5.7081847972982045 5.749753748626112 1.7408463850981952 0.2400050239068705 0.3067745161229362
P 3.085612024502464 4.557988607388555 4.457436544149404 -1.3604038498671474 1.5769005062394326 -1.558278520262871
P 2.5800883805952006 2.101867359205074 8.912053076941936 0.11029826873663584 0.22884643618688974 -3.2518939973985606
P 8.465409569656837 2.455450491713337 13.263132207839462 -0.7027308307188671 0.1419053541189556 1.457940448062741
P 6.519658417059266 7.506520682851692 13.485927275943835 -1.3657982814098413 -0.31126443357348976 -1.9931847337594382
P 9.05934080578395 4.130820655923206 7.626621990649566 0.1688317461961544 0.07455376414717482 -0.43052453948910374
P 3.1508643475909976 8.6874771976457 2.7656706355179117 3.027932657218114 1.188249209945347 -1.0573150101259146
P 5.50557855421775 5.8794544317664315 9.778233972298924 0.884886033496805 0.6833447128827715 0.41934255473035525
P 0.4796400019790792 7.661663820213775 5.026862495658109 -0.4124265443368123 -0.9450825004810434 1.3878141235593002
Ni 1.4563351112479954 6.477221261229861 1.4164836743746259 1.835264235159149 -1.1844452628182247 2.3908557170536304
Ni 2.152759825467986 3.5058740185075954 10.26202888548321 1.5476176981149155 -0.4851018605143516 2.0763691769984174
Ni 5.053894926132343 6.193359012519686 4.521760200181387 -1.0507108745458356 -1.3420374315448178 2.177257208164747
Ni 4.119134377703934 8.621072307101425 8.981367727948244 0.5367452957222563 -1.4521693499069184 0.06341754502469724
Ni 9.189930477429064 7.4838566719802 8.627865841998338 -0.19138931978169618 0.5304232101589703 -0.2028980917522441
Ni 0.9664750480097333 8.386855484456147 10.605104759595775 0.13580361209659192 -0.47547513605786496 0.9671340809644441
Ni 7.889796598256619 5.907890727190853 9.679343684596372 -1.770427184079106 -0.525805765991617 -1.3431242368510934
Ni 3.325969575395541 7.675900862474441 11.048427549989949 -0.19994749376435242 -0.4580762238551272 0.9558893612885603
Ni 2.8198885423088624 0.6145763644962129 13.328949477926793 -1.3462257585945525 -0.3010062461805913 -0.38594983820252243
Ni 6.948404063320587 3.2440050241987666 7.021606267671465 0.9823557830102049 -0.18004664107536733 -0.7638390108840973
Ni 5.46706201719271 8.189265743990433 5.5833173396526155 0.22951183768503053 -0.026525814204670446 0.47340359824081696
Ni 9.273406592502221 7.447475218930548 2.9044114153664125 -1.066453482092073 -0.2989164535310981 0.16950640366567582
Ni 5.7122376779417525 3.7083007633777303 9.11383079407265 0.05245590380687095 1.5958284534921872 0.4067549478733318
Ni 2.8557598425502357 4.309260771530016 7.9319371096752835 -0.20816833901224793 -3.0075008717263234 -2.7177717411214486
Ni 6.399952005324097 0.5520013989237191 9.744357936374374 0.5631793215440688 -0.9973879947529792 -0.6552181298498845
Ni 4.747359219276447 2.0989953878399494 7.641015857662407 -0.5764367007746073 2.4609946399625615 0.40228174259332655
Ni 3.643369647612927 7.9584688346154655 0.8763329362417359 1.129438824675358 0.22143780242764444 -0.9316541428902795
Ni 8.102908210277924 2.81585455621377 9.23975445697686 -1.2392038466163433 1.447205835254056 -1.3598945143308965
Ni 0.9815528976766366 5.535120180726776 4.803417455086892 -0.14411521728608084 0.6962845608728911 -3.598924018607434
Ni 5.987871350799879 5.484577263610277 7.067249828373643 -1.233435062453366 -0.31792153387869115 0.967313801075418
Ni 0.2726190476521678 3.7411678304147955 12.04472102964357 0.26351493410335264 -0.5714641872606804 1.2406956006705214
Ni 3.5491708762916914 5.929506090623106 13.508617739183162 -1.135291426801393 -0.31054863845338776 -0.5506580491486065
Ni 4.817410757672492 0.5006781369560384 11.51840865879895 -0.6435612623372465 -2.910659499825542 1.5618001602628844
Ni 0.9006823408353928 4.986960988231334 9.37538330469486 -2.001930084052236 2.1253186103139265 -1.3201226337495975
P 6.896897524232896 8.831831547840112 3.3457701174487133 -1.1564804021741826 -0.7982485987122189 -0.13451780340563285
P 7.963031868067292 2.192098275350809 4.927902298126273 0.7196137225171348 0.7511408465911387 1.1327624897319524
P 1.5243743802336076 1.019729332829491 5.673967714774046 0.8230867408018212 -0.001564516273642467 0.724700650121739
P 9.07262367334765 5.517661617954573 11.304158650233248 0.09487113554828823 2.0177665368638604 0.4665078995622482
P 1.8814530042060018 7.370187068476328 8.977787211016066 0.079732737244953 0.4073930956779629 -0.7583389070014747
P 2.0538374170330593 7.439822926806368 13.093944752610952 -0.5792487163021057 0.08892571659813073 -1.024658657543474
P 9.058103212860162 5.164975976497911 2.424433200969993 0.927620596250854 1.6269197755803528 -1.542735944542582
P 4.387597569423476 4.023509067974364 6.021772894364842 1.67045472274851 -0.44682019132533374 2.455126096996927
Ni 4.685668518571636 4.857807302268782 11.848225283533386 0.5067158392397015 0.9188125110409209 -1.8885955995924375
Ni 6.548756021679606 1.2913951505121162 1.3767484389742528 1.5480352452683082 1.7195409387521998 -3.2213233237005556
Ni 6.712892964106157 3.7182298485907097 12.667671458014937 -0.0916189471595777 -0.3601102514315992 -0.29367063175112645
Ni 4.461078468364061 2.833492617196294 4.115052210510282 -0.2703098455379989 1.4283727617079527 -1.8271878859089177
Ni 1.3788296734865455 3.4532621483352997 5.643520094666614 0.11553252055238168 -0.8964930216081142 1.2487619226184234
Ni 6.804304789530315 0.731988978048974 6.224477389097262 -0.6438667093928073 1.1795473112959751 0.7994531605432813
Ni 1.114825595202328 8.665342234130943 6.966948117901518 -0.3896437421143419 0.04686632553423542 0.13101621801027757
Ni 2.4443877335930715 6.718126754028128 6.1642330660766635 0.7063784547737836 -0.5942421043871443 -1.932054184996705
Ni 0.6694716408492672 5.946010478698344 6.886972217929608 -3.3364187567155184 -1.1145822192785 3.579894255669493
Ni 2.6826668841561245 0.41577548347454757 10.042662233195953 -1.0536794702558563 -0.09289370010694324 1.6160023573369007
Ni 8.56221578866483 9.456532556125811 4.772140364302295 0.4788412243166204 0.19661123030226785 -1.6777479139758138
Ni 5.635903702184498 5.563140796085194 0.425773533789387 0.749376041381232 0.26840671497801516 -0.26074379911611867
Ni 6.810369939584295 5.949987781148073 11.909520143448072 0.5269645621864085 -0.8535748820883492 0.8919377981372638
Ni 2.68423513167787 1.460935933796731 2.5617493318650046 0.10044888674638185 -0.4157257839133743 0.10992391611635262
Ni 6.485922200793281 1.6061877750427442 3.6206385610944207 -1.6224352574464382 -0.803009767546288 1.3647415580105529
Ni 3.664701592818358 4.949209680418712 1.9020480620216969 -0.1772261409074367 0.35761782402704867 1.1389205389135484
Ni 2.8738891617925835 8.567364553118754 5.209904378541077 1.9528132719209275 2.5309720975929637 0.597534659095487
Ni 5.002794619836428 0.3015466013364145 2.386546797135919 -2.605115770785914 -1.265396445851311 0.9405013088682642
Ni 3.994827143420028 6.530267706016617 7.4541024818010575 3.6921979848719317 2.030910016224354 -2.2486104630967536
Ni 0.6638930254179977 2.0864399603917576 0.9370968593448404 0.6818635003515546 -0.13318494352682222 -0.21513114348332626
Ni 5.353741962835251 7.25476971924039 2.5532732374281966 0.603732817486399 0.35231826619100615 -0.5896107762627201
Ni 7.836513971614179 8.102690922970694 6.410202297860807 1.0237266326475079 -1.9702358382727487 0.48158819093413835
Ni 0.651621016196627 1.7927053101139663 7.536193626472479 -0.2699334360351867 0.42923487414340267 1.0771217604391965
Ni 6.269003337258341 7.8244592497000385 10.840275756938018 -0.7285999851761452 0.8527793827702473 -0.8666250304040882
P 4.7877368693242826 0.5314951454857616 13.712151704592749 2.538250119311616 0.5321201382454191 1.2680621656089321
P 5.525625670128257 3.8369254019835495 1.7149674694065227 -0.2929710345809406 -0.9512670320252004 0.3163637024732681
P 7.871109889834855 0.9985485440116985 8.172513837330436 0.5553500553076371 -1.1654707785982508 -1.6351750736106097
P 4.6129339542950145 9.613168362815822 7.235801482046651 0.7930894231087825 -3.100625199786834 -0.9234757208445452
P 6.53303575736524 2.365758070198563 10.691800505725622 -1.139593910831489 2.7939396438332786 0.8660496175165924
P 9.228210832598421 0.27872293153048 2.0294776204377523 -0.06749942840355472 1.2636185280152818 1.117253595463076
P 1.290979470446111 1.8664885218298273 12.548827582416726 0.5607550283732923 0.36694552918587775 -0.40994311579332626
P 8.71437358737106 0.17272734888151117 11.014911455213461 -0.8553890524789527 0.14786825657060984 0.2562140295665652
