# total energy = -340891.77691181493 ev
CRYSTAL
PRIMVEC
9.05445948341817 0.00000000000000 0.00000000000000

0.00000000000000 9.05445948341817 0.00000000000000

0.00000000000000 0.00000000000000 13.25211669277578

PRIMCOORD
 96 1
Ni 6.4985939329668385 1.8509035842283834 11.42366946353063 0.869246270077019 0.8492122342442794 0.6528766262009015
Ni 4.806098120061451 0.3504637255434214 6.0203437131417035 -0.213930952527638 -0.35108799332833085 0.6862863120095987
Ni 2.6496970677314446 1.5946895399227634 4.735816498924771 0.03471683465589505 -0.27034506965130856 0.32414360352900307
Ni 3.2966653720665144 4.178705557458322 4.740865265617522 0.10440710006318148 0.026052474112677713 0.16782413086724643
Ni 4.93103155411202 4.432529224420172 2.7088516634220645 0.07744496965204083 -0.13174075488112794 -0.30290089210014287
Ni 7.204244190199555 5.905952386444742 2.945905565693012 -1.296254311772432 0.26979433935416114 -1.266283990662587
Ni 5.258513250208626 4.851578670810546 11.40797899042828 -0.02015307790910723 -1.481756833756048 -0.5709273409206038
Ni 5.903969459784569 8.14713939880153 12.599343964009634 -1.0962168293974348 0.47956601829778694 0.22030497437478186
Ni 1.7578237391754883 6.471539207575978 0.34311059887343537 1.095065746512127 0.4715781149963039 -0.09256794133640833
Ni 2.665949822777159 1.5907146321427807 0.5145721846529258 0.6758129232821006 -1.277312994783239 -1.7233788244410513
Ni 0.571356322810973 0.251771926408446 4.96745040165791 -0.49896473453937285 -0.2650138872463823 -1.4748153694412085
Ni 8.592157035426505 2.4367995583220354 1.4231844927370227 0.30794899604701154 0.1679503720324656 0.08606433588993564
Ni 7.021805883003954 0.5198925851347429 4.725929934448772 -1.4869584325616456 0.35058997064598973 -0.0970984822169102
Ni 0.8580132713030566 7.482016902897291 2.4593017014081697 -0.9044457007962875 -1.1897939287246477 1.0155057873996123
Ni 7.779799971389471 3.6115342058908757 3.8264825504077247 -0.9795052009352874 0.7514221252769833 -0.6419381249115267
Ni 7.665469309572068 3.9096522893895695 12.719952082692327 -0.9950246367271252 -0.049660857560237054 -0.7736860788815062
Ni 7.859705577672721 9.040823619284584 6.829080804216466 0.06271717652356296 -0.9432806713856142 0.5037120194163712
Ni 7.057353691532909 0.5272909841029064 1.0555299701296492 0.08101340372958953 1.0304462107595285 -1.7921725461759974
Ni 2.085984519744757 6.382778339769214 9.111426673738325 -0.7525109874657878 0.8324285870280373 -0.5874621053508334
Ni 9.101814459389285 4.846155049488884 1.2617271794087914 -0.5915930968000715 0.6958775552424596 1.4255962274040805
Ni 6.2548750429582025 2.0950751972187946 7.3138031517890525 0.44015743459317747 0.14324284198345652 -0.934760292619429
Ni 3.376281235641428 4.338073101502681 0.2745411760538269 -0.9576171426129443 0.011053429600684188 0.24651531422156253
Ni 5.481569863329062 5.623951241097231 4.944417667237136 2.4623922916410366 -1.318048524829388 -0.025934974698206943
Ni 5.320599679929219 2.727420549242539 9.510660435216417 0.2772705931265483 0.6573408326198421 0.08407584470499714
P 0.20039148976086243 5.7463675353691315 12.471064001677787 -0.6550849467061299 -1.5449283242082104 -0.3897314167321417
P 3.9220568990901987 6.133853135470168 12.534209803175731 -0.16495400840830302 1.0271564842646632 0.04947573813262447
P 2.3737443014204436 8.388984015665619 1.3668766191558024 0.38662192456888256 1.49668491582079 -1.4227929536273303
P 6.496556679548852 7.652602922430029 5.788286061697622 -0.8459081095717109 -0.25588775657539803 -1.209407332080201
P 4.893075259320022 1.1357280354591246 12.654167811656595 -0.4451988536718268 -0.9092423508539824 0.4761060847736445
P 4.100221501337846 6.154904754122694 8.29268440476634 -0.008640706394133507 -0.21718159825445174 -0.930431583337088
P 4.562170977481198 0.7449601937402217 3.888608819750714 1.043833687810028 0.9257493473700701 -1.2509674149101746
P 0.1132423157692169 5.509339891031126 3.5447693368766213 1.9011556956456357 -0.05859466971475715 0.050141653851397516
Ni 1.5147477158009723 1.0378040545012395 2.6192813269238875 -1.4229616179947107 0.6644401626687847 -0.21189592437548022
Ni 1.9489724365404368 6.477750566885927 4.934014998561915 0.309851355276047 -0.026332724357257874 -1.179267061051395
Ni 6.122516952006527 5.774789484164953 9.392861915358619 0.12736910817599353 0.28505203684418007 -1.200865613157777
Ni 8.77100977660645 2.4012336408738086 10.237816844975363 -0.179710083671555 0.5765912240746005 0.10845633043189062
Ni 2.3556534910687232 5.200791070032341 6.9222828844744395 0.2761099971595438 -0.14749930326696534 0.039673407330221996
Ni 0.4309696425005038 0.1765710173518005 9.226641050816154 1.1390431805343413 -0.24320707578393597 0.16878006702261253
Ni 1.7911169872552057 1.3976916616332846 11.459171999761407 -0.558373158404677 0.047183085443705836 -0.6484134482232252
Ni 3.923614266147504 6.787286323984982 1.5023259026270357 0.9448570147337985 0.5384751339291693 0.2221062892495788
Ni 5.674565670459651 7.82169495612291 7.818616439846841 0.32047001133215774 0.3217578769056459 1.4638987225287046
Ni 5.17902414906861 2.545724707737048 4.991714542589111 0.41710749475224934 0.9438229170423292 -0.16925880643124397
Ni 0.8537803114234624 7.735731916343514 6.835137332266648 -0.2392599182107299 -1.258576080495368 1.1366929351346102
Ni 4.99324474626751 4.451281010325284 7.039670331864786 0.020375221222242328 0.017339005499079817 0.7709691941709754
Ni 8.211896894114595 7.296002084145669 8.94969772662103 -0.876578027851742 -0.49535310592871457 -0.44032661318119
Ni 4.640030275886825 0.24066753711147415 10.599970783354173 -0.21732069493547734 1.1862203524407764 -0.6628705041888197
Ni 8.510440537216157 7.106537516272922 4.864573631279409 -0.6633201901317286 0.2861563256519523 0.22892176950951545
Ni 7.162928690882788 5.937914628958042 6.8945599399624795 0.053148301888205234 -0.01785554012418215 -0.04471199819539397
Ni 2.238597436901036 5.185045364726215 2.4059618796954645 -0.11879216514025995 -0.003876966456903001 1.0467475190227133
Ni 2.269219619388282 5.417536724786836 11.289888916970217 -0.1250222052103718 -0.7639858208746069 0.6717104710779528
Ni 1.1079942255956017 3.435397802601579 3.829477765655146 0.23584112233716803 -0.4086917598847284 -0.5553755092289339
Ni 3.7647628263023685 2.369950482833171 2.615848781276071 -0.41722345150482343 0.16940895885586307 0.2588517242997284
Ni 1.1361807584408996 3.4697504224586493 8.1485808687755 -0.2722826529936537 -0.6996879301274853 0.4944102823994711
Ni 3.50502659719854 2.571846823785453 6.7509199923049765 0.021706024218523908 0.2139864883559218 1.3674638420377223
Ni 4.140541010094708 6.995674712495914 6.162591990353231 -0.9686726290961576 0.0677709368973865 0.024926588038350617
Ni 0.5434740198094278 7.188009544073112 10.945201936674243 1.0407146825650722 1.245946050436183 0.05887697684186634
P 0.23526202470908325 5.712349930518574 7.692058635737665 0.47393298838172576 0.476414874263315 1.1029454063705197
P 8.537957040048429 1.5943545249162498 7.968100135753093 -0.3310966378080685 2.4298652655476087 0.7959623737812034
P 2.0081523847180365 3.388070142086843 10.40476749896445 -2.420504136047683 -0.6661980259001559 1.4591771486833192
P 3.9283044762386905 6.0775162876181135 3.6552654350383924 -2.277750060775187 0.34966077396350104 0.1755523527494396
P 7.097618873531959 4.062391968980745 10.294456111779244 0.23298102718055358 -0.9687603037139575 0.7254722381804409
P 6.28937253416944 7.806175612307671 10.315302194198045 0.46321225953011186 -0.5613597518368267 -0.31717848506507956
P 2.5614070318257265 8.603837288356294 5.7837008833382075 -0.043840908444350304 -0.3122144561915849 0.19479217481565808
P 6.7738676148051775 3.9621409918965376 1.6679781471043922 1.1331239868364291 0.3401080972780594 -0.3764969203197387
Ni 5.177303801737866 2.989130650546905 0.4995309163064403 0.934406765934752 -0.8424600031221104 0.14863830196741498
Ni 1.4472014469201748 1.0462428108815214 7.059628171793346 0.28933446626961784 1.1784800463737253 0.3840037702197451
Ni 6.98874805087476 0.6433447095889447 9.24455711009691 -1.591009434836989 0.1801407434510704 -1.2570241626272156
Ni 2.9562176897718784 1.8358641267738252 9.173777493680277 -0.32809693174979626 -1.6531699675261335 -0.2736013718050772
Ni 6.213242637554194 2.086808475571587 2.7375425296690596 0.24516754194441648 -0.5333398695851331 -0.08383750344194593
Ni 4.171136029203049 6.983976350646853 10.40246132809529 -0.39513973223190657 -0.32602282282958694 0.041837247750760205
Ni 8.191940865077962 7.360442673371491 0.5163169790246857 0.36163774381971914 -0.04391084245033728 1.329846803015897
Ni 7.75557929186452 3.978185494370636 8.126264342111895 -0.2715856269266291 -0.919644777134229 0.08951887009743939
Ni 3.2774336998007216 8.305203100658376 12.42710641103938 -0.275746443172538 0.15618860351084715 0.37511289548801846
Ni 0.2432643561349343 5.035257438976211 9.868467327524225 -0.927782575750015 -0.8538538467813488 0.6322836325408981
Ni 8.384357186791881 2.306569265384702 5.792513588901435 0.44638670333234093 -0.0864937101178704 0.5418589627997378
Ni 3.8263965330411867 2.675755802562401 11.695735150320113 -0.06686462303303323 1.1103571254535587 -0.9627598631561483
Ni 0.9871352983810058 3.55881914189302 12.77213836624747 1.1544186345491472 -0.7883544795269584 -1.066961017856111
Ni 3.0831340504826206 8.35430543526167 7.998897974757268 0.580930989100535 0.5275926826887107 0.780867427121294
Ni 5.356337632110521 7.7220415733746455 3.6768929173237375 0.6658434707742146 0.878507640774287 -0.0051208661663331165
Ni 2.857542188664247 8.412761026668429 3.5343395048224937 1.1639399437760214 -0.9860895390210245 0.5770208554128514
Ni 3.438268066306031 4.194415044925908 9.219537827232108 1.6293723508859035 1.472619133120838 -1.1578238035759543
Ni 7.406267293586734 6.57937782183473 11.814686302889509 -0.7519006075752986 -1.8776398719118825 -2.1719298824145623
Ni 0.8650685062510349 8.906980596952689 13.007986214494968 -0.1931898633255447 -0.5391767879818843 0.3005092519395147
Ni 4.596423998282279 0.33162048959599144 1.3819839850576268 0.06957250888249954 -0.9281746689821112 0.8876728522133228
Ni 5.792337026938543 5.542913827359545 0.3085424828770401 0.7969103395167695 0.7566496922245097 1.4195322805981874
Ni 7.951363872562843 8.982286537741107 11.118022596845021 1.4151601196724208 -0.38040653978679 1.949997656849003
Ni 0.04859166307985091 4.766928527678297 5.70671896207126 -0.2776385179889283 -0.02645742286058024 0.19511279137987045
Ni 7.837359171292317 8.431177797567027 2.8798840678148325 0.08728843810502386 -0.1977098626830853 0.24577560784206062
P 8.447032156388781 1.53151657504591 3.403262619909241 0.4407287337156151 -0.6849118002595752 0.3768941557581573
P 1.9280928526209837 3.12020300823034 1.629546493181531 -1.4444015330360414 1.5665795839293988 0.6600752008318697
P 4.818276368271192 0.8601446911012524 8.417479305584488 -0.08501918245487293 0.487291926187135 -0.9986285520282995
P 8.469822231291323 1.4386993093224445 12.628366223479286 0.05379056345789445 1.279321026352203 -0.01921616791713465
P 6.224931944943617 7.609376932130172 1.5544334123833496 -0.16312261162651906 -0.7619626197969909 -0.061829631712287066
P 1.4826858742316824 3.130959706277309 6.052824776192116 1.6217845112363167 -0.3474604238780726 -1.1281694710446313
P 6.795362901979844 3.875408323048125 5.839425649718901 -0.25787444798812365 0.5208813321068061 0.6191715206389723
P 2.2355913563020513 8.655891376800758 10.228712585811872 1.0887189783584927 -0.8462405532104652 0.42007403357974105
