# total energy = -381171.8837229672 ev
CRYSTAL
PRIMVEC
9.23223158298001 0.00000000000000 0.00000000000000
0.00000000000000 9.23223158298001 0.00000000000000
0.00000000000000 0.00000000000000 13.51230412995838
PRIMCOORD
 96 1
Ni 5.8356011626102156 1.7958444249233123 1.2272386771275345 -1.2442954022066377 -0.8005119408250988 0.3141558961886719
Ni 2.280952025248193 8.65123787094558 5.289539600735711 0.06995123237815695 0.46071391858829047 1.1374269850871572
Ni 4.100606375021402 6.1141098880646005 5.467632114629461 1.7549668836599774 0.6096455834264082 0.08137181551027275
Ni 0.21602405993418686 4.373557297156812 5.01460559528981 0.19305693729210624 -0.14009838281720388 -0.44315585509986904
Ni 1.4204157339496464 8.836039447417235 8.272029504425754 -0.8794095837632662 -0.5812037831459475 -1.1982965668790202
Ni 1.0644762835181032 2.0798186313824045 7.688865450892945 -0.22249272605472 1.065833332009571 0.39080459519166244
Ni 2.4066765528193077 1.4824932580639198 12.220122185944692 -1.2055211096519176 -1.972885874301086 -1.5169830039481937
Ni 4.9579575464776795 8.983376628758654 12.741953756439377 0.22751717585250492 1.904807947686242 -0.3366486779745493
Ni 7.889643403848799 1.1793437069312187 5.888473228768757 0.789851375787459 -0.742160240359083 0.20175857883116222
Ni 3.53274105218606 3.1015958445512344 10.594294842086047 -1.046538488335701 -0.8314094017349036 0.2217795020377793
Ni 3.029889103058735 7.236693836183423 7.07028563438352 -2.0692791029208557 -0.07829780457063934 1.9766718237060796
Ni 6.924570556103805 1.9375776417886195 12.73367059840319 -0.07794633476849157 -1.6101957779574527 -0.5008493531565955
Ni 0.49767266729685056 6.776790227653898 7.366042937812726 0.0010513240826498023 -1.4403204209881324 -0.16290098253401622
Ni 5.942048790962025 7.275275331316313 10.225868798649662 0.46482511254318654 0.3434618442416407 -0.5484152758610168
Ni 4.756371773271974 4.040338368266796 4.578238637559947 0.04749984535317626 -0.07717191849631226 1.717031799177101
Ni 4.676069824321059 -0.17065410503311995 3.5806387920518037 0.4516762338660543 0.311452895435212 0.5316308573138263
Ni 0.9041447364433666 0.1436415191012412 1.4168733267511566 -0.2751540610041777 -0.31058000591195545 0.20097747769076357
Ni 8.309266786662892 6.797525819438647 4.922923997882136 0.44838470759897614 0.21588087716515722 0.14280781132856696
Ni 0.35300544728408406 8.746080584393816 3.8671804820707085 -0.9007137445576809 0.29230357620027075 0.6836293340027259
Ni 8.255904489015583 0.8165844071446466 8.255085590088019 -0.5838785017646332 0.3303821282395471 -0.22968667269999798
Ni 8.393307789341689 5.89997751234978 0.49018440438651634 -0.279403580309151 0.20598444398705168 1.5341551448521062
Ni 6.282081106645072 3.3159497938203004 8.70428811917066 1.426457289852795 0.5824376555530486 1.3742842073936654
Ni 8.177642863210007 7.732427734880631 8.916201989673604 -0.018238377384897624 -0.41744096683226817 1.5063957153506509
Ni 1.2580115509195775 4.7502415716045325 8.350671498166117 -0.005994269910221935 -0.3030024506750137 1.2765295796499951
P 0.11244673233299039 8.409159530701624 6.203390182078146 0.7005860164617225 1.870297058393566 -1.2183539997505275
Ni 1.057182820690876 1.860950120945599 5.314335527901998 -2.334931137971869 -1.7073636799597176 0.4892750180554348
P 6.010367303520863 7.289649915647949 4.451952790318078 0.7102888455717831 0.5561057025267391 0.32186586323841987
Ni 4.933113611707972 4.275270961386355 7.036235318434939 -0.7281091615826557 -0.14235298317933548 0.27548161954692557
P 8.606544638608103 2.1822964002206606 3.9391207990183075 0.17683867566103093 1.26589061187891 -0.3654925987894351
P 7.94423358827588 6.414231267289288 10.892862436761593 0.8958003664164637 0.7249634168648225 -2.1196390434306465
P 0.8980468475859189 7.047543878709712 1.1063444530389583 0.4500957767528119 0.5820795008826813 -0.11734874782551404
Ni 4.721686279801223 4.747111845150823 12.584886726397182 -2.0863882517973167 0.1953932987347667 -0.2383345781829831
Ni 0.4451560420482436 6.085536131798438 3.1004390459534474 -0.3294413615928326 0.13270209035313274 -1.311056409782271
Ni 2.4243655082331905 5.069667546742806 10.953046430210215 -0.5167313144941746 -0.058847923376143814 -0.8972697518731385
Ni 0.8032936867825247 2.8235487306681923 10.992204939807284 0.2779696760761019 -0.10586208734215317 -0.09894813383113926
Ni 8.108641165525581 1.5854603351678003 1.511512931108 0.7122871069487345 -0.04023802158444038 0.0767937092212871
Ni 2.3521879229379214 8.028099178557568 2.8508262816420227 -0.2716563322635644 -3.256647967143779 -1.282271624340095
Ni 0.3396999553516792 7.546656774109154 11.974090604203752 -0.9307342021791712 0.3825621526772121 1.9108145588916383
Ni 4.7592799261714385 4.894532116575083 10.03442647811266 1.3680060876944375 1.3436379432627181 -0.8653381932718645
Ni 7.261907060210205 7.9673049346116285 6.679158457091605 -0.417804520819274 -0.7117132367231355 -1.1494623189851365
Ni 8.615444509703606 3.4862013735632087 9.157477125783423 0.34816362059268424 -0.6026915207060781 -2.1017415943249347
Ni 3.120725028067709 1.1757154399804588 6.741612656248095 0.21495168048266852 0.20175523639705253 0.8166165596964452
Ni 1.4184677331185769 4.648899367231781 1.3198213403224717 -0.8831407686709242 0.559404942103301 -1.1820214838680803
Ni -0.044748625726038556 0.23037741013354152 10.352087250602114 0.4239072912829022 0.1774475128896234 0.40547556694027587
Ni 4.834984223871772 8.482481912693824 6.22984791090127 0.5175155009583668 0.8358316991723154 -0.726902285758748
Ni 5.751246264062904 1.9402734533652655 6.951796406581644 0.6722270057030552 -1.4785128728974537 -2.717613618277029
Ni 1.6669255452785006 6.448168950014462 5.061533027632589 -0.4913797231032634 0.5703575844600628 0.2563834652648939
Ni 7.040324273733899 1.4548519571718714 10.36881513072446 0.3201044004626229 -0.09703266197598129 -0.9795887617880289
Ni 2.5651847341872376 4.799597080812578 6.446301269596806 -0.3577134690646484 -1.0992993249775005 -0.6057511334680084
Ni 0.06885213553531057 5.0684858211201655 12.128738789612106 1.2958190240072263 0.2681478048896737 -1.2452413110596747
Ni 2.701637114676375 2.898902203574305 4.629315034705962 2.6464418832282095 -0.49301057383846714 1.463601245892944
Ni 7.778958181272055 3.6568961004146066 11.176634457352435 -0.39225598292620834 0.7703994377104345 0.8737732114130952
Ni 4.064194454273828 2.3860794445059605 13.25358371120737 2.478671488417034 1.026178179511794 0.21680184631752986
Ni 2.153454909243119 1.1466339109858188 9.700442197237354 1.2801298954067437 0.6012182785946613 0.9438152037328456
Ni 8.240052747655646 4.068468977424469 2.0807058488225265 0.25520358602417986 -0.9638014170467852 -0.12047598060058605
Ni 7.084251230862947 5.54016052471895 8.672209807854857 0.8213206500403339 0.11501392904475032 1.2577435572917437
P 8.594690453456002 3.8818763480560006 6.902436281257883 0.38160390252900084 -0.3307420826821271 1.5462372728276208
Ni 6.651130325702771 5.951419505860298 12.381243088806427 -0.6289111165242395 1.0345890292833084 0.5209085858003157
P 3.1764969381174297 6.281693352925144 9.25972501205915 0.4651860954270311 0.7680126826458128 -0.978112948573451
Ni 7.972844273467751 8.327075761085323 0.5277014232358876 0.7473142737561969 0.3865507050113149 0.011138533115322752
P 6.2842876099560945 8.712715300017107 8.311201862369963 -1.1180447239058036 0.780215909580224 1.4189728085502917
P 5.10469463277635 4.436373399785235 2.605685610233773 0.5973420834687068 1.0403688691898791 -1.6436926241633176
P 5.774769989738569 3.2399408324828802 11.341917250141403 -1.9849464050100456 -0.5762587804358462 0.0010667507016175178
Ni 7.691612039742439 7.66653729918706 2.695164397222997 -0.5644522747192214 -0.5935131966409197 0.5905733972863055
Ni 2.038624414755711 2.346583958461811 0.8560272694696631 -1.1315923806832513 0.015225301590186683 0.2648261967156084
Ni 7.175105620334773 8.738667102558038 11.949430390839439 0.3375051124375736 -0.19809989903265238 -1.0412116768061488
Ni 5.707180823462454 8.533176095458767 1.3809571768312043 0.641078862235025 0.9268739478928166 1.4309428364279744
Ni 2.5419564399172327 4.851962297465785 3.6802379511311623 0.4439194727387709 1.3138517131392211 -1.201477535710163
Ni 5.748495059097697 6.147899855086944 1.4855832859224931 1.9518190263284578 -0.8267361646289503 -0.40569179671614
Ni 2.4409096669501413 0.7853573075664019 3.479445226605025 -0.25256100619501015 3.5973134795872044 0.2635869249918686
Ni 1.080392650498027 6.783012751635607 9.905248172764752 -0.10587699974048864 0.08437152156854502 -1.016814736019023
Ni 6.586883227203184 3.9687331813199926 0.17147669685325403 0.5931442433372752 0.18167517781772582 1.3681420990516695
Ni 1.1756600465918978 3.0885137726193594 2.8477851846100113 -1.4746518472801509 -1.3485837173037678 1.51836265790454
Ni 6.187247625428264 2.5977560466612344 3.373617080981958 -0.20175523639705253 1.116679725237477 -0.28361890394207934
Ni -0.09445034361259284 0.8535991926043963 12.742967455450048 0.4323793333096553 -0.2922801791615031 -0.15051752126799886
Ni 4.164955028066686 8.865619516908927 8.837749256677492 -0.2741395036967343 -0.9463742227092734 0.09748389058078695
Ni 7.097444089571944 5.268852939777524 3.5937457910085313 -1.2959167259273552 0.28641497862997767 0.5434664164961738
Ni 7.206245936937607 0.709913358792306 3.577355810556409 -0.13038269819133674 -3.108848873248207 -0.3774600555639564
Ni 4.600171649760762 1.9023012855065495 8.75689152739468 -2.401369472100761 0.13863311112558704 1.0999156184052605
Ni 5.115634827017191 6.610813171061629 7.856769274184 0.23161834250507207 -0.11712686162269505 0.6255041477252196
Ni 8.999671517227078 3.0897693560934143 13.416893576140415 0.3410493781454062 0.5676152458282354 0.17673531731394723
Ni 3.8389834008467627 2.766825900781504 2.524922972934658 -0.42194656801210556 -0.3512970240153434 -0.6280495398548925
Ni 2.2681099913334166 6.008086942358426 12.990918418104636 -0.8222974121313064 0.6771550391322918 -0.17419532450091288
Ni 2.5135765605110345 8.457324082055605 13.320064086489117 -0.6021171362598469 -0.7729090915061656 -0.671118860240541
Ni 3.3678810955964438 5.94073781409941 1.4178731774146867 -0.10558929329674073 -0.6884550375261435 0.3359061433815699
Ni 3.434962489144081 0.6018630150647911 1.4252645018950385 1.4982748860157291 -0.4698644747393069 -0.4450736409478722
Ni 4.205890742213428 6.706865306826785 3.310568326121578 0.9648779379404157 0.06524688492395214 0.6153369773842307
Ni 4.74245880051168 1.1998854218560044 11.012986692749168 0.23746760219699747 -0.37700985540041526 -0.0006422615696892166
P 2.0170948510682503 3.730790880755274 12.680999794889754 -0.17106629195362796 0.05040776302859061 -0.0007489623508825812
Ni 6.987155852946556 5.306169619204932 6.399089484526079 0.0003355289625478093 1.7099062438759134 -0.2582336310997552
P 4.4880646635442805 7.256164612262691 0.17153301346495797 -0.955081263564968 -1.3543841260356286 -0.7358242708387263
Ni 3.8948660976736065 7.257632537059564 11.430504203574792 -0.7435229250345646 -0.4867568796192714 -0.5255684531698303
P 2.001335432022583 8.537182883898028 11.007812027034408 0.5172931005349156 1.1360391036006952 0.06615448433988606
P 2.986119093863945 3.3614185335976345 8.053967891015658 0.2878159727425623 -1.3204162537306163 0.2780861470493082
P 4.526184547105826 1.4351319108440772 5.082153216524503 0.050123656129268515 0.491293076926728 -0.3873698584785006
Ni 6.992990623208337 3.338707244287535 5.402543036623742 0.7736567683054676 -0.6484203902017607 -0.16799022413146553
