# total energy = -340873.1182291666 ev
CRYSTAL
PRIMVEC
9.21438202161018 0.00000000000000 0.00000000000000
0.00000000000000 9.21438202161018 0.00000000000000
0.00000000000000 0.00000000000000 13.48617949263802
PRIMCOORD
 96 1
Ni 5.9988850229074435 7.463170070017492 12.537089652545365 1.5957284375792131 0.7878340882471141 2.358980722721905
Ni 3.712907483200574 7.474595903388057 8.51944874328462 -0.5261744621849455 0.347811122349272 -1.0226161731921486
Ni 1.5412435634898485 6.618856270223305 9.713730290590139 0.0024158085303442266 0.6037780689020376 0.11612618827232259
Ni 3.8726572196082114 1.5653391717672882 12.998977123674072 3.0797954075256766 -2.3850388532615376 -2.4743471500100678
Ni 4.71536771697782 3.2661758271750165 5.845004847674845 -0.41321150213195296 -0.3738247728042143 0.20426360464120305
Ni 6.117059468857028 7.303088615866839 8.193811570785368 -0.2976234457512874 -0.525565882066669 0.47282484291921156
Ni 0.886565425872724 0.8087287789121058 12.84197143015172 1.2450281666076042 -0.5173578923345801 -0.6703968944728519
Ni -0.026314431402949267 4.429657382041464 12.864507043598806 -0.6567775039172045 -0.8703646999521785 0.10325678850882217
Ni 2.4949505034254376 2.339209023079248 0.8547122295995762 -1.9205371854960405 1.594784071388073 0.9988103290218024
Ni 7.344737621378894 5.18341223799218 7.809899883781712 0.02785404609779074 -2.6417843298515407 0.04995833419599783
Ni 4.162117807917004 3.90806808867521 12.967379165775412 0.00864893392424962 0.5484440722164231 0.3407292758018261
Ni 7.78758080830576 9.071558833322907 8.133581764473519 0.5455937472518217 0.3056712557564284 -1.1523129010600541
Ni 3.6672317928635687 1.0681679900397405 5.446797968823534 -1.8810848930376893 0.2076392059816553 0.43607837942779737
Ni 2.5416305613732426 3.3015406243332626 9.552814013452894 0.01133367984526435 -1.7373885084565819 1.2745783694608952
Ni 2.918074913406329 5.115115240457808 8.415268178899451 0.7469064967948169 0.990353713614017 -1.5244980813783164
Ni 0.7556474899622598 1.2528979153728617 7.586137837353664 0.2706669717671016 -1.1259189844475577 -0.22716853426383457
Ni 3.022427786730232 8.490656564628974 3.5013084206831264 0.43011470564519466 0.08989630804151616 -0.41692674620001097
Ni 4.275841707481119 1.254160285672674 1.9315850460789716 -0.7051237564310759 0.48696668163723233 0.08101340372958953
Ni 1.82704604224371 6.273280097054242 4.280688472281858 0.00526947592905544 -0.062343852344544246 0.13368399465042785
Ni 3.1940087893054536 0.7730119923709924 7.628848339643373 -0.14429056652168054 -0.6989412817694478 2.2510000463748523
Ni 2.1660984331334507 2.012909336532137 3.417802164631453 1.0377522575026386 -0.23050274084339012 0.7916105245704109
Ni 8.637119162552455 6.735150982295797 8.284587052599974 1.7374373594166466 2.772286070119245 0.9364335665567937
Ni 1.6987081332233733 8.600851355982666 5.387094303709637 -1.5303172591632548 0.5967589572717271 0.6452548479895855
Ni 5.027937974716753 3.47727731307794 10.280878251645165 -1.2892359714730701 1.8984964036459175 0.6556775859848063
P 6.8618026594558 8.118828617852865 10.007486623670992 0.7482982349360209 0.37644781224935814 0.3452960692369021
P 4.124421772175892 1.6097340630409802 10.650938880001537 -0.7926225107746929 -0.7275730865735277 -0.12988030463362146
P 1.2786336836018823 8.839218197485184 8.881188784920331 1.6959634085425759 -1.2209976080209617 -2.772383772039374
P 8.663288006723748 2.256832450230181 11.944533955251634 0.759125407458512 -0.18213309129075086 -1.1963672110667913
P 1.3900724164918845 4.884939984331443 11.246286534965657 0.43860680227660587 -0.19143997051397352 -0.4776628877378032
P 7.786834443383973 6.2954038276370845 12.885167530359679 -1.0322806928651058 -0.9729540300803308 0.5907376907783117
P 4.958461536318323 5.547730463641668 9.300150137226368 0.7227934057966972 -0.044424291751646076 -0.004316882207799017
P 7.609936742538739 -0.0015019442253241583 3.735779421581553 -1.1278902492413156 2.085892800218137 -0.41930295974167137
Ni 9.105403257492327 3.155842820095069 6.821282415708174 -1.3282380637678803 1.8642912185191185 -0.23644610291101859
Ni 0.15136741332924872 7.546440437896353 12.399328195308838 0.7876122020442952 1.792925879402254 0.33580432769638296
Ni 9.008348174514785 8.507721599630818 10.187216825466315 -1.951861449530619 -1.260351427228236 1.93202461731035
Ni 2.911790705052519 4.336159050419597 3.2022528966575856 0.8645059271785563 -1.2081685745770934 0.7900130981763039
Ni 8.416867795571331 1.9675285064111463 0.5548062181384684 0.6002314892013598 2.761761002218205 2.5483607253830565
Ni 5.47668758034566 5.745065663209411 0.9182536847125387 1.113255015826644 -0.01888423849901264 0.16251711683203623
Ni 4.8044984316499715 2.7024583804456834 8.266150917593665 -0.8290835818152044 0.12834844137012735 -1.686901298340308
Ni 8.691668302515149 2.1735897254965706 3.320836461156891 1.1769504971030762 -1.1761526837921292 1.3069063921696396
Ni 7.675616855655981 0.2602454695307995 13.046462518586866 -1.1594551685317902 -2.0221608092768144 -1.30723112249891
Ni 6.602307240599488 1.4428155376314886 2.3555230859684286 0.6041051132241532 -0.22010365699725318 -0.4164778315880505
Ni 6.540441881526933 2.797919375380397 11.727959126588942 0.6605817081546429 -1.1915685041265671 2.4497599475890066
Ni 7.1088678773307485 7.982658484344642 1.7049094121414294 -1.060422959627277 0.02987313341034855 0.38192246221068415
Ni 1.1981276302481574 3.7671801917107537 4.970439311155739 0.303860942020567 0.2561708350334556 -0.24082572003595298
Ni 3.5414370532063577 5.533411314401461 10.935632868630819 -1.564115181549306 -1.4424405526549289 0.3988598613959711
Ni 7.754206317605612 3.8128558820477587 2.112150992299062 -1.510570929774263 0.6324247861044527 -0.8187523750925254
Ni 0.8834822937390218 1.3429408538383076 10.025706220706168 1.953259101209094 1.4359698573289204 1.4714330832325369
Ni 8.624062383612062 5.971969813814364 10.813420680598185 -0.04849383383532939 -0.2564600841391002 -0.3467109473065577
Ni 6.181836572562727 1.3275528363150477 6.78929284658512 -0.36249623516527246 0.44301727263947577 -0.3746868636941934
Ni 2.468846159926399 3.0434273627395187 7.160702460429758 -0.20072396691906078 0.038656278919617294 -1.1231851304561624
Ni 9.19982302728924 8.58616363147244 1.1866087316219136 1.7437651014068871 0.026775725431947433 0.7311726309993278
Ni 6.294629819570046 7.285415431669466 5.881875274811117 0.7770197712404295 0.08759979869785559 -1.733675578381369
Ni 6.944013373433359 5.710898735678724 3.494066838065444 1.0282335193789258 0.26701009174080464 -0.2271947595160797
Ni 2.238357614820518 2.722702377151433 11.802915357814365 -0.6934524907407348 0.6007068861758816 0.10648995073413918
Ni 5.173635778954948 5.248345986187636 7.1392053078059465 -1.2754813408911387 0.33828749912955286 -0.1498076396851678
P 6.232709174206988 3.689595097371923 0.33516945042009894 -0.009477343362815936 0.5477732714016437 0.4138226533533905
P 8.710023350962055 7.997152706838108 6.314998210429427 0.17383537005833288 0.6483039192285545 -0.03601601308329281
P 3.247516704130345 4.948592933463585 6.097466007502861 -0.9395299460939304 0.3912740786289132 -0.7452072547155231
P 4.886810503826785 8.763273263097934 6.85685914364668 -0.051005030292957325 0.16786912517256894 0.6452340220539792
P 9.113078837490457 4.946381481843477 3.6786253758980063 0.006669955821007868 0.0747972476165486 -1.0799787702720174
P 2.7270515653376477 4.606932872538467 1.0700283737151575 1.356213980155516 -1.3306212192880762 -0.7897909548631687
P 0.9647734124178855 1.320126044624181 1.9205941315270287 -1.6127100597388744 -0.8615872108698645 -2.038123246143342
P 5.638464480738398 0.4895066589875193 0.30394651785868226 1.2124011246012023 0.12197441952298348 -0.7074858289053493
Ni 7.8775961036259545 1.5048098980485498 9.934040629614465 -1.858588768817702 0.6973803650402313 0.0116147014207929
Ni 8.512706580157813 5.99050914989628 1.4619289296964575 0.8018396584975868 0.331947415844138 -0.1931790646922673
Ni 5.954563846687756 0.2796832078333843 11.392409122202547 -1.0911306731237789 1.6282109835879508 0.3288852319790465
Ni 6.032084440354334 5.1767318112231 11.856374436415981 0.2128063520048916 0.26214659300091625 0.5149163727726229
Ni 7.30717058698229 4.1718574094272345 9.98345459462763 -0.5527100465816287 0.3849975015915821 0.7019309605253911
Ni 8.614156923230322 7.3984666813657975 3.8003510445742164 1.367678786262006 -0.31247362339024254 0.1119769419906394
Ni 9.10808464258171 5.884506902239046 5.762455965887045 -1.2573303810137249 -0.6477773573011231 -0.09027091777211549
Ni 3.729659229222901 7.309990187797929 5.717991966750224 1.0361111223547896 -0.4185434558678276 -0.3412172711818382
Ni 4.955061429452406 5.3569835470255 4.420742467697898 -1.6542513735157705 0.10566334106778577 1.2972231034436046
Ni 2.6202292377046232 8.700947184937856 0.9067347860862949 -1.3966738879427751 0.44991502820057355 0.602157502579479
Ni 3.376693121889973 6.323710408374482 2.1103984168901255 0.0814630896724984 1.5807944419772002 0.24421109156841808
Ni 6.618386336754031 2.823765716190423 4.5268783238905135 0.15782382512142495 0.39815640757104337 0.014087331331001544
Ni 5.405865842211663 3.9218435893921404 2.5950914828512075 -0.7074660314110074 -1.045673055011612 -0.7821969445659949
Ni 1.7554871535696768 6.813104651904646 6.948915424524601 0.21600480433753122 0.9881006559137823 0.46974466133199105
Ni 2.7965740756448305 8.871864752027047 10.327689153813827 1.62178759656011 0.7082743862449157 0.7075511349256459
Ni 0.9022870040153502 3.856191119420149 1.8254888117278831 -1.095358080941565 -0.20659636653943775 0.4839906297280438
Ni 5.513895253853997 0.527979467110194 9.000568472002877 -0.8813859907633464 -0.4739131908873838 0.2244112832336716
Ni 4.888634951413375 7.306737511040018 10.640663001473431 -0.011222093968064544 0.9563393043417853 -1.0177588450998472
Ni 1.679560647945928 6.0415383960303 -0.015799900387505117 -0.6667448995425613 0.6560650512312121 -0.10569907940172764
Ni 5.145117267437288 0.2275897006071872 4.036736794000388 3.026621908826491 -0.7095337125733135 -0.14482407042764736
Ni 4.756537574638853 8.230552996577133 1.439096613157005 0.571163625301126 -1.7417069333262778 0.5452309645957643
Ni 8.267650097504463 1.2573208186130798 5.70675779252007 0.5298377699691456 -1.43032217212484 -1.1621196027378309
Ni 0.11206715372538328 3.438466337145024 9.122415770518193 0.6451507183115534 0.5386926492566142 0.09907874587173258
Ni 3.851786644943431 6.752372661787397 12.971439022374662 -0.20798424802589988 0.13477851326618726 -0.10321513663760935
P 1.3198680419351683 1.5282052133129547 5.3301696961316765 -0.5528357735262156 0.8499390851079749 1.3088354908715525
P 6.895923515077735 5.003483005551046 5.767027220673445 -0.6796968317175391 -1.1641312338512209 -2.05306881170958
P 0.7530831275211083 5.152055696895381 7.747311195741747 -0.4293140641207703 -2.119136649872931 0.7924487042009901
P 4.354974817954026 2.3107181547068416 3.840945003375846 0.9244604533553176 1.4448231939544922 -0.653129622751972
P 1.3844977155328593 7.505362724052826 2.523008295855573 -0.2018467676695943 -0.2053298411221883 -0.49949746711439136
P 2.355020902163029 8.217652862126494 12.330237839505754 -0.710052304080945 -0.466933417135441 -0.0038854510973352443
P 7.005657587343903 3.0105596630356457 8.270938710351201 0.24533414942926782 -1.3322849801437442 -0.8621672517430506
P 5.070895422437375 7.344157115328616 3.522603778346603 -0.04103789177791642 -0.6936856897974635 -0.3600215483725348
