# total energy = -340890.3633658668 ev
CRYSTAL
PRIMVEC
9.09519040134431 0.00000000000000 0.00000000000000

0.00000000000000 9.09519040134431 0.00000000000000

0.00000000000000 0.00000000000000 13.31173050830192

PRIMCOORD
 96 1
Ni 6.4902278260724 1.8813856112723237 11.620808362315746 -0.12894185197975214 0.5613165573037171 -1.58594873248463
Ni 4.42964877343638 0.06834307974292377 5.976979864872403 -0.2968654845393403 0.9193110479438941 -0.14084297429271228
Ni 2.4520178572959903 1.5065455291018843 4.8342346758271 0.8556027111516554 0.10611122723848176 0.6905198904749721
Ni 3.4737988329899143 4.363417596905549 5.251663896589035 0.7699546368635319 0.5203141467494266 -1.2082739898067063
Ni 5.306388747738218 4.869110183435926 2.534247473749608 -1.9128930386872218 -0.462914525784035 0.41781891899697715
Ni 7.22669267875449 6.24513063503246 2.6344983004721336 0.8989785070341293 0.010794262402026572 -1.099896335131551
Ni 5.060236514611274 4.641812280019008 11.413917337611027 -0.7039742162076651 0.042455855171365596 0.07224491350834009
Ni 6.224429981670173 7.985713603641533 12.510697253386414 -1.1482770404277838 0.6297117580486639 -0.24199300087117678
Ni 1.8930365501814137 6.515930834157559 0.35446867470082194 -0.5813796466021794 1.0524687377772068 0.362575168032324
Ni 2.4839328804279166 1.5327487726593305 0.6733005743559007 1.0650123787701724 0.08009320590816528 -1.5208679408248968
Ni 0.1807041524900034 9.242441537883167 4.997742551817948 0.26301922541385675 -0.07609848292647539 -1.1051442137940515
Ni 9.048914076440841 2.1794713816130895 1.2966412678159136 -1.0866543825199801 0.31969199551555266 -0.5368753935422174
Ni 6.48839969280095 0.6174815718009685 4.8860836277701525 2.3254365682178726 1.313887451473163 0.4783596566945117
Ni 0.7075812565122253 7.502376995127192 2.4514748744287984 0.33181577536228013 0.3048613582606234 -0.2993039187775039
Ni 7.896344262719816 3.893851106664716 3.69530946675199 -0.002551562777260122 0.6351982350845319 0.17543305356275593
Ni 7.801081238415514 3.797787705604754 12.790150616663043 -0.2388176884669887 -0.37221217690145575 -0.19061747461267817
Ni 7.8728241003319095 8.836441333384435 6.926665994781249 -0.17785400429942272 -0.24150037750547437 0.43715490032142773
Ni 6.715333788601659 1.105611345658861 0.5155581395629223 1.0732607348218934 -1.2528936853986101 -0.058533220349202414
Ni 1.8935185952728908 6.537904814176576 9.237541958811875 0.04813259384116872 -0.27805066582568244 -0.019380461409140817
Ni 0.08315641635590984 4.736411355423728 1.3274657776182537 -0.24480758750183645 0.24807288851666953 1.0500506152540174
Ni 6.285731565001374 1.7328702471454436 7.168047800540656 0.1755443823296396 0.8343013785707178 -0.7933809862072724
Ni 3.403929580296994 4.568632378018586 0.09945044996686615 0.5586935178585734 -0.6826895957972758 1.568053083151132
Ni 6.162018785109536 5.534332409673908 4.733158915334821 -0.6004929703928626 -0.08612398548327747 0.4962244527900745
Ni 5.122047428605167 2.850068865380558 9.34620583665923 0.5551109427136376 -0.7565427343330002 -0.016372527820752446
P 0.3849020913157373 5.4049533261596165 12.572849237020506 -0.7119526064274513 0.5257893109313848 -1.125537689848739
P 4.528195161476967 6.389516782715369 12.582700237748401 -1.1531071148265755 -0.1420308239532264 0.15683060797022022
P 2.390752654726411 8.521292985843472 1.4489948022937975 0.5596432833663524 -0.29064855709535103 0.18104782864637206
P 6.5286731959152755 7.553210014301982 5.595399337092654 -0.653533800168926 0.9790514012273203 0.8328564185940752
P 4.722659427531032 1.1857126875576565 12.573821512874822 0.1288570055754297 -1.0420768530199214 1.7448277383434467
P 3.9520694204485456 6.364495913910602 8.241944217256505 0.2518866058358049 -0.8817742273407009 0.10915978425681845
P 4.654190834160516 1.0693124407516175 3.68259711912261 -0.07337234224456396 -0.05270658636509633 0.7881423635161523
P 0.4392549491773477 5.63454321755865 3.417321338649644 -1.4600695785906015 -1.3521950888041099 0.8174333991707857
Ni 1.36888982231884 0.9921215597824931 2.7094826882489516 0.7071664978927176 -0.8567977599010211 0.6953746474641121
Ni 1.7997562773854507 6.392909288736518 5.040486308646333 1.251309885851258 0.8854884429674944 -1.0067516953560662
Ni 6.259346417635824 5.732743988363839 9.08276637512908 -1.2709001492783596 -0.22810287315264585 2.0680529438232385
Ni 8.692582706745029 2.7478662107970715 10.621096866140094 -0.356894829818095 -1.3646258583682949 -0.1786353625501375
Ni 2.215370098142503 5.144285169145936 7.159727520357958 -0.12296403712976244 0.45457258157724295 0.8256195345260039
Ni 0.7178106171609792 -0.10109395087308987 9.221568075903182 -0.17134757063947265 0.5026972049986117 -0.46740521456553696
Ni 1.4931665040158018 1.2233212998832521 11.348170025209754 0.13753473585508572 0.06737730100339363 -0.6919555944802341
Ni 4.149744288715654 6.7676675141933105 1.4113361664209734 0.39478774820912654 1.0010569589641338 0.7096589252972682
Ni 5.585038096183024 7.9602106897452884 8.030887595346194 0.07795687629145284 -0.9263468717447529 -0.21348358057757427
Ni 5.321605001286156 2.8414921008284333 4.903376313287603 0.6240846416698737 0.4080412707849231 0.4056789412003336
Ni 0.9504564925361683 7.470252782615947 7.175661384428866 -1.0013639486815915 -0.3079744499683083 -0.7886252166898419
Ni 5.073106209034664 4.542629228650055 7.296519184052506 0.5481172850046238 0.31777086723343984 -0.5047183491936984
Ni 8.14040460205356 7.301164097792452 8.988372851027517 1.148379370333603 -0.13078738982892313 -0.39800111294010165
Ni 4.333976465563843 0.4154410121393533 10.556162663761048 0.5967335033504303 0.3361961638181629 0.1093706147160439
Ni 8.404619883325276 7.093402663365953 4.516364137797853 -0.22566829556922424 0.33905420209224835 1.1519807145316159
Ni 7.202272092516468 6.0449182086422955 7.045539223858468 -0.02483531387612497 -0.24521870689732606 -1.6786825099749414
Ni 2.340756393068902 5.474877149994968 2.483117041848568 0.03719434966211014 -1.1022373245599018 -0.1853233160932744
Ni 2.5130738704862496 5.592550723457737 11.56129125534205 -0.6968046950424193 -1.192199709952663 -1.3481612850543685
Ni 1.2216477848486909 3.3420822855414807 3.6881742898790923 0.012577065334062212 0.634130970162282 0.32013576792119064
Ni 3.718168408797436 2.93838316421527 3.068513510457033 -0.740346327078796 0.06320517190357502 -0.7986653745346632
Ni 0.8486458406591469 3.15453945938579 8.405372965090828 1.4904595037363686 0.2246668508879034 -0.5035510683584747
Ni 3.8706856567026136 2.6040166793480704 6.981842876893573 -1.2692325317679496 -0.7354082663472302 0.23441518852391888
Ni 4.256721918261882 6.796899456155696 6.075619933374165 0.01579428671977925 -0.7309625718710508 -0.7040770603341164
Ni 0.6188076505620499 7.186464651592191 11.245696333952191 -0.7431233756033008 -0.02496309770324088 0.5257561437006042
P 0.0028204185446595326 5.558225474868428 7.8619216955931694 1.501246052828911 -0.3020408580926927 0.963003089515206
P 8.452078586859727 1.5159499559808842 8.33163916599473 -0.559052700970205 -0.26745155015359745 -0.1691251090668571
P 1.8357914217709426 3.3308406302006253 10.567783588541802 -0.02416451306134548 0.461938792134327 -1.9339259480981212
P 3.9371351178031704 6.054986584420877 3.7704548393989796 0.6585502795469109 0.8045136057853242 1.2641252924483712
P 6.744984109322685 3.8678479572961844 10.45836117181465 1.4190147175318206 0.21763102708704454 -0.3894627364517873
P 6.583426242154716 7.73043889453815 10.285774476761306 -2.037087605789975 -0.3951826696547001 0.0396536098358801
P 2.289668708562767 8.525494963810685 5.713021977489155 -0.3613883468130744 -0.2203134590152141 0.4439143305324484
P 6.850342794976784 4.021802245285388 1.5167248662034092 2.2031924399732703 -1.0957607156966225 -0.4009666233263288
Ni 5.076080336297172 2.8377175968102657 0.8420272706012665 -0.4294207649019637 1.639184708990635 -1.0016182307842425
Ni 1.1341520531504494 0.8316824010343662 7.03401197953889 1.2363697196016579 0.7888951825217768 0.8078961491043118
Ni 6.5890015938731175 0.7230339850106985 9.310916497886968 0.16142439798848973 -0.15213937314213796 0.08334590851750807
Ni 2.7712408501384935 1.62873941219605 9.270861279342366 -0.30488346974781044 0.48889578033914516 -0.7155434091025031
Ni 6.598806209129947 2.1115121189052664 2.657473660954767 -0.41771993152526765 -0.08616666579575483 0.825451898599888
Ni 3.995535335395105 7.192512953211663 10.609303132741642 1.76593675240792 -1.3160888299998559 -1.38272693884438
Ni 8.296223404075834 7.099987581219334 13.487045933968172 0.9894713110090636 0.40925920235242413 0.300879747905056
Ni 7.636521958413821 3.6648705930228314 8.359101183904258 -1.0886827258039187 0.19241236172957182 -0.5881025671483098
Ni 3.413843337838687 8.33023032100096 12.761156968689274 0.3589290866393044 0.6951980126769317 -0.33073205537979816
Ni 0.003288820850528497 4.966183150630867 9.99428726705953 0.6923641427725624 0.7478693749287184 0.11597732139928413
Ni 8.659012358959352 2.3004010332409295 6.130664025706571 -0.7651975817945208 1.136490846426133 -0.5680045108468541
Ni 3.5456963131431993 2.7073289471609945 11.76417493915423 0.09247666717418267 0.5849596506439538 -0.3565806410117859
Ni 1.2340991005134407 3.3522961843665455 12.666177714325615 -0.1601768987346338 0.22774548981322712 0.3315123851892484
Ni 2.9942276333033364 8.397461968476366 7.983630805038737 0.4741322488767254 0.00328278451632983 0.26795960013826753
Ni 5.598990118264636 8.071262964593057 3.6716419622795193 -0.5028779535508501 -1.9036447806160761 -1.9135083036737175
Ni 3.1515107609808513 8.303672365017709 3.6867372497950672 -0.14590033421096163 -0.13062361055754923 -0.626567041772095
Ni 3.521339393238013 4.480390840707117 9.277131503607727 -1.0533082029593666 0.21470074081412702 0.6823867198448764
Ni 7.396363455763917 5.939223000943203 11.420133900252996 -0.041523316054767195 -0.11670314382171515 -0.25657526956072585
Ni 0.9902297601782067 9.010787038262148 -0.21273377502103535 -1.4742921499478867 -1.4097728872185786 0.7877261019143401
Ni 4.578082280849613 0.6952518163989054 1.5014431272845543 -0.3740659422807429 -2.404253221406459 0.9884372133175944
Ni 6.282466391645899 5.682283871995664 0.21259916620303806 -0.10634314074362976 -0.06911330985789388 0.9397119801977494
Ni 8.10160451978488 9.037563278815123 10.96999746527484 1.1317193931794187 0.5737432131028442 1.117387807048095
Ni 0.22361162274568158 4.7740927292725654 5.7059804810774315 -1.6000255222926703 0.002186980348989782 0.009799759699241187
Ni 8.052899775164912 9.09039723987906 2.5011809995123806 0.4182745184771571 0.10939786840955353 0.623449836299352
P 8.645069432068146 1.7585550648497923 3.646682031250467 -0.8733201830360765 0.35674570583474047 0.7346737021740508
P 1.9009584610243628 3.312086347585056 1.5836163535576593 0.9381556914542231 0.9260396249169794 0.14577280749416183
P 4.5670043389360515 0.7726791723185655 8.1759313252954 0.33230505629387286 2.0312375747671014 0.31062371466569727
P 8.506877109051194 1.446153464811206 12.531583448632968 0.30698174703773584 0.6699698342377622 0.2446093554481013
P 6.660935454788023 7.98233019281079 1.441460346562111 -1.5058745527398583 -0.09220413023908637 -0.6759507344115455
P 1.7773639186077927 3.3369616933433406 6.0520315570582195 0.05808713395071932 -2.1334736353208936 0.3328380459792074
P 7.0391771381700154 3.945784643878537 6.015384306358456 -0.5015348092593943 -0.6418491647421463 0.06644219078363396
P 2.252223809664465 8.378007356199594 10.496791989352877 0.4841916899952565 0.9528770568247976 0.8680409369150083
