# total energy = -381160.32512235374 ev
CRYSTAL
PRIMVEC
9.34054031472662 0.00000000000000 0.00000000000000

0.00000000000000 9.34054031472662 0.00000000000000

0.00000000000000 0.00000000000000 13.67082490689534

PRIMCOORD
 96 1
Ni 4.769606766888552 7.576709985520745 6.348594271153202 -2.0498101955629666 1.6482789579824193 3.3229816573740063
Ni 7.799509891932551 6.204958245461304 12.478195840097568 -0.3568272098049532 -0.40056141746811014 0.6637058556059214
Ni 4.567169238206078 2.8700117571675348 12.364071251302835 -0.6688485761491255 -0.7784212795736465 -0.7576861039088242
Ni 1.8613548379669433 1.8199108609095844 9.17643162101639 0.630271744317192 -1.2814704685950382 0.33262361597555623
Ni 6.473041090970265 8.219030916398232 2.07118447019758 2.0846792395260096 -0.6781767955285868 0.703992213929794
Ni 8.376036057339666 1.1166242238672612 1.511186390750122 0.0010862910856432903 -0.22799077305481383 -0.4950553721826377
Ni 9.10456083411807 5.988052219942713 1.7894429526915543 -0.45209378101944714 -0.9580028080871372 0.3406302883301166
Ni 2.414212074398771 5.00267192702721 3.985373139993968 -0.8810280932032956 0.18623168684015667 0.42748086756677345
Ni 6.869873943186153 5.2446106003965385 3.4864836769770617 0.021879573681910704 -0.2410879725584041 -1.0197743328679794
Ni 2.5502570430353355 1.8777007833918653 12.184765570531686 -0.7691036017171464 1.055885990988872 1.3086382872590818
Ni 7.53109078697485 3.224251745876199 9.197594483044531 0.38452107617579584 0.6839422372574543 0.8122587969483819
Ni 2.9806504563436484 8.928697142426396 8.51477763994433 -0.09864140122399785 0.33222072411018266 -1.186881125953227
Ni 0.7287779054189827 8.186544517433731 9.260425495095857 0.1993692526633792 1.0348250565535144 -0.15072038130742432
Ni 2.3088040777586327 6.669453971196126 7.66926446473275 -0.29304379680040504 1.7094295613498107 -0.016859751869816128
Ni 5.360050337257459 3.3922693837639097 8.423497210421445 0.19408152190187866 -0.2646197371317572 -1.8974252820689261
Ni 8.750488975133777 1.4294482571392941 8.606823059713102 1.082071134024672 -2.4610036388236263 0.21129351490479095
Ni 2.1182383757247725 0.20451579888650073 2.6050990910169842 -0.9006265841605134 1.0918773214818163 0.8204518742821354
Ni 8.691372695937016 0.9356419161225265 6.158583397209764 -0.9862867426334948 1.1058417540817083 -1.604537551230411
Ni 6.003594878906753 7.147110518133071 13.700354157898245 -0.20249211456307706 0.37052373345543926 -0.4866509501690264
Ni 1.4665862451447167 8.285787757513614 12.421065359756428 -0.4408878850012987 -0.6061915634395367 -0.8805334129550643
Ni 8.461604746504072 7.988637150769019 0.31789688067790434 -1.2009280909645963 -0.15124411502137822 -0.2738744229608057
Ni 3.7440341293082273 3.133461694716061 10.031692584025368 -0.6289082883107621 -1.2425923034726019 0.12604370449635066
Ni 0.6093609665226737 3.3310514830125166 8.43984782611649 -0.2073741252457267 2.6280813784431514 -1.88689661462346
Ni 5.954715831816115 4.282665722950252 10.4888989521547 0.06208237115304147 0.20960841389288418 1.4517021804625128
P 5.809180874292854 0.28588124494164024 0.6547494537245723 -0.2649267268492147 -0.5902088148580351 -0.21162570143322906
Ni 8.064743872667455 3.4778287323880717 4.715833276710682 -0.16784392836158835 -0.9527870682141526 -1.0080277338550123
P 3.477184235111318 7.24368236370351 12.068535623966225 -0.5976184770585449 -1.0651681876217463 0.24894294982644866
Ni 5.279646966847328 7.756907687885084 4.196806542984295 1.207419869336527 0.23618899259488998 -1.574149940077489
P 4.1062229177635245 1.2032390535388613 3.850675077260418 0.17137585277424677 -0.8890103400778236 -1.1477736184288039
P 7.771161352295616 1.5454297453342967 11.257842114671801 3.197779217832028 2.3196546714287725 0.4263886629438592
P 5.189538775124916 6.26462561653239 2.4392307114391447 -0.7222059087243433 0.9230538028157781 -0.25486574306878684
Ni -0.07672319755446175 0.8847116863945671 12.886132726554111 -0.22895133719587019 0.3938133001109992 2.6797564382199397
Ni 1.4381910028065665 2.570787550489037 4.240566974021872 -1.932798519361897 -0.9448081637737341 0.323925573980926
Ni 2.8515081469465238 9.210874863161761 0.25521531727046265 0.7339980162632649 -0.027435213392817268 0.27966351883875706
Ni 0.7227738061509028 3.4963510236895687 12.852284476822208 -0.23338571881814002 0.3337276476730124 1.0549909899784282
Ni -0.16339687262959163 5.6586487277396875 8.380146829100529 2.784598568938011 1.6682278903005203 -1.7349017374789863
Ni 7.001155236298883 1.9654177968121171 7.353919419649182 0.24959395314688626 2.2640684495230365 -1.131196173686097
Ni 8.120376130353646 4.259164923699336 6.864380771469356 -0.4708525496841891 -1.2625494633208192 0.3023571037815309
Ni 1.0979151217609078 7.844026906729796 1.1195833070161842 2.010585188624073 0.12655046892944014 -1.861099193944382
Ni 4.941724901942859 7.6051425900198675 9.011547734380143 0.7620356391267715 0.906471987197697 -0.28812399090128443
Ni 3.594688231365899 2.582033560941383 5.341109589753083 0.1287490192426557 1.5189475838737325 -0.9039232526339142
Ni 2.4725904509163494 0.3793585695296348 10.70608799604265 3.4020032274845473 -3.437630232659538 -0.7466617277738624
Ni 2.8401126878502927 3.085946366500874 2.648394363150469 0.398679627064365 -0.6409947871616509 -0.7040402935589101
Ni 4.628489884900142 5.2177098444972385 4.570361834861071 -0.5661492028056702 -0.10223683188474006 -1.6877669887747129
Ni 2.653535396500113 7.240805477308722 2.5021439202446083 0.4899784718803626 -0.7248492598844614 1.3047466655141593
Ni 8.218180927236135 6.4841002906177545 6.127879173323591 2.6645159671211016 -0.42339564175380634 0.2569416517612091
Ni -0.33717949195516644 8.331023993909554 7.268900888305079 -0.03895504110695872 -0.13020349230099512 0.2939737648138421
Ni 0.008706317560325517 3.4027121077553737 1.9928098651281891 -0.17208624857771007 -0.09396430746330268 -0.0934904531506777
Ni 3.4637525382421535 5.013871234778342 11.358459348221402 -0.7373340226150333 0.4151038340586593 0.5241204078693941
Ni 6.461795080517919 1.9168096253885212 13.154368756923054 0.6477048521919748 -0.981953919586096 0.35522721230768495
Ni 3.7517774371695194 6.413794044210106 0.6472975707188565 0.8630270286401845 0.3510985348512921 -1.2180904616764956
Ni 7.444466616763006 3.933264134087366 12.645908976373361 1.1124206928508067 -0.29328779449041104 -0.46057019392157456
Ni 7.625150027219972 8.467153027408303 4.921975263653455 0.03589928499977044 -1.5643980028970477 0.8680669050569374
Ni 5.988930230725537 0.9190661934076314 10.943508650096529 -4.635988763124745 0.3594888157975164 -2.4958050627735275
Ni 2.0453541402101063 4.56322753022361 6.914361068254621 -1.9503331858115505 -1.4383051903303163 -0.9809077377097688
Ni 4.306400035707239 8.926343326285206 2.242821567429381 0.05872759574819564 0.6926958150803684 0.27687438612939413
P 1.5130554328527086 4.881805336285216 9.933098511492362 -0.44325921344695274 -0.35051540865431247 0.5412349560624937
Ni 3.789793435957766 0.14725548503598737 5.974697115503539 -0.5485165773255715 1.988481157636182 -0.9336806864020047
P 0.03509894807041647 0.8132341362404689 3.4540159590930455 0.3406392871911811 0.7206269942729976 0.36951380413368623
Ni 4.04785388178619 5.372389190918214 6.898202867688579 1.696241859014943 -0.8151749421539122 -0.37070242512514867
P 8.673803139740286 6.274937572960455 4.0496949022680475 0.5543164718368001 0.9050249703385252 -0.5283496154593933
P 6.767053276193273 7.687152533351761 7.4770249378873785 0.2715334335324549 0.2520591268579272 1.0108518335673686
P 7.597203130813476 4.595928761613697 1.077102529991873 0.3300640827784961 -0.7722110369978765 -0.3061451100690534
Ni 4.6531115489801955 4.167225986089333 1.7485939680476625 -0.6820794730171027 2.241016195689263 -0.6794309796506621
Ni 2.4623625593504697 6.852435154552823 10.011582400882594 0.5753164711272349 0.4286211518188037 0.8558528794892486
Ni 1.5527994315858757 1.7904694780642394 0.7479372215650397 -0.5861223034934873 -0.6451381199060631 1.1103368137385845
Ni 7.194074754473932 0.7509065793082297 3.573020046110622 -0.1786677584499697 1.7965984431578348 -1.469206507894863
Ni 5.488062441285203 6.553930169473022 11.171715795254899 0.14108003000418284 0.9524973048878758 0.26442998971845433
Ni 3.115780052036417 7.363755008524864 4.700671711788548 -0.944324025048464 -0.4615430993578051 1.093036117676608
Ni 5.917680589753363 1.2074422966481269 5.403694011541999 -0.32869677011732423 0.2949428135953307 -0.453065143793781
Ni 1.116969823856245 5.772201675471559 12.096136920383737 -0.28336025096405393 0.18407993060447653 -0.4333812922116084
Ni 6.895261531566118 5.571744341320561 8.312285002074423 -1.5876580018662527 0.6647633503361583 0.8534054463900206
Ni 2.097324906121115 5.1750048945071 1.5831636598072105 -1.0461314827052692 -0.944835931687876 -0.32822934356260247
Ni 4.6102197881852005 8.991194697191053 12.301527927890987 0.5096913769282576 0.45030635010172126 0.7294361079241953
Ni 5.2453018003745076 4.820690181476494 12.831805342339841 0.8407458486444811 2.08815922765481 1.642187757483017
Ni 8.417564099259211 5.2432188599003595 10.301034534359061 -0.9193437009540426 -0.2620632892584906 2.500120659429746
Ni 6.43835032450846 2.8681436491189727 1.8267089060983035 2.696836790740994 -0.695060458657803 -1.5284737781966127
Ni 7.553564126799056 8.823494637671597 9.783183774649245 -0.29989655805618026 -0.062981228818227 -1.3371268816170776
Ni 0.1147616136392913 3.144698364628165 10.686210392351919 -0.06430431850502474 -0.09189045565340949 0.5667243585828498
Ni 1.5764216578599486 1.3222095146115638 6.523170836399416 0.8456080618327889 0.029010785410053263 0.7971787626868077
Ni 7.352200760244505 8.932452039604007 12.25031654790172 -0.8325280887203792 -0.8519360609333456 0.2699583757358512
Ni 4.403065286680105 5.422006140688033 9.159534583717143 -0.9034743380219536 -0.06813346244312783 0.07388939109029855
Ni 4.211051800908609 1.8382276603257397 0.9964974039124983 0.07194023778372771 -0.24107357438070098 -0.325985027613116
Ni 5.690985678060304 0.3315340694324106 7.528290493010054 -0.7719672964181866 -2.609225422078913 0.6574794150802356
Ni 3.260969409570694 2.538600048812305 7.486416851101526 1.1113377441992731 0.23403286548383564 2.1187764383200345
Ni 0.8070450942755814 7.943858600844976 4.673399202387584 -0.42088778773028807 -0.022624422267735228 0.19348862551288615
Ni 6.131429512669884 6.139228863772633 5.944238547825752 1.7522865086143369 -3.5197479251968993 -0.5779649644936756
Ni 8.970645508656867 8.130379848953698 2.6758723644367746 -1.813670053928141 0.7811019117296032 1.2874981628463569
P 5.536483801903943 3.777398539055554 6.145979272206113 0.36593482853317627 -0.39432263564724995 -0.26776779584243565
Ni 5.495235976191683 3.0009381097510373 3.7648635340496996 -0.6846225511539307 -0.12227318171032492 1.8605757173407442
P 2.6592424665884713 3.5339840603278603 0.24630163971674665 1.153629820099265 0.15364809647718053 0.06797713937092163
Ni 8.889775111234595 7.469443221372287 11.039026882727578 0.6888471307582394 0.2470465041346842 0.32454366718089916
P 1.9259633548264772 8.558802408270779 6.404931739627726 -0.26263741659440576 -1.6250930067842593 0.8066504496226689
P 4.498768462007962 1.1572088712222814 9.039381610249698 -0.8946374564566141 0.8614967080385872 0.9822449684639535
P 9.82484725440231 3.1211415221357917 6.074890288526116 -0.6769341813707374 0.6918769187234987 0.35041436430007394
Ni 0.415519537025659 0.8283125703544411 10.844053379753134 -1.4951342835042185 -1.1208369419389599 -2.3461604310287854
