# total energy = -340888.2136147038 ev
CRYSTAL
PRIMVEC
9.09174051131521 0.00000000000000 0.00000000000000

0.00000000000000 9.09174051131521 0.00000000000000

0.00000000000000 0.00000000000000 13.30668124552836

PRIMCOORD
 96 1
Ni 6.57852900105781 2.1201121053408256 11.264957661765049 0.0891907973340593 0.6811448770179753 0.608931588078519
Ni 4.97820989496029 0.3763307860574836 5.906809378037912 -0.1386405673247548 0.737493173900717 -1.1543309599313474
Ni 3.221785601060917 1.9427049690812122 4.725335855854546 -1.237155705838063 -1.5757041719384863 -0.11994813312157407
Ni 3.655434357181185 5.119204609720404 4.925028666915551 0.42332673618908384 -0.9431451742490143 -1.3621339451843768
Ni 3.633605087762883 2.8680714291662692 2.4677375384893523 0.49338081269369216 0.5820669024771911 0.0596184829935812
Ni 5.510494945924025 4.506303093978625 2.583266287551562 -0.19310733091406743 0.4278081689992051 -0.20837377015483466
Ni 5.713031653475678 2.8224399825979813 0.6488284382879523 -0.3840081410951193 0.5646381654777823 -1.0118931303476895
Ni 5.814777323638201 8.288203564282918 12.2239035569478 -0.797423274597446 -0.5411141142139132 0.5810785704219928
Ni 2.06972567838696 6.72619705349099 0.3561316657465123 0.5185182311912683 0.2559049829665786 -0.16310769922818358
Ni 0.9286122115146007 0.6251935491668285 0.11140109878486364 -0.250579199878291 -0.6483414573347093 0.09555787720266767
Ni 8.517833659117597 -0.020933732959450627 6.793885972169125 -1.4873255860930772 0.42297680904883284 -0.260256575067055
Ni 8.956001010365268 2.5549791547147596 1.2122090607904101 -0.1985246452748968 0.6313950592883578 -0.36615800028757584
Ni 6.910677564014428 1.1280213602657976 4.719348035430184 -1.4063461209252168 -1.1532387553084333 0.2042551200007708
Ni 0.7274738136824538 7.274892696416422 2.498422163348482 1.4351566173990058 -0.10235921639521726 0.03667807214732392
Ni 8.103132090614048 3.7920013942208843 3.529371008171042 -1.5099772620543221 0.9807316171432207 -0.02813095390826123
Ni 7.716142147761054 3.9242316709471603 12.342079820901558 1.2540601949028853 0.47373887009304866 0.7620127563086361
Ni 8.341408430853475 7.692949117237902 8.773187925086027 -0.519509391459944 -0.8623094337478697 0.7253609094135572
Ni 7.065919036449875 0.7836489519393736 0.224106862360034 1.0613436716693336 0.3940233592392762 -0.30619036148469203
Ni 2.2511877309983284 6.63670704979072 9.045310088425628 -1.585181258190986 0.8419712364111499 0.8139410697468111
Ni 0.4373090909256857 5.2408975589765365 0.8683230605913829 -1.2301466215100814 -1.371316125904277 0.5634330894260877
Ni 6.639343654593431 2.150242134017316 6.9317431272140135 -0.7783027517179112 -2.3308433410557408 0.7979079275433484
Ni 3.7924741647372326 4.150397812575518 0.2678090415519937 -0.48483215179273276 1.1658978388333403 -0.327302717983275
Ni 6.452281089711478 5.604112599901642 4.5622091167108545 -0.3504675861355126 0.4522807002192727 0.05480589209628625
Ni 5.337997349641872 3.1832638957192487 9.146373878035726 0.47192572814370987 -0.1510880490594882 0.1094778297178695
P 0.28962921922959695 6.04138896056081 12.122626111431273 0.0698671573047829 -0.05228569677759382 0.0018373103190549
P 4.096065570158285 6.224605719127086 12.60044254386729 0.4213888957364226 0.965596304163679 0.3652552859676484
P 2.359297619650153 8.499204682425342 1.652131117992989 0.2716154517232999 -0.04979069826988199 -1.3971569982267809
P 6.80340411550691 7.957464221134648 5.6176820228949005 0.2553249420933925 -0.20342465367967547 0.046877124167512815
P 4.901675621756097 1.251887235548992 12.561001663540953 -0.0544204837324095 0.22438557220205868 -0.7271948772985024
P 4.091392415439 6.35639050055911 8.046191427790271 0.8385982061738589 0.7798014477506248 -0.0617247307033066
P 4.911458334748223 1.3919818679799039 3.415478772434652 1.1125361353827485 -1.7314749711856245 -0.018139132802871983
P 0.5291738572965352 5.416831833242912 3.541466659996993 0.05892479936066626 1.182986418884511 0.5093337364785228
Ni 0.624377110852058 9.124470965517764 4.713080189392292 1.1820317682807258 -0.2562330557299587 0.2253073126853797
Ni 1.887945414851127 7.018923828776737 5.06415048309167 -0.5733639753865545 -0.7795240257195221 -1.8114501634586866
Ni 6.2112226768181555 5.897966751034064 8.926867436469388 -0.08020787710915865 0.3643733975833273 0.9563799277717336
Ni 9.038999511206452 2.6436509017521197 9.900131004904923 -0.8500768962374198 0.8812042137698437 1.1963556411025655
Ni 2.348532998662536 5.417368245944154 6.771796678966832 0.3303651589586826 1.5288769271723024 1.0447238037244653
Ni 0.6721923935362459 0.39556890937657047 9.136407511881483 0.12325277201477483 -0.3019323575392865 -0.01286528599844236
Ni 1.8053469506006996 1.4383133785820148 10.993727398188021 -1.282831610608623 -0.8540569639310904 2.376565011462571
Ni 4.367072176914118 7.375129137622912 1.4057313074390037 -2.0529142884095872 -1.2379054395198938 0.2462389206317243
Ni 6.209804365269111 8.297831717683161 7.6880286671716025 -0.5928387962817144 -0.2281293555152071 0.799290666823488
Ni 5.195647965517607 3.152088316862373 4.480266166964825 1.7367570455201704 1.2540002881992276 1.5995146440945225
Ni 1.419611667964169 7.962164651076032 7.26142964678934 -0.9147326845445924 -0.2802001080685174 -0.5593216383608755
Ni 5.252207684406095 5.059499148550062 6.811943078371412 -1.3009262633268046 -0.1501223427121092 -0.34941111984654016
Ni 1.137576779740448 8.048190701569983 11.634444185424327 -0.11498101892428585 -0.659913992663657 -0.7793610177790964
Ni 4.868327116872161 0.7923788413585546 10.365532665416453 -0.5850943764496053 -1.2549150867040129 -0.7164337821272564
Ni 8.598868343967796 7.114350739153455 4.653892048267724 -1.0445068026176525 -0.7379202341358064 -0.04564505153262462
Ni 7.576092974033637 5.924350982542565 6.7218830225293145 -1.0016537120078686 3.157467919807491 -0.7591336349886281
Ni 2.826031220174087 5.349016539369061 2.361549643821296 -0.5235231406050274 0.10219209468973367 0.580987039149451
Ni 2.470298681844261 5.591638731662611 11.422801190388553 -1.5118775644008284 -0.29432909127073187 0.009154669916074555
Ni 1.2577150413370517 3.4253224000894607 3.5165171051707937 1.628971258792743 -0.7721670711338185 0.37570784875954005
Ni 1.6827630107560643 1.2158021167146558 2.52739117673771 -0.5361403151484057 0.07024510946949192 0.14808757167026754
Ni 1.5016919029947533 3.748588332383153 8.049344443464685 -1.0077991627839742 -1.0626338512356668 0.16978279725551404
Ni 4.016967426076974 2.8415599132879814 6.915442545314773 0.3644839550192626 0.47361622847225526 0.3558697309876903
Ni 4.045115455281082 7.327124746732184 6.0181732006859106 1.0054067512923974 -2.0919490337145454 -0.7860147756501882
Ni 8.407732679252689 7.5398442038667195 13.532628718650669 0.1712318709972148 0.09765744004417375 -1.0093780772353196
P 0.3004338438762902 6.0688278339903965 7.801627239683415 1.575777448378583 -0.9722472338212932 0.040679737107549296
P 8.846309158831817 1.9236577723168042 7.882359169568337 -0.3428632914256934 0.15984985441251826 -0.6407255926606643
P 1.9435595927069182 3.565053362892413 10.135965303592599 0.7678525029188648 0.18140649753737145 1.035261629870301
P 4.504002883581777 6.485447759781435 3.5129640529056236 0.1794267481031813 -1.2801733470501695 0.22765138743752406
P 7.101949604840018 4.250106932821466 10.250815808798663 -0.3952747151478741 0.01035151843765314 -0.778432078206924
P 6.5369342873598795 7.988676166954319 10.096830814927818 -0.6634279193541864 -0.084809380436912 -0.8542585384189352
P 2.6926008336755434 8.982667085835438 5.561235041591081 -0.49463833924987716 0.47483467426038867 1.1806158617698053
P 7.297158369388276 4.324068243407842 1.2236182861935871 1.1756052959290915 -1.301870629517945 1.162329918976424
Ni 3.0232492594168248 1.7303673650560354 0.3448669990204496 -0.49142934539427624 0.22002883789525976 -0.09286310397932394
Ni 1.534122142068091 1.4129565137725 6.700326505331982 1.125308090336436 0.43547494151584354 0.37414153271368467
Ni 7.086220893430745 1.3139110905975793 9.089767791269674 -0.05574305919857497 -1.701255767289767 0.3075095945167478
Ni 2.9825273528259975 1.7760624538092162 9.094345482711622 0.8533051733667305 0.16698852233982855 -1.4864997477576722
Ni 6.891084862808079 2.0846179496519244 2.5055419054898698 -0.6091969259247638 -0.5928105141469404 -0.1548413454543333
Ni 4.301811662176687 7.268783046666693 10.475419080200863 0.2011299441082278 -0.3355199636867447 -0.3453120100765021
Ni 7.152299664831087 6.334252111957042 11.486447011977841 0.9775961568380325 -0.30521462783498404 -0.4331614628913185
Ni 7.979420774922736 4.139824118142579 7.97518675127921 0.6195787833797199 -1.7512156441476614 2.0949826783345467
Ni 3.2445240445491192 8.590031172008366 12.632511840834878 0.887091525788556 0.2079608509871322 -0.21742276773098038
Ni 0.18663343472096006 5.192365847125267 9.973477713820047 -0.16651826757162935 0.2960764129791417 0.41999407227142505
Ni 8.631162206930648 2.3641071504799247 5.657042895903087 0.6432275331469115 0.5925474902935408 0.4742224945976865
Ni 3.649061046951185 2.813493709750164 11.49994006434923 0.6008583241520813 0.6827893545999337 -0.5876706218172136
Ni 1.2108016593302047 3.510648386549588 12.392751728513373 -0.005760556632861047 -0.11143469633392422 -0.1931528394400222
Ni 3.5343232793297874 8.681921395253173 7.795013907498961 0.09675703971709143 0.06620719195469243 1.974489728453096
Ni 5.8835654337668455 8.201722926754018 3.601919462252793 0.7725506797254825 0.06916113237669379 -0.5098356158156058
Ni 3.5081026991538677 8.535753480035329 3.623076852033439 -0.3598184312227932 0.37430608331600695 -0.828145129161335
Ni 3.6644988226580897 4.849443571440334 9.560598130152579 1.0038106104498712 -1.3051606131231266 -0.2606826068608801
Ni 5.389547519405209 4.581119028190708 11.667843604056177 -0.4453050402323879 -0.1945846867905423 -0.6598553715115797
Ni 8.35283674891212 9.015460994536737 2.1490020205859723 -0.432150762238617 0.6461655327293129 0.6178661715639875
Ni 4.951825663451788 0.5352507767797478 1.3334092377006577 -0.3865201088836956 0.6013051818815128 1.3008036217060115
Ni 5.895448338860441 5.71928677107659 0.5280328438388106 -0.305496420741461 1.089463312723685 -1.36451992891805
Ni 8.025497716785274 -0.05110103777280703 11.29327388817209 0.33360809137601255 -0.5813503360261407 -0.4994956673421785
Ni 0.2228103801363564 4.596129492084758 5.66247157427446 0.6235724779201455 0.8181962454787393 -0.09393551110789629
Ni 7.602895425614294 6.383993025321279 2.1839061223035086 -0.36825859157034646 -0.970491170362135 1.2933844464238047
P 8.688421989852959 1.4703617645459948 3.70910472087553 0.924003568323557 1.9631514206221417 -2.8427342967384783
P 1.941604868456633 3.5117121202113717 1.2746338616038235 -0.5814580652485986 -0.2651601830162595 0.006483550841814641
P 4.962090238700961 1.1580331963132011 7.932419203031109 0.43871350305779927 0.9917009716705308 1.6586888404618336
P 8.632189573629635 1.7750987292951221 12.146311914300313 0.6420551101053652 1.2638653539187652 0.5350295985827301
P 6.368709809206257 7.922906514737743 1.2297779405171605 2.4893179123872873 0.28610593202999113 -0.22449921496178757
P 2.2386047618709104 3.45637069457655 5.853955452658338 -1.1652663758969286 0.48161775862049316 -0.5446576085907975
P 6.863891466377367 3.911139564340598 6.134925698046206 0.8533087729111561 2.408764993233884 -3.4690218595969418
P 2.5479421474137327 8.694386171751503 10.004242345997328 0.7464272431655531 0.24887250159982946 0.29831687227388626
