# total energy = -340890.35357493884 ev
CRYSTAL
PRIMVEC
9.12082798446101 0.00000000000000 0.00000000000000
0.00000000000000 9.12082798446101 0.00000000000000
0.00000000000000 0.00000000000000 13.34925370268071
PRIMCOORD
 96 1
Ni 6.7208553947200045 1.9292922598501818 11.443647486600925 -1.0650761421285722 0.983887389163383 0.3692559224866092
Ni 4.820895717661906 0.5203642143124274 5.907218253289044 -0.6232467191496105 0.18477798511276564 0.05019873234157806
Ni 2.4661715573907266 1.540799712758767 4.604557886659512 0.2898741408231717 1.4933892757886538 0.39614940444334357
Ni 3.456930617830038 4.245189055399377 4.522900937896774 -0.09068486538108254 0.5187115781489969 0.3255669662390909
Ni 3.9703420249713197 2.5986515838381794 2.8457804180270765 -0.4557316348823506 -0.004638784323592012 -1.1871860587881553
Ni 5.308303644224758 4.6116730445687475 2.6640041404991974 0.3294380191587229 -0.022852993338773542 -1.0553087783291633
Ni 5.445344084663517 4.243209835727151 11.597925379844025 0.2804980989249105 0.06660391317247884 -0.41308988895242404
Ni 5.763879881128291 7.919386916603239 12.240985708426956 -0.6460349206887197 0.03606049316798306 -0.06460128092015326
Ni 2.5438171660067104 6.667717450893302 0.18070731648831687 -0.9326543020200195 0.05153390621323382 -0.7676239318478264
Ni 2.929281598207898 1.8163490469414858 0.19160853009313583 1.1649958958443614 -0.8212859401476565 0.6536459002667582
Ni 7.925516113007554 8.724318227724794 7.326604240191663 -0.784582671189352 1.1479525672088295 -0.39829601847270113
Ni 8.686795141404325 2.4382618237639306 1.0381782451209163 0.990375825101204 -1.1404310620208036 0.6502111635535963
Ni 7.227243764314674 0.73480400101164 4.970020343094829 -0.7010099913730186 -0.29055368338869964 -0.5574514179213562
Ni 0.860202616613392 7.68726184444574 1.929153623264846 1.3957588323276737 -0.01755343550273106 0.589576837700991
Ni 7.781151647698756 4.340264566290135 3.4682030491337494 -0.3409041108167935 -1.2247041103382714 0.4328027940003191
Ni 8.007439389947384 3.9315876268731977 12.50432590227215 0.01644708981242974 0.13476000132342597 -0.7525199863268524
Ni 8.492795130214148 7.370158017974236 9.305524749260838 -0.48321724189712906 -0.8682563953599242 -0.038760665707965505
Ni 7.052962983222907 0.5407784515031118 0.16015991520908646 -0.2766964657906332 0.7770010021873521 -0.08821377813277066
Ni 1.9496408270793912 6.971486626854225 9.102975786002558 -0.714975195303859 -1.7886928151575132 0.1694009884360631
Ni -0.04552752495801068 4.801240333359375 1.2453596769115656 1.629009054009214 1.8213512246224826 0.07465198028793595
Ni 6.451900419168715 2.3721996666858653 6.9218018285017395 -0.2235653902936085 -1.0313815780896043 0.5074087515416681
Ni 3.8122051094087768 4.3640699273247545 0.5791962910486756 0.07819341778229115 -0.12470595952153361 -0.2003763537716549
Ni 6.171252542143715 5.756501131290357 4.566619802665834 0.009358558396764529 -0.3861082181572576 2.0388012460469724
Ni 5.685796472769142 3.49906884310971 9.169389094957953 0.3758770273475527 -1.5886766729387543 0.9472669097268719
P 0.35015223458370326 5.847426665449025 12.656974815637556 0.8463971333929875 -0.7445557371744532 -0.6284133509522145
P 4.351920984451914 5.892738938866646 12.4603397972432 0.2017639781478009 0.9195522174204228 0.38920742590787166
P 2.712087321457936 8.683082964415402 1.0642838789727511 0.36132432634435835 -0.2936274372180169 1.1971316000366414
P 6.21043561915702 7.856343753587418 6.07726149770009 2.498563599355271 0.9297407279176504 -1.1791181941783564
P 4.841052747503481 0.985569309317205 12.438487205479658 1.3036799148125418 0.9192272299808362 -0.010434307959446545
P 3.9661282024433526 6.286986728415091 8.177953269082332 0.47231370761074787 1.2445291154839986 0.5255450561310626
P 5.186038945117832 1.0661791870275381 3.6851547118593735 -0.11742433825845584 -0.7653155954296239 0.6336635436075603
P 0.47378414580522327 6.227856400603811 3.459178901927752 0.17761154927131348 -0.9411458844307985 0.2410928576544106
Ni 0.7423542224156469 8.89691165563978 4.275338864378703 -0.5852244742695664 -0.05324471825675346 -0.14617981312459338
Ni 2.1578875715784096 6.695134659809035 4.858460759791095 0.9536584150755123 0.49224618486861677 -0.8673729643137061
Ni 6.079214266971167 5.934840680834387 9.190841282373059 0.2830481190402738 -0.05509231298845351 0.17039060604284204
Ni 8.99911965401294 2.468223743686815 9.970997688445445 -1.2384682540018994 1.414056859305913 0.19779985129373032
Ni 2.4854165044340397 5.325970688027079 6.9713270123645295 -1.3493691893195405 -0.16928374613190844 -0.7630692225976085
Ni 0.4249886281810424 0.2280079304061475 9.155945906594381 0.28784451198765265 -0.18171811524051928 0.35884398312466587
Ni 1.4228674069435818 1.3190997469853945 11.295257087820602 0.9452853605204686 -1.077414094868635 0.09595614108235087
Ni 4.419561044770972 6.810960054360237 1.6855034728685174 0.8132766966899349 0.6094463229314084 -0.14759726229741033
Ni 5.50235838038283 8.326203207111723 8.078234344665626 -0.44111954139613063 -0.1632514238948995 0.15597648750004103
Ni 5.729448755493927 3.0746858379067135 4.676564087333846 -0.21428293655041805 -0.4160847099146898 -0.2289395101213283
Ni 0.6308803748949501 7.495085998852085 6.641267049743724 1.1237518015929098 0.230040713605307 -0.5818529866941721
Ni 5.229463207143052 4.723156925000226 7.217273787246881 0.46659480284909965 0.3016608490454547 -1.249242718909584
Ni 0.8583556489469129 7.638511018878674 11.485885128905608 1.0516323579188405 -0.5359680512365995 -0.1582326305240694
Ni 4.720429797433424 0.3513680409537856 10.165190149106055 -0.6730847257176601 -0.07611545220733988 1.0891897473473242
Ni 7.985877752596487 7.476771376262999 4.807960559416964 0.3186622686994577 -0.26620225112752866 0.8799693129214782
Ni 7.316673482684194 6.2209610546489555 7.214670702940642 -0.3228446822119214 1.2973940818038303 -2.104549238977059
Ni 2.312905163970899 5.527787248798355 2.2171638326374112 0.04151457430401883 -0.28191786209057257 1.4525377889899307
Ni 2.4084184746048214 5.237234152584238 11.514746164890989 0.7901357397970973 -0.19230900338248816 0.16846690665756794
Ni 0.941907905764437 3.7543243350311153 3.366908957724447 0.6974343582066183 -1.028917689930144 0.7648990767174956
Ni 1.5130997581755714 1.1996807462090435 2.304922615320516 -0.04608933815889482 0.7993382322319718 0.2999222690877931
Ni 1.085077542607512 3.406911997173389 8.088499836560057 0.032655324141176015 0.7743442812907954 -1.5320082737124325
Ni 3.6773445468578623 2.9951978220382416 6.90895970270222 -0.34310600356411874 -1.4743610555126092 -0.1183972436946864
Ni 4.397552486848927 6.903299316856211 6.067622606688065 -1.4567698247934073 0.16473675019117434 -0.026188742580225865
Ni 0.968485998505771 9.45063712246421 0.11766597763809285 -1.244758200775669 -0.4494727984568324 -0.6020975958758211
P 0.23983308388560515 5.883645473367982 7.906122496468124 1.109399903746612 -1.245617720562487 0.7840692218880432
P 8.395302599907998 1.8439486724168725 7.728670403486802 0.637546166491418 -0.1462191510029611 0.826679343249086
P 1.9810712003074755 3.3664793667264656 10.1996303955684 -1.5727142360722268 0.8234662356284269 0.350690500779596
P 4.1949150515592155 6.2982600718016 3.850378510764407 -1.0096035629825644 -0.33213356371301506 -0.8186181635075064
P 7.3936715125134125 4.430141205230803 10.407838832589892 -0.6767678309962022 -1.1897695032446154 -0.79099294559107
P 6.453815793045063 7.932840137877593 10.022058819740506 0.3578209411767902 0.3553557674657493 1.074326971302879
P 2.4622039972182903 8.821838120514892 5.621758227420418 0.6008218144871911 -1.245799754666306 0.804793341809272
P 7.16495763002141 3.9760972674283486 1.346325418513494 -2.2199190086993315 -0.10862396635800646 0.5615158177987168
Ni 5.555624015801291 2.720998370396949 0.3222233472181443 -0.04549978420401196 0.04482229852101313 -0.020853703520557633
Ni 1.0470984148879119 0.8135888010426521 6.939208928706556 0.11312596799341808 0.8890481352942946 -0.9299970669028307
Ni 7.00424864096777 1.074050461576533 9.349002824171155 -0.4582263762797463 -0.5520197053828235 -1.8040685262826348
Ni 2.3396109483039895 1.6044083671095095 9.007768935188851 2.0718242379402123 -0.50309778287114 -0.1905817362787363
Ni 6.760521875616388 1.9244399793634317 2.3842701704380556 -0.576638275262452 0.39294940944880713 0.5028316736939469
Ni 4.219641616220079 6.695526855412288 10.419132241797962 -0.6449874532608117 0.9502966976921312 0.19728717332336992
Ni 8.45883828763488 7.549865691715659 0.2509002965597077 -0.22456117854797453 -0.5635140791756682 -1.2020187529256137
Ni 7.833897395922208 4.242562256940385 8.149078551854977 0.829548951487397 -1.642016007791843 1.0404303185554338
Ni 3.213541323114012 8.699992979495166 12.246138064154335 0.19550334195006974 -0.17374178190326206 -0.39511093587650015
Ni 0.48008572585841053 5.165225215661509 10.265388829074645 -1.28415341474384 -0.7097697398435195 -0.7102117124769446
Ni 8.594364670628526 2.6624244130926087 5.3849952142337605 0.8660125936310699 0.2883139954249035 0.3809158753230408
Ni 3.5626227724925568 2.7149877447564075 11.379985019365087 1.3136761067933052 -0.15564070142717712 0.28993456174746196
Ni 1.3326715390235224 3.3057346523622635 12.724735270885983 -0.47849849626522106 1.0013580351443208 0.18851328378548177
Ni 2.972760585201014 8.570313047238376 7.841872647910204 0.9212722854353231 0.48319564463057424 -1.1078217606262146
Ni 5.793549934555731 7.9590807599835705 3.63500201503138 -0.6899424207049473 1.0771071051511771 -0.13683102491984178
Ni 3.1675267459417302 8.687114370383716 3.2327087431194736 0.7978148536089099 -0.5153837993273447 0.5225872590543192
Ni 3.4714965801182713 4.36408816898072 8.981204523689492 -0.15841183641441106 -0.4437888606981777 1.0997310131982803
Ni 7.5752489559912695 6.356186450319175 11.286606894561892 0.38310388411329505 0.19130370204642536 0.7543341567174556
Ni 7.975990775063334 8.863419975287625 2.375032595857265 0.04492925641252263 0.4056231482617337 0.5573737706058852
Ni 4.77863892161846 0.42426534652202114 1.4203737725731354 0.2023141942243161 -0.5541100122529489 -0.048623160324342066
Ni 6.510045697557872 5.690201832684743 0.029417406492321472 -1.0226765941164389 0.6707712470931351 1.2757546491571834
Ni 8.108333989091047 8.971255524526056 11.29349494385436 -0.48251738761662705 0.07471188699159391 -0.20386868319562956
Ni 9.485387477077966 5.170378483471685 5.422306697345033 -0.7686765414820569 -0.509645868402303 0.8536227046071492
Ni 7.597813884420255 6.491940854012386 2.696242619086541 -0.34443423545723906 0.06698726465382657 -1.8327208999120048
P 8.674080707196563 1.563091016348273 3.37381068825889 0.7973679958794784 0.6246937360087822 0.5935209099504036
P 2.148338064680614 3.301913025437549 1.5992669563757105 -0.47999924918046366 0.5284236632304383 -0.23705699702214011
P 4.896005736098723 1.4990171997704171 8.336621928916262 -0.6473299853510593 0.5070824785505008 -0.9322580950228654
P 8.68552734631474 1.7251225254593916 12.324698491816974 -0.16398778784029178 0.2556668988138436 -0.01888809515375457
P 6.521665632407721 7.774612014035224 1.1205247284791389 -1.586666584487261 -0.49563669860740445 0.6048139663657196
P 1.8022208843964185 3.378847209470889 5.74993778347407 -0.2663014957095543 0.25268236226422286 -0.008274581303966395
P 7.110041124738098 4.234362632584016 6.039883432544545 -0.08205804294401996 1.334252131172444 -1.4213719049100877
P 2.458765445068845 8.682125277477228 10.20259466466275 -0.21356302766525798 1.0319137964439906 -0.4119652884296776
