# total energy = -340861.1099534959 ev
CRYSTAL
PRIMVEC
9.40352911832440 0.00000000000000 0.00000000000000

0.00000000000000 9.40352911832440 0.00000000000000

0.00000000000000 0.00000000000000 13.76301538796163

PRIMCOORD
 96 1
Ni 8.8272057627282 1.6477052047451834 13.467991328646754 0.6206000255553827 0.030157754530302904 0.6365187536681682
Ni 6.386491531597254 8.082182946178046 6.684063394106528 -0.9652749162685182 1.0511348494571315 2.404948704811587
Ni 7.561659987283243 2.428743538377521 9.339526963398699 0.08190506230592345 -0.2802798122665173 0.42318224019141953
Ni 3.719001788728999 1.1012285050809771 10.619322847090741 0.15789093091393455 -0.7888843838884995 -0.4678785546575297
Ni 3.00323335172001 2.954974439535739 4.483494612620841 0.9973483997642952 -0.3154087947591665 -0.38513659827260766
Ni 1.034980641414144 7.7593315759476145 8.412023959710611 -0.391397491580655 -0.23460724993006693 0.5814531801525922
Ni 8.610905782591296 3.0165205385704335 4.646765270177707 0.5945758335774792 -2.4179700567719196 0.8741066834931139
Ni 1.3407552025006466 0.13213181075113853 6.501759052965839 0.9030969000778769 0.1871266878506003 0.6564653719934243
Ni 7.481899252063644 5.4581469120400135 12.414859054693775 -1.135638525728167 -0.21971542041989903 -0.5945784046806405
Ni 6.5748536262899915 0.003176512185472846 4.982349019031968 -0.07255781676306858 1.0380525623518768 -1.1467580326800961
Ni 1.20845694928153 0.17314812469606294 10.39872921549177 0.6569579953591267 0.55211689308232 -0.06287195693387237
Ni 6.71999710048411 4.704896007383616 0.8543228582476292 0.34933758629612743 1.032382251439977 0.9678971843827138
Ni 5.883214645373137 6.835359597498264 10.385020750530305 1.4858793405648538 0.4327148622722031 -0.22711531242839594
Ni 2.529793863851444 7.072864536126113 6.676851827513754 -0.6925816581000072 0.8509762681232377 -0.9808092644586914
Ni 3.998117344351275 6.270508401651659 0.8913107002557373 -1.0312782197425208 -0.31204193516946255 -0.8387352459723555
Ni 5.5267644650814445 3.2747696627552783 8.077472718369568 -0.1627927390909261 0.15816321073871473 -0.17416961346930004
Ni 3.362702064905535 1.6445174083245937 2.5587651971617555 0.6136693598738205 0.01256446692857191 -0.5946197994415372
Ni 4.719358635392074 7.021069896938474 5.4039383868902355 -2.748979791293136 1.9906578535725266 -0.2887415698806253
Ni 6.78537983945863 1.0404628989752176 12.648142749034891 -0.08763553703179747 -1.4129340585553793 -0.15783385242375397
Ni 8.142487779349855 7.314469413513187 8.097745787110423 0.28188083820505 -0.7843062775995137 -0.08817289759250621
Ni 3.042728174629974 8.975236120406453 8.81061417569431 -0.24703467706014226 -0.24135331040464886 0.19342023416879592
Ni 8.692142871905387 5.163524936660944 5.182449539305303 0.9747358045711019 0.17678853914938586 -0.5108784552578234
Ni 6.494575696960856 0.08379296856812148 10.53935993599196 -1.540914575063127 0.2134900083354775 0.06059395953297306
Ni 9.257229155983598 1.78448894142336 7.6595309795129145 0.20640096269918 0.5968528025371139 1.175818440381162
P 8.120286046756895 9.436441616702194 7.37120936874091 0.13670092709988071 -2.141857231398898 0.1736541072854622
P 7.367618160914883 7.093345422863709 0.4303572185442793 -0.41433764531659617 0.03457388132012756 1.6342427916043274
P 5.762031363744397 2.2104312029780613 10.704254583052768 -0.9142691146446126 -0.6319979829796794 -0.7813531085084608
P 7.820501533811738 5.610841420233348 9.981063000042559 -0.46348273958267916 0.04982643660382386 -0.24500839065873287
P 2.399197649429162 1.2468609627968383 12.712360390733567 -1.2953513403421886 -0.9535889952901576 -0.17321907663057265
P 3.810554549646002 0.9767821987975323 7.552496248015205 1.8744902705393074 1.30099696866374 -1.8072543802097845
P 3.1108003229740766 3.4522894882063038 8.626341675878606 1.1333062780505643 1.3694430772512802 -0.6232806577113396
P 0.26387619609658886 5.910024107305592 7.060069153856211 0.18448333669048228 2.543465344963968 -0.3543957175453252
Ni 9.340892355847872 6.2050504344430255 0.015872217045173526 -2.277488322473368 -1.6469558682956218 -1.2997440700932454
Ni 1.6043925489539226 6.9240630890481905 2.90562001619218 0.7116746701757163 -0.4304296657824523 -0.06911819495390031
Ni 0.24916155350384786 7.2755670129468735 5.11452972813528 0.8976896130193766 0.4369985772492216 0.28821526506351014
Ni 6.728432066234167 2.3924553189466753 0.9417343048766446 0.11732380812484956 -1.386622160133728 0.6148646657335024
Ni 2.0316889187226796 1.6980799110139166 8.49193233033966 -0.17499956556976312 -0.975975590515474 0.27283184062890425
Ni 0.3486443106494159 8.798835314937877 12.571455087178858 0.31991928103501033 0.6135534031212466 0.34390895908138835
Ni 6.954803226213113 4.06955595617199 3.4246920105215035 -0.9061050907765815 -0.21790279269119245 -1.2821217290257918
Ni 6.735578748475017 6.257249425389028 5.648163087530337 1.9352644644038866 -2.18597299077119 -0.7154745035377806
Ni 9.099287478460798 3.471482091434694 2.0494785153848394 -1.9636628130409215 0.4158923913982257 -1.2003809602118747
Ni 6.177761392518094 5.930965766977137 8.016034759921414 -0.3545510121762668 -0.15350694291362596 0.7925384357013189
Ni 9.258667895961032 8.149333548654248 1.45053952595523 0.9952205547880151 0.16754876571867272 0.06973114594755088
Ni 7.2518231015545735 9.241553472700048 1.1144404636972864 -2.096734628028647 0.818245867769752 -0.6057495908061116
Ni 4.040969227208587 6.147096483587284 11.81129634992492 0.8050805340323877 -2.0594271498274406 2.274977383126056
Ni 1.8229963937605753 4.925465189806502 12.579919203869634 0.3484335864246193 1.1967683031599519 -0.4505367209449725
Ni 3.1570656869543203 3.5934834801094264 10.727761525507608 -0.7371144504050596 0.021551758028846756 0.8937535111897639
Ni 5.367920048749275 1.8919618773847844 4.43346689658196 0.014233112880246456 1.1709857948792088 0.8399909727563275
Ni 2.6518892878188196 5.323140442392786 4.726370847164446 -0.25089107469175503 0.7200567235918244 0.15439345928363732
Ni 3.6019748670350693 3.5600445300456567 6.421135073759778 0.225747742656908 0.40879666089370886 1.9385960998802805
Ni 6.118237052275218 0.6097474059659693 8.212116211787194 -1.7485267844615886 -0.19613557621742997 0.7902103017887746
Ni 8.608442057924055 3.7489708364942507 11.291219118317246 -1.4186300804988923 0.14413372922884213 -0.37231939190328134
Ni 4.686916459430318 9.067569374252392 3.1485921667342804 0.5628643614068112 0.224738070445471 0.1169042040889277
Ni 3.6504030427460967 0.5146250653402468 5.397001403351978 -0.05035068453841005 -0.4051960880266441 -0.10174703673251509
Ni 8.457647062642106 8.443043381694682 10.110063435548692 0.5651354168291751 -0.7592138534072602 -1.3402901098364077
Ni 1.5156326362284098 2.2554458975661564 1.0278386609379255 0.5059913023688513 -0.9498416124325835 -0.6842543691812344
P 7.638872366072223 7.754385319554605 4.274421244723533 0.5342045315782735 -1.2096341033790263 -0.6752233693272177
P 5.164013920182687 4.776588514494465 13.172788215159152 -2.2716771151082296 2.095451133330533 -0.0957460819540738
P 1.6843601618173363 6.879198850928323 0.5792780904438584 3.193373632565165 2.17502291951759 0.6235223414085004
P 3.9536386509312442 7.0182300311006625 3.2103883996474045 -0.10520259938128333 -1.2422490612005703 -0.035531360137390416
P 2.254825264634714 8.393891134230305 4.568839163517568 -0.5373777870999326 -0.3278333936757644 1.7243923533072303
P 0.9780422717189454 2.4890859856663883 6.022819440830597 0.7135649452198936 -0.7035065325426271 -2.2507097688279427
P 6.774782061977789 3.834025758689638 5.614773976171668 -0.32514864775474966 -0.23096451097115708 0.9731692314149304
P 4.883459624582976 0.5950111352559206 0.8568288987965591 0.7157586104371029 -0.848731695063435 0.524949845749225
Ni 1.4426518456083544 0.10164368817049893 2.990056186161978 -0.7962984169643835 0.5823769775184422 -0.7083749163785219
Ni 2.9590179571193778 8.728553337216669 1.3668509365619421 0.3951996389355646 -0.6188221077193535 -0.7560963908242011
Ni 1.1246244858904988 2.826352966258955 12.217429136731496 0.03937027426750639 -0.39973326513985996 -0.21126754676286197
Ni 3.6595526767202387 4.466996120526667 2.6137344678290146 0.3524722752703672 -0.2840508492731753 0.015812027331592125
Ni 5.38730072256295 4.367826500905599 10.411638380465769 0.7251917308255447 0.3588668659428013 -0.6080088191539335
Ni 1.1673541228673745 2.4820803563645017 3.482001819622641 -0.7994922413113327 -1.0171178690817386 -0.23115451549477609
Ni 0.7508981416344762 3.142838147177469 9.785008818411642 0.6041778754436176 -0.033841374029477206 -0.2513767560789219
Ni 3.489339393507556 7.01072601474777 9.801028670866264 -0.849651121553911 -2.322805815463245 -1.5392806390041298
Ni 5.074971901579246 4.982403559501701 4.641851926137122 -0.40662356450178994 -2.061006321389102 -0.17022888365399716
Ni 9.264714365277962 0.24875626139255752 4.765113387733268 -1.5457101966795572 0.7125902400114502 -0.5694080760626
Ni 3.8894501601732876 3.2720802533856954 0.4122384983578699 -0.5541987153120133 1.7779204071323575 1.7349410753573538
Ni 1.025548901562074 4.0416932989619365 7.521942300729715 1.7185582631239564 -0.9083812884052679 0.2593890848604371
Ni 3.815989789560754 5.553912454067413 7.835890409452728 -0.5725103691370076 -2.551123632840174 -0.03440753094559235
Ni 8.133347548904977 5.930965766977137 2.4749477794175476 1.1140595140058103 0.8099478894270181 0.6763883361695964
Ni 6.321052371447149 3.2993316811935705 12.411707932037316 1.2280809972303044 -0.3789404967642248 0.5760178680696338
Ni 8.021746463596534 4.5075723493020226 7.642644121660125 -0.36260730682184006 -0.6331878895227224 0.23120465200642115
Ni 4.416461554260441 1.7093359355432565 12.810477755429963 1.449307454978091 -1.2028813580362252 -1.1331669242592228
Ni 2.275249730196724 7.645642907142504 11.557492274023298 -1.0622952369493253 1.235924404534123 1.6234135621993073
Ni 5.392322207190073 8.057376435978881 13.080810414719403 -0.1387272135012901 0.4731002080677852 0.8252760351436562
Ni 7.196361085953867 1.7580932347785339 6.6350945154628045 -0.8856144270223972 2.525402573924986 -2.2547939661996454
Ni 5.881738291278646 6.925896777254724 2.1929848351340477 0.9718024329743908 0.22076957271602624 0.22421382251088484
Ni 0.12430055157984847 6.702976712515769 11.120984206987256 0.4998988163178681 -1.6754192658426372 -0.2386767920137502
Ni 7.6804923865959145 7.668399447962054 12.183227560444392 -0.6619431072785439 1.9018118411723957 -0.2066076793933474
Ni 1.6942056569570343 4.762229325307914 1.0855011023864733 0.12179315675011282 -0.3909272368124558 1.8196093022307112
P 8.729935656018517 1.1437512644140386 2.0311595000251006 1.3242106877760418 -0.05987250798591625 0.016178152421759236
P 5.308959920262256 2.7332768336011393 2.5356428590538247 -0.6704058933339164 1.5448319078396622 -0.5097548831763414
P 0.9722402941628864 4.757395911266076 3.370383807961523 -0.4828089507151169 0.1508373665012628 0.07143141646810924
P 4.39467357695511 8.315597349575935 11.137857899899076 0.5687388179097173 1.866413921289076 1.1633388198569126
P 8.641975043280468 0.9205048972096124 10.95807182389536 -0.2623098580516579 1.6901899963939084 1.275019827873688
P 2.0408761668138786 5.590369937025017 10.565577915933693 -0.45289570809545227 -0.3305592772473598 -0.10550084734799249
P 4.567106093074162 7.4617568923795625 8.144278211321772 1.8662005197266893 1.4757409665792713 -2.68407126354521
P 8.600665339222498 3.873182054546088 13.528232217819566 0.492278580768449 -0.024238560832390517 0.36244841264647254
