# total energy = -340859.17351781327 ev
CRYSTAL
PRIMVEC
9.35757402351319 0.00000000000000 0.00000000000000
0.00000000000000 9.35757402351319 0.00000000000000
0.00000000000000 0.00000000000000 13.69575546148788
PRIMCOORD
 96 1
Ni 6.459486494609553 8.44552862750844 1.710490589199283 -2.206557499790761 0.4132379844945141 4.602226836182951
Ni 7.7521136842978455 4.7235068097878665 8.354095772658223 1.0202111632950817 0.030354186811825147 0.7295050134889178
Ni 7.887639427496667 2.597409867909021 4.558097654250067 -1.0049089857203726 -0.3156275956381919 0.6787748341239019
Ni 1.661699262981443 4.887975529145906 9.994381163462894 0.8670340929170486 0.14224319707434857 -0.7348181981717151
Ni 0.5740151071618477 5.6290111660759505 2.5758153945554394 -0.6588436424176137 -0.5915974676754456 -0.1832587202547618
Ni 3.517090948697982 5.790279595150623 2.0398865490378313 -1.295316373339195 -0.28838495787215496 -1.3498607842439785
Ni 5.298361291331054 0.10927306954389508 9.532533423460865 -2.5382573184004675 -0.4947026168289093 2.2294264339691345
Ni 7.861616014402976 0.6077519684443656 3.004890103389533 0.5370823673467009 2.017748024921099 0.5554377299254369
Ni 1.8357594956156533 7.155652564554972 9.749446665898224 0.6883131126316404 0.3133326289564281 0.45313147825534217
Ni 5.61166222401349 0.8674892122056965 3.7705511318684293 -3.2492375336123205 2.730363975964162 -2.69980307245817
Ni 2.484398447580901 6.40979777705202 13.326243615043632 0.2911980018409178 0.262611962673109 1.7244196070007398
Ni 7.961891776615126 7.678647371389336 10.727912961860099 0.7256617284834276 0.6406566870959418 1.6071104541639096
Ni 1.1264273191535785 8.07253573073947 7.80743004681566 0.7288609521470157 -0.4138357659795131 -1.1629693523326357
Ni 4.035509901881569 8.574073620556993 13.321628459582357 0.1289865891747585 -1.55443729213991 -2.0562623789462133
Ni 5.511938558663091 5.927227689586496 3.214598949659746 0.8672809188205323 0.30682079597983936 0.7682183708987157
Ni 1.1745439642912114 3.0660839580915074 11.41308388244015 0.13551616276316017 0.8008073605783305 0.5216945720367209
Ni 6.317597601139711 9.092380282853444 11.764982936060685 0.4728724083276953 1.8959756941065928 0.6946884200303649
Ni 6.634997151202599 2.94683103595343 13.221375155547634 0.3249380744058404 1.1068354854535454 0.11925907747434945
Ni 6.649847621026291 5.571705383341049 10.374862926646422 0.785072723451893 2.027607691323998 1.4808176097712304
Ni 4.384481906377435 3.389472355468298 4.04721903413764 1.3608797610623016 -0.5438394835648763 -0.04694217307749335
Ni 9.198017934926321 9.354439140706306 5.783443887396239 -0.20420344082722897 -0.17222534525873565 0.2709369375990366
Ni 3.2476302498680956 4.063152175264799 6.127385260148428 0.1979240355764204 0.08069150161379651 -0.7070919359010404
Ni 3.585064365710772 7.5444878339839985 3.8795416026797 1.325930498680626 -0.7658917796480681 -0.3413342563756767
Ni 6.091368893857055 6.875870461682531 5.698351724639617 -0.4873978556373799 1.925462133601484 -0.40247946042642946
P 2.425389586391108 4.695462160725734 12.079957938718836 1.052375149622136 -0.6089148759079706 -0.14365293293768164
P 8.877118652214373 9.166211541145145 12.418256694392458 -0.23322322509834673 0.3994447873651637 -3.092323879009991
P 3.559789558531319 1.2064813641073806 3.204793147940624 0.7250086682804611 2.722687176145195 -0.627400593416984
P 3.423973730540731 3.6833563222501917 1.2124355883977493 1.9339619435423787 2.651475074776743 1.510986677155443
P 5.81503037819011 5.074864995635366 12.781673050003542 0.4365226660540676 -0.12192428301133841 -0.14182667836222027
P 3.181518990066972 8.44198210698974 6.441881155021466 -0.5530149794165573 -0.4011000635803995 0.5084410494609244
P 0.1386277789559438 5.783448566183203 5.726894196634718 -0.6754295718007529 1.6190797107106438 0.12362069687715485
P 3.122706637929667 5.3551804802217005 4.111164015574438 0.385725123786226 0.18701021687739405 1.5741010891174245
Ni 6.154878748106203 1.4244754063334204 1.190822399896312 -0.2016426220785882 0.3861223592246447 1.0451778605427482
Ni 1.0003620831959374 1.760627534547965 3.670078860603792 -0.11627376959378039 -0.21641052441638214 0.9145732761485925
Ni 6.8210350784646145 0.5717318591234224 5.4652367787033675 2.282746999769146 -0.8640428714992086 2.811310016790926
Ni 0.8343222271753921 2.9632722933448767 9.068822590489775 -0.1357467907167275 -2.089872610801491 -0.26149610390111094
Ni 7.80349612273634 2.580725313595446 7.264502671757322 0.4944233950255937 -0.819445287394492 -0.5026797214971149
Ni 0.6748195723009279 5.978394903824648 11.910185346458423 -0.16833218085191654 1.1028307351695266 -0.7977796294956002
Ni 3.253460018425222 2.30111164705371 10.321053133531011 -1.0536182780006176 -0.023204463140921328 0.5887198890173345
Ni 1.4946852835149957 1.207351618482682 12.551968004006644 -0.4754129153613619 -2.792460488184591 -0.9524373981842177
Ni 0.6577176701901659 0.7929739152598613 1.3612266283968637 -1.494393291573136 1.9060317927910144 2.144313406248875
Ni 8.371220132946412 7.854401324904509 2.5611745343877343 1.925476274668871 -2.800075838638003 -0.37541911387452764
Ni 4.416466094063244 6.286624031438124 9.363377495322304 -0.19166571337153443 -0.2546726532213743 -0.6154794164993658
Ni 2.6671331512463414 6.012035382095708 7.624824477670426 0.20150146851503362 0.20186502250203944 0.7321211109555262
Ni 4.225637088950107 3.3594532583073633 12.885651604218989 -0.9671618488785859 -1.645963165365049 1.7878816321101274
Ni 3.9292827226512284 1.1086011408207916 6.289529558142759 0.8667163045663139 0.39001860895525736 -1.4903636015884525
Ni 9.337698440949163 0.6352669788221751 7.976092830808216 -0.6575910009574353 1.1804703373308767 0.5476280040730311
Ni 2.4000024883245197 0.9397624344383897 7.965451397737327 -0.7261391823404785 -0.29562621281560053 0.9635427640687599
Ni 5.951417018190304 0.8756106506177836 7.663144678662865 1.5214569805591474 -0.8731959987533865 -0.06296143132388513
Ni 0.780317796522279 8.25711387646872 0.15399478686045973 0.5745651947835073 -1.6823224207203735 -0.6053536409192737
Ni 2.0853166347007432 2.5112172544584688 0.5055953338726934 -1.8864744394843769 -0.8323938771353601 0.07622523831232679
Ni 6.562897044087574 7.5566152497946515 13.502384972119424 0.045156284821664165 -2.082295312674866 -2.408511482462181
Ni 2.4969937420879518 0.10981300155953908 4.4260023976532405 -1.8785053052359713 -1.7127043754463405 2.787240377436232
Ni 0.4426853001123293 4.137423239531114 7.1549498107529805 0.7155927742831999 0.12909508972816477 -0.5365601762946437
Ni 4.347622422675153 2.540253806356967 8.344480865447233 -0.30912039064729346 -0.4364069664118097 -1.3713156116836447
Ni 8.473657494735924 6.655059789704172 7.339897580652386 0.29422599003396427 -0.7335385601283432 0.51269108298653
P 6.757543939363323 4.067634453176297 3.3310539571933604 0.5354998533509293 0.1777861271759648 0.537870667575951
P 6.401815766491461 8.411392197819197 4.0236211042060805 0.8630092880283718 -3.671400074289974 -0.38208829836458713
P 8.968514076768876 6.501895019651123 0.7084338493649895 0.39604347499309855 -0.7180972858726083 0.1964551643403778
P 5.072853117240853 1.0445672624316782 13.080624143067434 0.8592431361177202 1.645051195073741 -0.8712239626286802
P 5.762992909576655 7.567114447741836 10.467145449209298 -0.1909540320164905 -0.22474552664463873 -0.760989200140128
P 0.3443456199458769 8.978302099097537 3.8120632013276996 1.0835304921790179 -0.2935330777319977 -1.2426331840128664
P 5.76311455803772 2.3560593211587624 6.284201355548171 -0.30888642025961643 2.7397960679113393 -1.9469781532963888
P 7.471798199711511 8.432502884600703 7.2764317070007 -0.8509919518525215 2.639877599747131 -0.21902945009646793
Ni 0.37983889785467534 4.222680095588868 13.63065953128146 0.20630428922031566 0.48473444987260383 -0.1723497866517419
Ni 2.2282816491723025 8.27479033361866 11.850280029686331 0.311818763415063 0.050360197620106815 -0.8424450907237749
Ni 5.053847884593141 7.955921644449079 7.5165180455132905 -0.4311194927606253 -0.01313268072721609 0.33193276055611864
Ni 8.989250460593263 3.223908799960686 2.600700926659489 0.26873067397633715 1.3255240072708268 1.138534616329039
Ni 0.8426167807051466 9.266917751757981 10.152964904577633 -0.5551312544286118 0.9260221414154826 0.21482569642776553
Ni 7.64701877151279 4.736794564765587 1.3230131037472035 0.8322313834155667 0.6306301560978751 -0.0553008294548338
Ni 7.974992380114286 9.340795797919322 0.6300332877242603 1.4019353934520309 1.8365767833229854 -2.2952405042504664
Ni 4.662869730734608 4.364952649589757 11.001211201757846 -1.4787198467019371 1.4152727339908853 -0.5664824177753728
Ni 7.368359577511706 4.565794258805824 6.011504807653991 -0.42419936860202423 0.38537596797692336 -0.7147576799764142
Ni 8.401164369515923 3.9804967247590204 10.587435190538596 0.5783606572701976 -0.4091944105527598 0.517330124420438
Ni 7.573889331265688 0.3316473921256186 9.456699644348577 0.5596859636788296 0.24016777473697992 0.073814314877989
Ni 5.491099241525497 4.030597175569383 1.5686297684512247 -1.2111639097599916 -0.5031538329200561 -0.4662052807201648
Ni 7.740922025879991 6.39120427765714 4.431207080271979 1.9319333431481247 -0.9338879173168045 -1.380079988139836
Ni 0.3207982209135277 4.070984464642511 4.76195895257269 1.129049045436107 -1.86229938490007 -1.485983727353202
Ni 4.34237282370156 6.606877641549042 11.807658151959204 -0.08444299823642876 0.150985719153669 0.5632171167605396
Ni 5.732861521528585 4.126633956792162 9.110101656358239 -1.0292807296965178 -1.1232730621842784 -1.9305837710987654
Ni 2.2427203857431635 3.7301909797596924 3.0455253681717522 -1.044351507986711 -0.3832170126523916 -0.7758694596860701
Ni 4.261457881946384 9.048970497401582 1.748948346528463 -0.3072164887563612 1.8958473960588447 3.6809285826056994
Ni 7.891251451032864 5.741507919838032 12.610380787737224 -0.9305465116483974 -0.8130506967220578 0.18030555116370883
Ni 2.0233414225757835 6.7495525712288345 5.521526328909691 -0.10856174566150337 0.4663119815013582 -0.6168140761503893
Ni 1.5148882856254877 7.6941528713879865 2.3940314204010806 1.081075602880622 0.9323288003598008 0.38270767711614084
Ni 8.5195470372787 2.0493180477998343 12.187729117647292 0.11603465699978081 -0.9027629137772258 0.18072644075121133
Ni 5.184685483254047 5.4473057955425865 7.0075287195769205 -0.6345608586108491 -1.2358143613188202 1.517492596594761
Ni 5.5385702140621 2.213889700471081 11.125281402954045 1.0281034215589648 -1.1450279373628667 -0.7057968712387006
P 3.146446802984932 0.12121239811859479 10.156566634782509 -0.9444258407336509 -0.21533323219180334 -0.19873830394759967
P 7.116229105596425 2.4804495513832965 9.340011633224158 0.2852880641143861 0.043991832199917785 1.0814047040852666
P 0.6962540311403409 1.9741112261407223 6.336423168368005 0.033357749524839324 0.870065680654521 0.13655488844031966
P 2.5414983636893873 0.27525771587826553 0.75750309552849 -0.31555483341872753 0.026834089473708626 -1.1118547930450078
P 9.109102267462731 6.217228263188282 9.824554297273698 0.21358179671833538 -1.5732271711529036 -1.1389372510840967
P 8.652976683917656 2.5478240836646964 0.7840477254899687 -1.1875704387107675 -1.2437724398236323 -2.9261863918165476
P 4.973915488100403 7.152929510541931 1.1892035396067726 -1.6349573011728489 -2.5414349447975004 -0.31485112248348357
P 2.670745174782539 3.9170430159534413 8.177941314978932 -0.5869309154377117 -0.22094954993731625 0.9934781181756115
