# total energy = -340870.52525993553 ev
CRYSTAL
PRIMVEC
9.29071648459543 0.00000000000000 0.00000000000000
0.00000000000000 9.29071648459543 0.00000000000000
0.00000000000000 0.00000000000000 13.59790269522116
PRIMCOORD
 96 1
Ni 4.983419616249674 6.460717884739829 13.546095243356959 0.7871252351055475 -1.1838253698460386 -1.9383461886530038
Ni 7.43359527571982 5.376667778671583 12.358902388576087 -0.6945323540684748 1.0770178878714807 -0.03973254270293157
Ni 6.4224587136940805 0.5969424789815301 6.079799432345801 -0.6802439624702608 -1.038826978624056 1.0934176693857427
Ni 9.205223446766878 4.69508222591339 10.690413249955006 -0.16354941475129253 0.7727473691173208 -0.21177559674753202
Ni 6.104325995153882 7.70114004225805 8.431067051739225 0.5963702064737407 -0.3358958589689247 -1.1179871311949907
Ni 2.7375375245612132 1.4506153303543137 9.79660914813732 0.35535910989985897 1.623740349411107 0.4918052406764563
Ni 4.040941450053969 7.7544037206469 9.449617605628616 -1.4667037960776677 0.937727859888185 0.28040193966667837
Ni 6.847676232009242 2.819249377243914 2.0235450231569114 -0.05510156895983414 -0.5945359814784792 0.8144920571542745
Ni 2.636872609971439 4.128432128475003 6.64253442180005 0.3059242523074989 1.019998275953327 -0.722053185196563
Ni 4.687872629815406 1.4883542212692802 3.6093597908533432 0.08434941008135796 -0.3103303517949946 -1.2475581321183096
Ni 8.824127541685387 6.882544291488284 3.815408375004756 0.4946118568873159 -0.2083886825531701 -1.2321186576347876
Ni 7.573206874385306 0.4445654356786332 12.133368384455212 -0.7053507848402175 0.042703452405797426 1.056242345887026
Ni 5.364654882080481 1.6107965756189466 11.749730539306183 -0.7809368469066486 0.399225472265506 -0.7093452507115913
Ni 2.016995997010688 1.737243228832313 5.151388340186126 0.8244823355977672 1.4870995861252 0.926025226739276
Ni 8.346649742376457 4.406661219127516 3.1338135315299422 -0.828474744586612 1.1882039585297084 -0.09723603623603899
Ni 4.956448665898579 6.133257286712031 3.8877356748284693 0.9838503652778604 0.37739423532302746 -0.07833097180141993
Ni 6.9071739812508595 8.468441746562645 4.169524968090193 -0.12926709652965476 -0.3976028490604185 -0.26206380347912284
Ni 2.0887203293256906 8.760095922732667 6.015562488555754 1.7534836142462316 0.7380598450374644 -0.19364366303351166
Ni 8.995671333377643 0.181033329649062 6.136706000721789 -0.6689861301682544 0.3559563771642256 1.0710776111276457
Ni 3.692363053146379 2.4857591041290137 7.964591319053018 -0.040776667696729774 -0.08076117850946736 -0.6530722871514753
Ni 0.48561089263905444 3.0867291087657964 6.775508732511413 -0.6317506428555636 -0.6176219167636653 -0.6216585487268842
Ni 5.816880513613224 5.18656113517034 1.7160418135029303 0.0072844494765551965 -1.1673111742410993 0.27122412982215227
Ni 3.2074526805405568 5.274395570106356 2.474927057620456 -0.34915889462641797 -0.9134178223879107 0.7054040066756561
Ni 5.22041650653768 3.6581825066972993 13.120235736523277 0.2790649660228097 0.2185432544886688 1.1949448767979678
P 1.5314259835247666 7.486273638961539 3.0603165304836306 1.6534322200485845 1.4486371683839439 3.087506145906373
P 0.9557174373807933 6.970936169421567 10.885243293786422 0.6918198402333182 -1.4364835637405455 0.2520799527935336
P 0.5966293818313986 5.37105618583243 7.397027944170776 0.88843081342527 0.8975101500187189 -1.142958456428348
P 4.588220403337333 3.0899622781499443 1.7431558408899903 0.36993340816960807 0.5515702765502307 -0.15179870197326759
P 0.08942686376487427 2.8574156411234517 4.590489196336208 0.07142704559273506 0.06543766077851956 -0.5000088595331711
P 6.802783489296018 3.5080723982499546 6.51211691630282 -1.0256421045026658 1.1998945074937593 -0.9300482318557403
P 7.540289865396698 7.125375751814351 6.1134401881591955 -0.747878630900099 0.4844757968945785 -0.2296175100249594
P 5.2401871515074125 2.2757610363419656 9.48795017333567 0.07077347116913618 -0.09780296448310252 0.23791368859548057
Ni 1.2087501045568432 3.2291093409843747 13.073064910094555 -0.7257188069736081 -1.8180093047334431 -0.6075197953326569
Ni 8.116212098022956 4.909186790446971 5.411679844258252 0.425672353603125 0.2883278793819744 1.3027018671699888
Ni 8.288796449976777 6.902287064308153 8.482548770680145 0.36802102163824363 -0.7346893859033347 -0.40498448623647026
Ni 8.694308358338557 8.320960910919075 10.502911723394325 -0.5748122777973068 0.7702410577556993 -0.6627638034076264
Ni 8.779643590503492 1.1449507535196508 0.5496499441650715 -0.4689956989811084 2.0051640176085015 -0.461452853636844
Ni 0.332770242576764 1.0454843413740003 8.853988833977311 -0.24113939462162987 1.1519076952018354 0.8297939776186677
Ni 4.873055193507457 8.792724919506021 13.199335039692121 -1.3094211881716933 -0.1658829479804756 -0.653373877552294
Ni 3.1505934948193373 2.0129824074303664 0.4017175796937159 0.11891043588567908 -0.368715733712423 -0.23894315830125945
Ni 2.500252622057952 0.46534412340175557 2.2304910905339237 0.12137535248640388 -0.7788218574461748 -0.6355191087590604
Ni 3.0542208913085176 4.8650744679299205 13.796568318103892 1.4246989124007914 0.07586811208322418 -1.781588600012564
Ni 2.4032854126833816 5.153774196214427 10.900133525315082 -0.6079733379303078 0.2897245026191849 0.6801457463294996
Ni 9.574362199556994 8.29715809493578 12.90120058867887 -2.8757459757778085 -0.9978623632862362 0.07377883365436325
Ni 0.42719086652548727 2.8946807054907415 2.182762821107935 -0.2829712430557514 -1.414982713554292 -0.3072424568982902
Ni 0.4309183020338784 7.096063540874735 5.811335813933743 0.6663150110939944 -1.3313938357880424 1.488617051210991
Ni 5.617074361959538 6.700269722098642 10.665365477944482 -0.7283966109160875 0.7821714906446982 2.2001518533747335
Ni 0.811400090746713 0.18619432273209102 4.080444648055286 -1.1606131933956334 -1.2217766522788314 -1.6196535809362427
Ni 3.0448465582378135 6.6062848327594486 5.586698363966805 -1.3040771502509605 -1.603142213544781 0.037436547579903265
Ni 6.282586974963203 5.243253087992381 8.091391019497987 0.9765959977082924 0.06526385420481663 0.5026558102377149
Ni 0.5264222235406235 1.104601171234151 11.595720188021296 0.9962014306440456 0.4589897368083321 -0.04737386129827326
Ni 0.7371124497159447 5.470318202212416 12.691330732781195 -0.8547089956927925 1.4011805175638772 0.9762722958202864
Ni 2.1626093986134136 6.0838585464375665 8.861318280319708 0.4318419727489466 2.58085484135602 -1.353531034006714
Ni 4.296519773584205 4.626804749464821 9.082447555690514 -0.935440349405589 -0.10446237878114913 0.37329898220773133
Ni 1.2496571298396095 6.656817040461689 1.2864539420891952 -1.7526724311988462 -1.3424503507125203 -2.481337979505604
Ni 1.8600757932800662 8.75878593168909 9.997504171779001 -0.29796668802331905 -1.8099771784575858 1.0811992729426798
P 7.475161941882686 2.6835491702759176 12.40652288568927 -0.20974211125727105 -0.3052120567318227 0.43067649168593564
P 8.109559944922237 0.6887858581395562 2.7424114345006494 -0.3021856112006731 0.38179802081767794 -0.5399812861610506
P 1.15494756460397 2.9380683521113458 10.51834546184532 0.027836305485977868 -0.8803074129871871 1.5063970009022316
P 4.673109681104454 9.105580511005426 2.0809003331456988 -0.04306109285553229 -0.21624006027678888 -1.0018691704527842
P 7.178927442418455 5.617427409191141 10.12747293566343 3.2089534892812925 -0.7218007028661246 -2.046987895622823
P 1.8240556849400058 0.2717618228125544 -0.33526201277454687 1.1507782095830825 1.2056998013216267 1.1686468623333874
P 6.972478428380672 6.572002088427537 2.8848083900091455 -0.7611434663298053 -0.2489501489153003 -0.5265788967122157
P 4.093833499777974 6.579574022473746 7.623596005051581 0.19884217651531563 -0.6070942777594642 0.07585088569204357
Ni 0.2137803185235038 8.724373117324483 1.7677957504408477 0.23522945689509808 -0.9727884510367439 0.1339426476284532
Ni 3.3609167376881244 7.298907756863525 1.2712255284755267 1.5070192078672626 1.8343003285839827 0.9922463026510396
Ni 8.209463020749082 3.9931035501718513 0.47616223383538114 0.28595886492916556 -0.23295377348704394 -0.3235046843934235
Ni 6.291292376437187 0.028717605075864523 10.221231131517069 -0.5236987469509432 0.11464780395458318 -1.369594772337796
Ni 4.798404285456803 0.22195429100676023 7.859683334182381 -0.8661249508392179 1.0665565833288406 -0.15918059625963554
Ni 3.1492556316258966 3.122331134857907 11.718250804178862 0.7331657501699568 -0.7680898157406515 -0.13337906181549933
Ni 8.157184158322071 2.439593533238696 10.137576589988893 -0.5133348872181159 -0.23977799549772902 1.0771040198273838
Ni 8.473059232723338 4.342527402291963 8.533268650858131 -1.1851245482734363 -0.7826679706651424 -0.5557246650382365
Ni 1.0078662297751082 8.02562761096709 7.963013755370754 -0.1657767614199145 0.4623900207391327 0.07889790004848347
Ni 1.5443214981948732 4.787850031375218 4.418162197232793 -1.6832773284344753 -0.025312253512543504 -0.1537144309387417
Ni 5.042229852461329 5.069581722193889 6.197162551918705 -0.23072874081126712 -0.09130758656674597 0.016071194530249744
Ni 5.798215463921404 1.366004774085825 0.45159757908915477 -0.25919650923365684 1.8348009223694854 0.8288740369075596
Ni 6.928579792345906 1.9548875563985382 7.914591469413167 0.09872007698073319 -0.3224608165099414 1.2570462741144028
Ni 4.52916860849353 2.7047412948886795 5.68541873156778 -0.3220245003034712 -0.43397213171807203 0.8483110625862487
Ni 5.950815484423209 3.7425793764835027 4.226255012850379 0.7874404523531212 0.9319241087222143 -0.7760064994845668
Ni 5.0108922652983106 7.6487125283651025 5.873002016434728 1.918118291641903 1.2363386092534063 0.8462899183911619
Ni 7.972205990395684 6.785604954263578 0.8457599480265804 0.20947883029355538 -1.181657158550126 -0.0015727438037585815
Ni 7.201698988856806 1.6683339836535078 4.361391273319474 1.2440341781254511 1.5207818088689937 -0.8222416191927064
Ni 6.201757740359508 3.8754644963153013 10.905449673365684 -0.6509763238543951 -0.7548992851923064 -0.9608341068883453
Ni 2.5621009226047105 2.695292636085006 2.8963939136356753 1.4904775014584974 1.1025965076715334 0.3630924739883747
Ni 1.6943944437757337 3.929127675518858 8.748292067265542 0.003506470491361703 -1.781952411109886 0.7626560463195898
Ni 6.778265288132896 8.785199439042918 1.2874982186374087 0.1136972671158558 -0.4553567680414351 0.8992351031296255
Ni 3.7029637608110706 8.211311873356683 3.8879939567505364 -0.7503468899349336 0.897240698407416 -0.4416417324481878
Ni 2.301719298581359 7.309815058176714 12.606901345486817 2.4027894923767397 0.4185236583734857 -0.23638645331767674
P 1.9695854700931412 0.888784327627299 7.662295556065171 1.677064514755544 0.27198106259283483 -1.2008702411434673
P 4.287897988559811 0.5323385518849492 5.521034366103755 -0.5660124201174896 -0.7841263003782237 0.7251354236663125
P 3.92889540760333 0.0543283945136284 11.118175495552693 0.3125571842429843 -0.9762635540695381 -0.236844881011334
P 3.6213262338613386 4.5125660978915985 4.59745073030041 0.35505134885145306 -0.6170166790794986 -0.12334198929447146
P 1.2171767845321937 4.568254653318558 1.09785518189556 -1.381697469138601 -0.6655814753620795 1.4456958263674329
P 4.3762619943432295 5.127983166874214 11.665586377012076 -0.08548223813422053 -0.14647806109130257 0.7764893526582562
P 7.859583923514535 9.313478876836102 8.477082113020282 -1.1880710324962698 -1.7173683565809132 0.006547057089898402
P 6.724583527496098 7.665212841084202 12.740568743658114 1.0689387104077719 -0.030611040017637602 -0.32289996092988904
