# total energy = -381170.06912217406 ev
CRYSTAL
PRIMVEC
9.22471887701498 0.00000000000000 0.00000000000000
0.00000000000000 9.22471887701498 0.00000000000000
0.00000000000000 0.00000000000000 13.50130852538029
PRIMCOORD
 96 1
Ni 2.898960098046973 3.1345778630323857 6.1154719125553765 -1.9533339203110875 0.45617180774356275 -0.13817236943908462
Ni 8.880055533327958 6.23518108709988 5.679892687768096 -1.316215071165075 -0.7509978932553711 1.323196901799547
Ni 5.651846775510437 1.101293041765856 10.806176797479324 0.21798403955108908 0.10471306133937451 0.7730173349492557
Ni 1.9389251737042488 5.42728022352528 9.571779367147535 0.3687329601036037 2.7823246853021697 0.35915045862149114
Ni 4.663621110826493 7.052897051369198 8.494064706373878 -0.09678840717565912 1.0722004118781794 0.40507730306059275
Ni 3.7776606776290533 2.3497295714841946 3.8485212767799397 -0.3105059581409104 -0.19546863205739237 -0.06841859778371442
Ni 5.558769363847183 3.28030074430537 2.053481420384025 -0.49301545893447357 -1.0718988214773604 -0.6022863148478594
Ni 8.55820509795324 2.699005095548195 8.017684550785154 0.9025675099369682 1.681273667740885 0.15931506495497078
Ni 9.073119670959299 7.268561749810743 9.659929856554164 -0.95429347755635 -0.5402255409613729 0.4245261558138237
Ni 3.5574020692758817 2.5426092147415744 12.413008408166547 0.29502071802111773 -0.5537415731699367 0.807988708818118
Ni 0.08769478830294516 1.715567059868535 6.158662045499614 1.6045486069740043 1.1047675471809233 -2.374272101663337
Ni 8.653699385915381 1.8666771768611765 2.043517801718269 -0.38783651370227396 -0.2338767995219456 -0.4537282312990767
Ni 7.102747431213422 5.056492655457443 1.708360709621624 0.41750627285256486 1.55394518299484 0.8864027272516476
Ni 4.310794070063746 1.4409102853530047 6.115350146268563 0.9914168647712087 -2.1776850397307848 0.8489751785328088
Ni 8.909390138787735 2.3335032912943374 12.26758533025125 -0.5072868812518231 0.570295877984192 -0.33001934558348966
Ni 7.488792684007821 7.589987848125351 7.234014255814703 0.04134668126758686 -1.0310612186357082 -0.495479861314566
Ni 1.6140490305965725 3.3012131815938335 8.205014603273792 1.4398823050094491 -1.116941720649612 0.6889348053760393
Ni 7.559656973046186 0.7765995480884011 3.9499701206616673 -0.21420374657305047 0.6995586036384727 -0.39768743835442477
Ni 2.029152147289807 0.9149970802432695 7.4234106452917015 0.6081795404038429 0.22034071270872374 0.15507583006264258
Ni 5.521086387965678 8.908532239948817 4.978755950989036 0.07305841054857096 -0.7853591443440604 -0.3646636751302365
Ni 7.399395935105087 0.5061898340614497 6.195521254001384 -0.9632640564860766 -0.12713333801610363 0.530808361412531
Ni 7.887438902543747 6.670108124275208 11.815777980330372 -0.17193583904277485 1.1969158844814098 -0.1282247713080695
Ni 2.348207492899018 0.720744798843621 4.846280688238311 -1.0665578688804211 0.5334931073335457 0.060365645572250874
Ni 6.391217203877276 1.618855109038253 8.11226097923684 -1.8182533024234493 -1.5653955909236266 -0.9059716505225107
P 0.9842682603624833 4.133310482313401 4.424729493175144 -0.42138426775073234 2.113542186504289 0.806136743211044
Ni 7.892807688826007 7.651378351060828 4.253586977057833 -1.5512591515222445 1.1137409543241272 0.3177076180956722
P 5.490893883666984 1.2344241820160116 3.205021504898121 0.46820534186932916 -0.8310548466089622 -1.1319258527632698
Ni 1.7627422712903267 9.054089076285237 1.6045632523593751 -0.3313074682672939 -0.010177711863950214 -0.348860903770025
P 7.435353888590058 3.2006729725038636 0.671181307750906 0.3220905776547162 -0.9364636484637807 -0.4455297546486843
P 3.6034979886100027 7.758754076706047 1.2278681744373126 -0.11414849572066148 -0.8654994014400773 -0.03709484796976837
P 2.630613031120904 3.1678421986575285 1.0005093001022578 -0.2022907971855484 0.5403612952082887 0.8348785912304266
Ni 6.727725717263184 6.051784454664087 9.455884613784674 0.30691104170080047 -0.2686085465761761 0.08161607031059492
Ni 3.0141768345855295 4.490851354330847 3.371547049307062 -1.8302235874114479 -0.606616052571465 -0.9886814681179167
Ni 3.978270635155393 4.748442399254998 9.303967333905954 3.1604275166564473 -0.31748084679684674 -0.9190760491149527
Ni 3.4675440844382455 6.806486365507075 3.569584232788517 -0.08016725367921032 0.4621159411421396 -0.8295520368111906
Ni 0.2967868746721354 7.267417884692186 0.25836499882291675 -1.2470400548313103 -0.022622365385206202 0.720253927204295
Ni 9.091938097103306 5.9418165830647185 3.3741521098673894 -0.16247109408544924 -2.531352620860834 -1.1860352330131638
Ni 6.65845730455958 9.140782982609444 12.803425255151948 -2.668426357919101 -2.2693708355725564 -0.2519295432585984
Ni 5.67120023533893 2.0558577079206413 13.14708753788819 1.31352106927268 0.18802811661894714 -0.14806931683782243
Ni 5.042286588662457 5.441394043133285 2.834747753661766 0.30723191537532896 -1.1403726979790425 -0.9879983260079629
Ni 0.42104475800664354 8.482294887787045 5.90339286227176 0.3885255693494986 0.4203681677813922 0.6678715569478368
Ni 6.528619388884626 3.752043633804588 8.806687655634944 -0.35441371526745413 0.9024428114336459 1.1593934620559192
Ni 1.8872759737139062 6.253944164931699 5.3356224960696546 0.08493999247750532 -2.3039627146148125 0.07318002372809977
Ni 7.449744449759005 4.2928704416334496 11.443412062893302 -0.18764476513759942 -0.8337226232491126 -2.0789860457959746
Ni 1.6457451640430483 8.448818383631847 9.3331165225199 0.358976137827156 0.3239587412117066 -2.560383460875545
Ni 5.190675413639176 3.4525170176791335 11.00981707509797 0.8899035413160545 -0.21168560813688703 -0.9429855087426986
Ni 8.543011986257564 8.557153480021663 2.1097549718576967 -0.29089641144009903 -0.7451416915849103 0.3748241606030061
Ni 3.72578085967126 5.154579089373734 0.6082299824117214 -0.4569873616663227 -0.5535860214286789 1.0541255566543395
Ni 1.262181360578423 7.707400067714042 3.7112934389559835 0.22130384795294142 1.0892442547343433 -0.7296909042474787
Ni 5.698533076841232 4.461738142119823 13.146763750261888 0.7010683554147797 -0.8982262022491369 0.7142624855075506
Ni 3.911483671781562 8.933881766931039 12.819505784786378 0.4710045018810211 -0.009384012318061257 -0.2674302099973588
Ni 0.7800947940030895 4.443011963162796 6.571086303882936 0.07016514816117593 -0.7419756351521029 -2.234806724444441
Ni 1.4939339684293556 2.512278339662409 3.339116628252222 -0.30093991171903006 -1.6470844234536859 -1.3509499035430992
Ni 2.297397742310197 6.680236865405659 12.88015369786666 1.9064002318740265 -1.8865798547139896 1.1016200026908771
Ni 6.800176657917613 5.4291712908583785 4.23140429600465 0.3652524577541709 0.062407872813260254 1.1165951359434705
Ni 5.692832200685841 5.656136269705026 7.101782525637606 0.21121869580279753 0.5151760541919127 -0.5801681427925816
P 0.4683564952651662 0.46318788537865274 3.680591730185157 0.3356955700326606 0.7881210233599136 0.020450554544868008
Ni 8.792476054008738 0.3811441597501286 0.04984853490048442 0.7767557189457654 -0.3469996821915701 -0.5680420489530088
P 3.8486079891357017 2.697778207961355 8.262962441191158 -0.01121026689352263 -0.5855414912893528 -0.6276083385524158
Ni 3.4040503456396163 4.896905021981301 11.544847069696981 0.36561446907928 1.2069642698563472 0.49351451005807906
P 5.421551673213795 5.7448042658306155 11.400153667030699 0.6844963099887115 -1.3682254027940952 -3.5172056183910203
P 5.554931880868797 8.786968896946007 7.439017946856921 0.19497600869169002 0.49874876187382494 -0.5557778868736751
P 2.794010473419339 0.3649529334913237 10.968017107261527 -0.5327446592032955 0.8480539522701201 1.014125105002002
Ni 1.7708969226193967 5.942803627965408 1.871118878914284 0.13757793038819532 1.0713650604610774 -0.4909161532032836
Ni 1.6746462077240167 3.9022128294900287 12.716652938718807 -1.330304973599238 -0.11691705960473413 0.3500348694734681
Ni 5.274149893137767 3.452295624430381 6.723205605101143 0.7863040247558328 -1.2343894559468354 1.8001010569944547
Ni 3.0871074606122573 5.441846054349489 7.29926622599718 -0.4917183373896048 0.36027094537917953 -0.5231289904904023
Ni 1.1045585921849632 1.4299051959462397 10.001633731510811 -0.9938059338286754 -0.5249007376788443 0.1325138856017266
Ni 8.521260099567577 4.9661457605288115 13.30150194911847 0.7351699250841791 -0.12071946406995983 0.8719006769807306
Ni 5.865749552680656 7.833197556599254 10.797063697877526 -1.8616244703202327 -0.35848608556461486 1.535990141178316
Ni 5.978927626386945 2.801510169720848 4.425756204366237 0.20921426377825902 1.061396636394456 1.9482971292181286
Ni 7.573374129750176 4.303248250168747 6.790266542620306 0.15822466010426944 0.43542377656293396 -1.5241432691420589
Ni 3.8672880444992384 9.134371803114304 2.961228794202503 -0.8108038096694101 -0.805117043697278 1.2743796231865279
Ni 0.012115745538009592 5.291769105851029 8.471963202845238 -2.3485510427481486 0.13722183260035722 -0.41237383672200595
Ni 0.44620886814303484 3.9353849179281917 1.5660574315700042 0.6562244596272118 0.09161329073262287 0.3638740893494056
Ni 7.812921624900955 1.7583513051900583 9.839389379049631 0.2678423578341129 0.46865682758445093 2.3770455506434156
Ni 4.404277369349714 4.653704538226097 5.149344983984465 -0.07152603306444455 1.3960691644792407 -0.9383662648031322
Ni 1.7783320458900194 1.084956064951622 12.920995217430375 -0.06830238392082431 0.1523167792602667 -0.10499588268711596
Ni 8.140786576866796 3.26191587994017 4.304798002910019 1.8772737468217153 0.5091797273991618 -0.34083520525207106
Ni 5.7421752210016725 7.573789242091588 2.3815364015550466 0.3057509599544283 0.48218494397787287 -0.15940273957277062
Ni 6.435984763718879 0.5858720317032747 1.3592715248753249 0.3722139766736686 0.6591380337295809 2.113794411724411
Ni 2.8377633142041563 2.882208008891327 10.253933477789765 1.3569881393173793 -0.5805885181594517 -0.22882843846476075
Ni 3.8161462040372887 1.369188097475721 1.1878974683186925 -0.22738245004685356 0.7834660410864056 -0.2285564157502967
Ni 1.3109247741788816 8.063640254395064 11.658690245621399 -2.2745240976387215 1.9374481023187664 -0.8999038470618761
Ni 4.0949910008417305 0.1277263775649723 9.320398402850909 0.7945876049208638 1.1204538475679284 -1.841594291142235
Ni 3.244416588569983 7.9588843488600896 5.497206358672054 1.3756116679558372 1.186523485503492 1.627780066698119
Ni 3.3698266392698772 7.484530863969325 10.437794113576068 0.6340515230745983 -1.9798962441806482 1.7618913786939527
Ni 8.912369722927203 0.45277594538417165 7.996824694393269 0.6052196864445706 -1.5645332429233314 1.2738576892447868
P 5.1335282813048 6.686583471869913 5.17745454680114 0.338243790375811 0.27622441125022107 -0.31116904564620607
Ni 7.130698328868492 8.577641580250017 9.254093892264985 0.49643091237392567 1.6615875021658675 -0.4063499991254292
P 7.242197503771736 7.273294030502839 0.80276454020353 0.9903655406885589 -0.1324130983578042 -0.5047785130076725
Ni 0.7162901821843359 3.7970233621762453 10.287430276326097 -2.801502800892517 -1.5883951371425933 1.3350867112585973
P 1.2047390372457094 6.976636301892477 7.458689659480497 0.026734073560734605 -0.27161390906140315 0.28473219161091606
P 7.932990563474682 0.2595577549505737 11.324465772585127 1.733127933408015 0.02995566582182583 -1.292341606981587
P 0.5956935897010811 5.4752579854738 11.612218880236268 0.028583725174963673 1.828735947122328 -0.20701417080314666
Ni 5.39357310140263 6.776782771299376 13.081580042997778 -0.47357766192483597 2.660982500046546 2.937741957864631
