# total energy = -381162.8883930805 ev
CRYSTAL
PRIMVEC
9.35270117844615 0.00000000000000 0.00000000000000

0.00000000000000 9.35270117844615 0.00000000000000

0.00000000000000 0.00000000000000 13.68862356018382

PRIMCOORD
 96 1
Ni 3.3911585405948745 4.039057567973674 7.074677846359187 -1.1201136906196902 1.5226165480848872 -1.277301424819013
Ni 9.166984675233689 2.3962181801052727 8.264958725453656 -0.946195531039564 -1.0972316438151943 -0.42635241038928506
Ni 4.4449648028415885 2.0895898691572414 7.358949460205183 1.020391654737004 -0.4896478280138212 0.5111389080080616
Ni 8.575931366138924 5.644579677797767 2.418889127969785 0.9055777575182017 0.42553634224589293 -0.05968044657976818
Ni 1.8951285044712118 0.9337774353019932 11.439089703752149 0.8860126909020805 -1.084295138259184 -1.2090975141492661
Ni 7.726191692776614 5.701210283952726 5.873515099343775 0.9264481732093076 0.5245271563895095 0.7365400659588283
Ni 2.6675774545858637 7.59526322777855 4.100441216911118 -1.7558449153895568 0.2166833184617946 -0.12588146788687354
Ni 4.075364754281445 3.7904627683702365 9.200685263699116 1.0731134106107518 -1.4500263354219867 0.39279591459007834
Ni 6.10484481241343 5.389419281906835 9.69921136391665 -0.8517090325242042 -1.077958911628511 -1.2812632376802386
Ni 1.12426951357148 2.989497432100924 12.262816709088238 -0.6723018248050485 -0.47669743850074037 1.4150446771404792
Ni 6.333948582582195 1.09593082874084 6.302214867192637 2.0874745428829593 0.7076629779131619 0.5737961778279665
Ni 2.4416910136519965 2.8580265104295353 4.237313323562605 1.9538836221669706 -0.02512096343734383 0.31046944847602015
Ni 6.493664662071582 4.819231849332586 1.1013965473596605 0.021498793303724263 1.1291783719251198 0.40316568786017665
Ni 6.515016879057836 2.3833862739707388 8.58298610870254 0.2808017462082583 0.7877168459429595 0.28269279258338414
Ni 1.2110158177972843 2.0461559244861216 2.6045888821114764 0.5279629215439359 -0.9379592591727008 -2.1734126376076763
Ni 8.402560342803753 8.777145381137734 0.38023687570796116 -0.02956305836909747 0.9939496584953913 2.99950705488757
Ni 6.484499014832629 7.744794215591182 10.288205208193027 -0.015361312947418704 1.585528871338392 0.2508123989350196
Ni 3.271621665736653 8.599743343557675 8.214611264008012 -0.7036805962266461 0.46186602991486264 2.1042695029531115
Ni 8.318535674645842 6.511126155331914 13.043684025610828 -0.4864455190264397 0.4786766737142981 -0.6011246904395905
Ni 0.985737302445592 7.1553495711138675 8.655919408431192 -0.5168668116307744 -0.5032548772742946 -0.5513363061625537
Ni 1.729417343471449 9.520301670892794 6.87976568147222 -1.0268674922693348 -0.6343078620597786 -1.2204448208412852
Ni 7.019099419096453 7.333920696351957 1.8466225899044961 -0.672726571047293 0.17839547862518954 -2.2322934711042843
Ni 5.341037758266934 5.906922948259632 5.699778385389171 0.2991355115204397 -0.5071375001581525 1.5957369222196454
Ni 7.662172452622906 0.3503166490935385 8.980188784503827 0.535857236690348 -0.793330335474995 -0.6877618681138606
P 0.9885524655261274 5.5280076092403085 13.400971242956603 -0.15231857903247958 1.1672427828970091 -0.5149353989360164
Ni 4.258275532906141 1.3752773101010904 10.209687410539498 0.04571858508303739 0.9523111570189985 -0.20645701274809602
P 1.918388672515371 8.14194732207577 10.288109810640133 1.146254096460484 0.9253256295690901 1.2423102534558088
Ni 4.2048248451810215 7.3442928420539975 10.056429371273067 -1.4778811528507259 0.9502450185185893 2.977088063762421
P 8.275681597453104 0.1373182305017901 6.599997393284953 0.8017026186990903 0.18931366819959008 0.525953604423391
P 4.643326243954805 3.6911464336452973 3.2212068648419065 0.8585540804704956 -2.7436087567892105 1.1795375411039621
P 1.7161178022737034 8.666287813052726 2.0733058809860774 -0.033217624402549245 0.348808967486167 0.15117495234633965
Ni 8.793886716400719 1.1314430354411504 3.572484036355282 -1.3963162474930404 0.7050432809021276 1.0112601247493809
Ni 6.674742311248488 2.3567030172638685 4.006290379094417 0.04794258931754969 -0.7204948395705075 -0.022606938766238486
Ni 0.9589044025184941 3.782400739880464 5.733055296487329 0.05746749808884942 2.5016628071058853 1.142281484965981
Ni 1.9595779688830737 4.3898586869927 10.729402990741288 3.1508527284838186 0.8832526116584402 -0.33576216160453787
Ni 8.767343750212813 8.421967197927046 10.723435032064579 -0.014056735203382242 -2.190667825143698 -0.3190710741021021
Ni 3.9307906981388587 9.157931260409907 11.918328663422571 0.9436077157077297 -1.0316795689459974 -0.30575455949885405
Ni 7.062963588025728 4.597339011838548 3.9245281293723253 -0.22840369222251636 0.643356345415292 0.0008731466335726897
Ni 5.057548030246625 7.014750413008583 8.104924654121286 1.620791808305744 -0.6893443821096321 -1.7964711735513512
Ni 3.347481425690885 2.3440114016482982 0.7717718145431214 0.589582751238262 -0.7152140507875424 0.48788945056181776
Ni 8.149616537112443 3.3085180722240706 2.075756288717307 2.108188121281227 -0.3711647094735479 0.6203717115946606
Ni 6.931586193366982 7.248857878353716 4.033188747930365 0.33071431476798524 -1.0554085371318211 1.6962649989433949
Ni 3.1255324719892608 5.804295757287153 8.840400505598152 -1.0166118759795977 0.16143519662176714 -0.39779079670150846
Ni 3.2588365231084406 4.906324203505167 4.768021133560254 -0.6712764688643278 1.4217100049757967 0.4414231886794785
Ni 0.9090834981540266 5.759477612828927 4.419536678644379 -0.15920656440156453 1.6355789939172478 0.368145720141566
Ni 6.934756759095558 4.622535189044404 11.89863093928996 1.0248229510354803 2.3898051643019294 0.6416475902543013
Ni 3.0297701637447316 8.576417706604666 0.21918335993778873 1.7640529051216458 0.04792407737478843 1.8603414898427508
Ni 5.293656973662306 3.4853870058320693 13.303589982123235 -0.9341812801875072 0.24491994470998463 -0.5711775092581969
Ni 5.436715892200085 9.465401314471718 8.434847738108152 -0.1285204481716174 -0.3746058739446129 0.1673767589171827
Ni 2.8939595886867364 4.351559375315647 13.364477002623548 1.379919551302572 0.5415110925420157 -2.8273369883468016
Ni 6.7736751852215935 8.515129455220116 12.749447108567786 -1.7651667070111148 0.10260321408522331 -2.181169655845276
Ni 8.55938643760249 4.2543473983751605 -0.17557826083353353 0.5341549092872607 -1.430010811532008 0.6679211792388497
Ni 5.588715993146476 0.04722927084414731 0.9830717825852842 0.28403310866136244 0.37235153069279747 -0.7958662145229712
Ni 4.620786233907992 7.981267914356168 2.394824627616901 -0.7537518018514245 -2.8081763562579507 -0.595825132603548
Ni 9.091527081433819 4.084203056976149 10.466225459326653 -1.9250715830312846 0.27528184483129364 0.07157257003166383
Ni 0.2879013972066485 1.773767852866464 5.772245920594863 -0.7429179444607141 -2.746041791710735 0.12270152749699514
P 8.529336208440494 1.6240030475222265 0.6544571415052828 0.9093284828098857 0.4381041516085745 0.019172459163392788
Ni 8.398061693495654 4.756222700915417 8.077465123209484 -0.49501372031142493 -0.2833080575698798 0.008318804278340511
P 4.562818191472247 6.673629339798044 0.4486995842323072 0.300609782073121 0.30648835234108507 0.6679101234952561
Ni 0.3216169499940988 8.344040490993416 5.193600840267365 -0.4601788720204268 0.01287402774919073 0.5730384737263357
P 6.956922661091801 0.9199859420177484 10.970364115572854 0.7166150449001271 -2.5856563765097214 0.4716799306814909
P 0.8894886537353222 5.932680287541343 6.878272990350449 -0.2603303657277839 -1.1521714903861835 -1.0310843585641596
P 1.2749041201332916 2.4754262071121014 10.040454957513752 -0.9202230182352023 -1.168396179775162 -0.9809666159721621
Ni 2.4187675428533497 1.8298092388417762 8.170958466127308 -0.8587430565528501 1.097820940659761 1.5747531208791268
Ni 3.12038848629393 6.456001334080497 12.493661952232404 -1.0636052140100005 1.6733366722819956 -0.3094217239377961
Ni 6.681869069611836 1.6432976702303488 13.242949872936297 0.8110802032592482 -0.7524963321777686 -1.5707781953917788
Ni 3.8663131756232043 0.6687967030836119 2.8296027160173907 -1.942499805810061 0.7102857602479896 -1.9081832919163781
Ni 6.670542948380845 8.01179513128264 6.4577044609807155 0.011490260027786662 -0.21701961875529077 -0.5625535150346118
Ni 8.973879452230973 8.433171734041602 2.9397008447597432 0.40377195398560783 -1.925848313296309 -1.1607592320551945
Ni 9.03471877395484 0.6892678956107754 12.152773761283342 -0.9948377175272998 1.730834509388148 0.8991865092798771
Ni 0.6377401232655845 0.2775114813722069 9.105741316815207 1.397988750099457 0.2552400956890701 0.08579976937463933
Ni 2.0568180039273525 0.6391879214212884 4.5857846846967085 0.1814898012797971 -0.9236891224069318 -0.7184883506634401
Ni 4.9742154619822685 5.702987297192931 3.4388694755541303 1.3113073494508125 2.5579807649713233 -0.0029793943432980946
Ni 7.727585245264985 3.2037491126620807 6.165342760541152 -0.7070785661646016 0.380172569399113 0.11260531960325768
Ni 4.780829657941627 1.0384584794720997 4.745065863577309 -0.9475834125260262 1.7986067318371153 -0.5606508986952603
Ni 0.9638052179809546 7.932287817835354 13.479899624195632 0.47553529987183907 -1.498270000919723 -0.6864971424688241
Ni 6.283939688922317 -0.02023269864492532 3.304105467767603 1.1933176256071902 0.9240868720659828 -0.17916398136009787
Ni 3.8365341747978716 4.836132180517064 1.696061869682672 0.1735970287952817 -0.5194777668910602 -1.845255542043906
Ni 4.347210369227776 4.909504121935008 11.216690885119714 -1.0564747736128064 -2.5985062358891957 -0.12030603068162507
Ni 6.318890733546772 2.8137040591383133 11.027144364948043 -1.9989005531972928 -0.17537957461700118 -1.2037437060365204
Ni 1.5300083998166383 4.098587511520546 1.2647040641345142 -2.4047733555759874 -0.14889541228354358 2.3929915324497113
Ni 5.029387046740006 3.3401863187047796 5.459406480737252 0.5556724716440624 0.6911688369128807 -0.4921878208268556
Ni 5.469141707483197 6.51436218996934 12.04820682006866 1.2499675128907506 1.728174960278114 1.9693835175747827
Ni 2.3282146892130005 6.51411901973647 2.1346586660093494 -0.9652859720121116 0.23135120488661445 -0.917824950316671
Ni 1.4445434156640344 1.0845392386009984 13.790193258769119 -0.8681777196031887 -0.3348663892631458 1.289189948726483
Ni 6.237307120418828 2.3782329355741436 1.6247578105142506 -2.518429742151579 -0.2686651108457244 0.5790419996079383
Ni 3.1836875684502908 7.134736217527489 6.543970036361538 -1.1060986072875207 -1.4210376614991205 -1.0373377956730394
Ni 7.537706704198431 6.891472457644667 8.36981279459715 0.8080393595503955 0.8861834121519899 -0.7819580890823113
P 4.28429474782325 9.462501977079807 6.4747871698398445 -1.122714361467331 -1.4422364070639226 1.3012198833078237
Ni 1.3035046805993304 4.075635982618108 8.461950931101788 1.2619920481554523 1.6085554141405525 -0.9998865928051165
P 0.5580410794423832 3.9516191638543163 3.361789188084915 -0.13546834024436025 0.09169865135757757 0.06356949722152924
Ni 4.635844082943414 8.042069825274975 4.829770473117129 1.922747562883798 -0.008152711014121444 0.652204025613909
P 8.032820003724645 6.097699348647553 10.337347106445712 1.0615760993951135 0.08682178288125048 0.9535324310206096
P 3.552352346884011 2.6836173372540317 12.13525241073492 0.29316463864898545 -0.8353354762621871 -0.5789733511535319
P 6.025449731381317 4.209566664721991 7.510099400606655 -0.2424195468856341 0.7157956343226253 -0.5106385713328754
Ni 0.9128601189245257 6.351120142103336 11.191887521366956 -0.980398402173518 0.8151913972141446 0.31011180802628524
