# total energy = -381163.8507580933 ev
CRYSTAL
PRIMVEC
9.35096543349221 0.00000000000000 0.00000000000000
0.00000000000000 9.35096543349221 0.00000000000000
0.00000000000000 0.00000000000000 13.68608312199023
PRIMCOORD
 96 1
Ni 6.833461210262691 5.557924050711334 11.538147992309606 0.21608245165300205 -0.5667456987390885 0.5710245286201004
Ni 5.13699968685871 0.9018435876608617 8.039752599626963 0.7575112688938567 1.5966537776069598 -1.1845524778200502
Ni 6.550837627086752 -0.006367072451842789 5.971032877546405 0.4814184981254935 -0.35294587247267606 0.8795381389213304
Ni 7.583474105173771 1.1726578364272946 8.162010863783774 -0.05522163947746619 -0.7787658073972588 0.7323573953360484
Ni 7.727694047051831 4.228880666208522 0.786029073873509 0.7327482030165638 0.8673495672749384 -0.32359698699691364
Ni 4.500619725469136 1.4004754104385237 2.7221483638845823 -2.141319099507241 -2.2458958923790675 -1.8623428365434957
Ni 5.4596360516787 6.959371961568409 5.336915849823076 1.788838853817074 1.794143296749123 -1.2234095598965642
Ni 5.237045667417186 9.129796525498316 0.5259600196355128 0.38009749318680347 -0.4956194722162238 0.18314507749503295
Ni 1.593591551245481 6.553792532204659 10.250958594570202 0.17034124086214533 0.7515959318506862 0.5250493474415666
Ni 0.9991787233026252 8.672553011399023 4.107371414393306 0.2712858362980231 -0.0627050923387049 -0.10402631968499504
Ni 8.932444397291322 3.467599857794034 7.560000376320986 -0.3251170231858659 0.917635202903368 0.5429041162348005
Ni 5.235278334925779 5.609821909585951 7.021617598935036 1.0490759100455738 -1.874207449191566 0.7959168652552485
Ni 5.162658736363566 3.242475361864947 3.383144742118739 1.3071046242233746 3.0390650196858497 -0.02834229858811893
Ni 1.4445184582402266 0.29477048744226797 12.715082960385415 0.8617443052730192 2.7075081544119115 -0.033560866674580914
Ni 5.097865895977579 2.162532348994741 0.40239262029988143 -0.7195293903334448 -0.9547655320967623 -0.2064611265131541
Ni 3.4673567326893964 6.433922504652635 0.8880995384763728 0.44608074205614784 0.6011414026101389 -0.7251125408481771
Ni 4.073486320482684 0.08213140073289114 6.1161187188356 -0.2757407867455832 0.0017167255807905917 0.17201631457172312
Ni 4.513393144428186 2.507143482887768 6.409247176725005 -0.9677544881572623 0.162346652692443 -2.3533273810908697
Ni 8.603112741128227 7.737101118408204 2.6236630594785706 2.7107968524655117 -2.2928110688733674 -1.1384819087142326
Ni 0.5190552666637978 8.745415735065874 0.9082396481059498 0.31201468147595296 0.16152415679114762 0.6071526418012253
Ni 6.396537344331784 4.250789978522618 5.15531448801039 -0.7697142387179519 0.5351424700115106 0.20966266416958731
Ni 7.325088224737113 5.910960404576618 3.692833760020208 0.09055528178175373 0.7620420668846747 1.3351090798561005
Ni 6.119907730081725 1.4665025782788261 4.382653554505738 0.4307772789298581 0.4469623733301529 -0.04200102702213411
Ni 3.7952015853279746 6.930720603083394 11.718613211806387 -0.8790943665156925 -1.6982619747687653 -0.3692512945009189
P 3.37265015346739 4.890900975171826 6.3417201140084 -1.7385773865583605 -1.3256651608343815 -0.753764914477547
Ni 8.280495078239362 1.0102222136325214 13.228407020255652 -0.6538029946699128 -0.06296143132388513 0.7066270804494799
P 5.690848026189297 7.444883444564633 12.30161318627961 2.446689536193799 0.6705457613458903 1.5531712809432927
Ni 2.860806351445774 3.275820905062585 3.106412267247487 -0.5478668595567144 -1.5856075470951274 -0.41026347524722245
P 8.775871829904546 5.913157881483921 10.583694937294782 -0.4289769924963257 -0.15825499912157262 0.8272704398658657
P 2.1088391047320276 1.208144750738858 2.5044850033782087 -0.9371365061610892 0.013372307541847938 2.3625828382508662
P 9.070165418103102 6.340674676058456 0.6285578786961294 0.40848375763898037 0.14303252574486333 0.3276397896077196
Ni 3.6807364158713622 3.0101506224523553 9.356778123188214 -0.5522912138766553 -1.18637153330666 0.23870198882473087
Ni 8.335647073129904 1.3248822048272781 10.991744891760275 -0.03791760098137986 -1.7540855094962886 -0.3687226756909585
Ni 8.050629642769838 3.4879101549968574 10.667207475641327 -0.0926443031002985 2.801213294676556 0.3984981071811782
Ni 4.716701837698807 3.1973195491612483 12.239560178803579 1.0818168519220208 0.6360240734199368 -1.382649034418593
Ni 4.890396023031425 4.643848464997518 10.407882758262145 0.13328933031517046 0.8716759625644342 -0.8159701843616979
Ni 1.7198295863459037 6.609870272685934 2.0717447594401857 -2.0977949509723612 1.2281655865243106 1.7170230574263525
Ni 5.154953540739658 5.413283315382937 13.615613672481231 3.7507965112414308 0.319466766878624 -1.0599079676640715
Ni 4.022458101405424 3.9985850863230996 1.3373563928883125 0.32042398858557075 0.1501547386119414 -0.09197658760931257
Ni 0.7570120926349815 2.769129485066178 4.2244698157524585 -1.1931453616953838 -0.1834942333043356 -2.0330471171720146
Ni 6.084402113839036 7.798256433190186 7.802189449305981 0.197687236975266 0.20208613737391 -0.8567188270339696
Ni 0.15012788192076018 8.725432721657755 11.08427643639233 1.1737502449982236 -0.7657285145973264 -1.1767664061167282
Ni -0.11391252739183974 5.91736581598727 8.547205188220197 0.4017875765657274 0.6648129726271712 -0.6515085422087811
Ni 3.104268090843892 8.758086293403732 1.601436076256277 -0.3318543419096994 -0.7615332455690563 0.7755840672351675
Ni 7.931676009842987 8.109699692231272 9.373912832485843 -0.05669796691267655 -0.08368837945859135 0.58024527588742
Ni 3.4944838837876424 9.049621346761203 8.979343229975964 -1.9658425943010593 -1.1774161238855851 0.08308288466410853
Ni 1.6709240364514435 4.455669634007822 0.9153968771478657 0.34716988922084724 0.30133791848839714 -0.8688762883321101
Ni 8.175829720692768 7.4300247602850344 12.409116561874573 0.1442316882592871 -0.37009873010287875 -0.05172519628843349
Ni 7.203796850419515 2.573759761558539 6.33148361200659 -0.4902276117766912 -0.9284209806649625 -0.38326534939182383
Ni 3.392894993911273 7.127305952114222 6.450785100852382 -0.33158823273250637 0.2186941782442363 -0.6132417854180987
Ni 2.363222771907723 1.4933024455823678 4.891419953760573 1.3039763630070382 -1.5808412360547355 0.4370489708711828
Ni 0.33108028672337464 2.6786121384163937 1.7556643565764103 0.26086052719964103 -0.9564462622332947 -0.4603886740383877
Ni 2.6881688252217737 4.983017336932884 8.589358405881619 0.011143418211329196 -0.21311334172234914 -1.4482142219139125
Ni 4.205091809816265 6.672072895610972 8.728970191930236 -0.9617458200693373 0.07374283821010524 0.4241811137695791
Ni 6.963710809589637 8.507723541420123 3.5949506577964527 -1.6668142977824456 1.3153799768582894 1.9011258708489647
Ni 2.9052982455945005 1.5198778897123972 0.6540794690072097 -0.4566513184831426 1.334408197134334 -1.7261820982178013
P 2.194129261632098 7.273798178624089 8.224336919454243 -1.5686557497321372 0.421581471363203 -0.45189632029666044
Ni 2.495838165522108 3.177747978237901 11.727372261249245 -1.452842464714543 -0.24601137800195053 0.02323994436454707
P 2.4495228330885976 8.492294448241182 11.183008606289203 -0.4106938779164217 1.1883808504272049 -0.6693478843830473
Ni 6.906155616549408 5.253026467564342 8.695138398523323 -0.01555928789083772 0.03986726850858295 1.3690437849303327
P 3.3638415439070495 7.297306506049457 3.47600544073861 -1.13534079198209 -1.4045486627051618 -0.37807969142582626
P 7.9498075320696335 0.1670746368105747 1.505058479488164 -0.5067657186410305 -0.9535144332984803 0.7447141171291884
P 0.581106403946715 2.3858988633979843 13.012755052441879 1.550074130075208 -1.2011060113033574 0.8729113776334321
Ni 2.456610864985347 1.5779941406864069 7.460639821538278 0.3427859012205387 0.08524981040844028 0.06339723330972306
Ni 1.4629772642615775 3.49344592661015 6.25032471169225 1.5666713723122567 0.5864920281280802 0.49966870258493296
Ni 1.5767504622665285 7.395463591564209 13.02898739356268 0.15787576140528295 -2.046628198290559 -0.22227803894075268
Ni 5.559513714857043 9.142214607765972 9.87773911663375 0.9301868143161334 1.197072721774248 -0.7249947843233902
Ni 3.8933960747049774 1.1024881908425859 11.188674356323823 0.44876111710178834 -0.3761091979630168 0.6183112295212062
Ni 1.0059207694735441 4.164676936653004 9.813154802779817 -0.7895369298708337 -1.3706173000650395 0.7286719760646613
Ni 2.0486843432652857 1.3084899621953492 9.852912303064 -0.9083686899997775 1.2745567721943405 1.2358547276384522
Ni 0.2360632554446774 4.2971427148183805 12.507478433535153 -0.5037066200997324 2.1282818067073084 -0.6060547807513562
Ni 6.186982206065083 0.20781866396165324 11.882367320745542 0.8230641150940019 0.3016086556512806 2.018695733546349
Ni 0.5460066196094598 0.2799716493422732 8.556114788208617 -1.0045420892992571 -0.7831762777601285 -0.06304242107346562
Ni 1.5343625353694756 8.917267780182582 6.524757784131562 1.7170202292128751 -1.9885243521692912 0.058672059919911854
Ni 9.301237128130252 5.086962670131128 2.615205111126842 0.33886368334799705 -0.11371860727209449 -0.26862371608482766
Ni 6.8454304461833235 7.169039311421865 0.7004368807857536 0.6252159270608394 -0.13469752351660674 -0.059638023377606965
Ni 9.27649447325057 1.0095302421808598 6.316305124704737 -0.9806472849595305 1.9840264642989378 -1.0703880412597886
Ni 6.6926637217806855 1.8348184098740439 1.7561431260132356 1.1549742499423012 -0.6686025215765905 0.3037876655804704
Ni 4.3459173511949585 5.194106033551916 4.372662982898235 -0.23952191362286493 0.5999496962948828 -0.5376338689747966
Ni 5.371260076142842 7.1650277471953405 2.5001330640051913 -0.6574681022263258 -1.4599937310473436 -0.40091957213847723
Ni 8.337694934588198 1.18041913784458 3.4002111893677593 0.9878885399029761 -0.7112753778547686 0.6333892069002511
Ni 5.81693644584071 7.070816769148174 10.048322235723559 1.4704822892834934 -1.9865849690547335 1.932643738951588
Ni 7.847068473429016 5.694279830550915 6.617769033296996 -0.34725704961801485 0.9189670343409141 -0.6385787215209906
Ni 6.302139346973357 2.078364307962229 10.257034851993035 -2.258209419639098 0.43107526978625116 -0.481603617553106
Ni 5.547376161556276 3.341633000694938 8.072667998408702 1.6642683914321401 0.7781795958764857 1.4756026412291943
Ni 1.1048352831988972 6.06380193670376 6.4646076981476 -0.23973197275114194 0.2336608268563976 -0.3034662776853096
Ni 7.619849361213818 3.407071057704772 3.1054135841253587 0.06407523321335416 0.9655600516091049 1.150449365488754
Ni 4.718469170190212 8.80867501709953 3.951528222320444 -0.7770989612177972 1.0962271138100796 0.9139289576963743
P 8.724843610827287 7.323956757903991 5.11914214792306 0.29552953933673615 -0.0427859848172747 -0.6709514814247411
Ni 8.76948512042502 4.2841355217202555 5.057131219792063 0.27906573735375806 0.7659827966999776 0.1719813475687296
P 3.3040795229939537 4.9063955251097084 12.826515611709949 -1.4001333072462856 -0.3329025806685557 0.11353965849206897
Ni 8.510594287847962 8.222453634989858 7.0700527952616765 -0.32986713627634157 -0.5079499687571187 -0.2579089007704849
P -0.15330627511562195 2.2496178912829063 9.275975494661823 1.3069716981899362 -0.1550678596428426 -0.2139443222640767
P 6.876550459576968 2.941383621702095 13.018914533458224 -0.20696429140181777 -0.7518165325019246 -1.3605920546185535
P 6.180932131345825 4.981212600579226 2.174718527316435 -1.6012136290635004 -0.26492441285636953 -0.7567535647922258
Ni 2.04341974965332 4.968448532585738 4.161239521712047 -1.7031632687251248 1.631346701003455 1.069188621635049
