# total energy = -340896.5303247863 ev
CRYSTAL
PRIMVEC
9.02188372238354 0.00000000000000 0.00000000000000
0.00000000000000 9.02188372238354 0.00000000000000
0.00000000000000 0.00000000000000 13.20443877369719
PRIMCOORD
 96 1
Ni 6.2579663272605845 2.1443122451995746 11.410602164152992 0.8596491133068872 -0.952225796394044 -0.1624654376584944
Ni 4.43545564414274 0.267500649752887 5.947873365567697 1.0320480080290095 -0.1669065041489835 0.2573923661453825
Ni 2.8242194285129103 1.4869146611851793 4.681937109748665 -0.6110218949486445 1.0293146682582468 0.7478842873270539
Ni 3.5566881050188828 4.339228234875205 4.812397153717564 -0.47651951816197935 -0.12225749798104106 0.09490764521317849
Ni 4.892603502289686 4.640974149966336 2.4764664185821204 0.8643290352810599 -0.6264050622729341 -0.060535852601527995
Ni 7.134316001610047 6.161540436556344 2.5925988093860304 -0.078515062787768 -0.8001686985530672 -0.6841579528126862
Ni 5.11611164378546 4.271094970784784 11.732697839636383 0.16816917291149103 0.5297776061551714 -0.981028065337717
Ni 5.788927626678367 8.00815759235025 12.307473916869307 -0.5884614931496253 -0.34295096604349323 -0.20822670305400912
Ni 1.8768675311243042 6.285582312612912 0.5079573015664935 0.2991259984387429 1.3133760590543833 -0.5391881008357939
Ni 2.6679152971084417 1.5871477867207433 0.23610720178474104 0.9801464340637119 -0.5570366989814406 1.1273654870860972
Ni 0.41180928487363927 -0.05619731223771621 4.863643256297861 0.4000335699890981 0.3141253000610526 -0.31414329778318156
Ni 8.613282383443575 2.4978076839695533 1.4980702201162976 0.4052140857487731 -0.10386793973025983 -0.3634156616557483
Ni 6.951776233026693 0.7199481066033393 4.773418106113927 -1.389547304200323 -0.2054224008359946 0.04081317736162003
Ni 0.8229852335265226 7.424820649876938 2.666424881956464 0.23853203890576982 -0.13881720211193513 -0.279745279919286
Ni 7.5940260746671715 3.899411414905922 3.7940845339538516 0.4665642067214803 -0.7978336226619872 -0.2771453804025937
Ni 7.531738991076034 3.851784891980427 12.569568654037054 0.7284094664318939 0.06686822257745904 0.5378477847578156
Ni 7.760308409207763 8.865019998368764 6.823169283925932 0.27433542175762426 0.33574493521335724 1.0794210979963346
Ni 6.994548982636424 0.7071631955145502 0.5439419860409445 -0.23665410515676663 -0.12022452671141229 -1.3014240288988297
Ni 1.8757127300380259 6.46714771777972 9.132440353358621 -0.36935233885515745 -0.5718259414754733 -0.23283087475593447
Ni 0.07386306229272857 4.999657171741081 1.4291294974538307 -0.4570038167265549 -1.2113909381691332 0.1392506901049279
Ni 6.289127912823126 2.0480487483980925 6.950116206465168 0.22409606598609794 -0.6140187727934393 0.03453042967670182
Ni 3.320639545476804 4.162038443199374 0.2825139660628539 0.36363729074825113 0.4557033527475765 0.10044091632658186
Ni 5.937400763216512 5.489184569721251 4.627218484214394 -0.5196870546883888 0.518525687390436 1.4320772071427337
Ni 5.224617836478189 2.720431680883646 9.163444958148498 -0.4825040178801883 1.5039796497099904 0.47220135040259964
P 0.1902823489915107 5.602959542370125 12.51306730432584 -0.3180521459192845 -0.9935562797117148 -1.075626663950909
P 4.0158117556493815 6.077239957258027 12.31807733653105 -0.10290274760351312 0.45912086306955774 0.9112560388499017
P 2.4483046092788565 8.481986913063823 1.4458732110165178 0.4012571579835541 -0.9062264468457941 -0.41807962885753164
P 6.15912257178195 7.624790697356305 5.8154330181735014 -0.37100787218070946 0.6119194670622493 -0.12838495103501762
P 4.7457091953616874 0.9853701144009254 12.414800047201997 -0.4681271803332261 -0.42073377865092704 1.6338167598105022
P 4.017760482482476 6.128051205054274 8.232438909260821 -0.32014039590688087 0.35319989746501107 -0.8412996642654221
P 4.819842011970665 1.0207449195516856 3.747987220279328 -0.36652155427458166 -0.2252857154188249 0.0839154078677329
P 0.023898067167520704 5.573566245970947 3.528291726744969 1.5014987922696656 0.05545458142387869 1.0637450820219745
Ni 1.4685280626395918 0.9578984791843824 2.622626344194313 -0.39118434712858435 0.9598244346769083 0.20919369495296877
Ni 1.8216626260701085 6.34731906131137 4.948944262474837 -0.24514568756754557 0.20056892939843524 -1.4365900074114228
Ni 5.978829252186746 5.825042226275025 9.326942237256791 0.05365892297603662 -0.9217636232494447 -0.5180616032698239
Ni 8.587588059273884 2.556359707797259 10.284620582484102 0.18263934150320804 0.07126275210072888 -0.30523134000553237
Ni 2.415013859213489 5.104545589155704 6.982137577523978 -0.415547092243665 0.09535038917755193 0.45521124360250637
Ni 0.5943896519326827 0.023933252513118244 9.04607025398849 -0.17531092616259486 0.08536139628564007 0.2796241809603894
Ni 1.3629990914974235 1.0655295491789167 11.365852719871357 0.3236867184972425 0.19384343774914356 -0.3912187999109456
Ni 4.064656232845561 6.715096141640556 1.4320607073986107 -0.09010585294916094 1.4154563107566012 0.25339610050179584
Ni 5.504395465279573 7.872991733954765 8.133234278442725 -0.11152134251045956 0.7806812792524168 -0.7739750708768348
Ni 5.369743854242824 2.7833593182023284 4.8298797595378 -0.17865310316195038 0.5658288433517739 -0.31149300464452806
Ni 0.773158273218659 7.537675390410184 7.06049263560466 -0.35027758161189354 -0.7159709835582251 -0.24062517398937272
Ni 5.003671909892595 4.559750132936932 7.078120493749028 1.2631549581153019 0.7534417268101733 -0.13919669693854092
Ni 8.306655629386222 7.0365729159167705 9.083214250490963 -0.35849765552884066 0.7320738026573587 1.2073504495511724
Ni 4.7299389430272 0.30630467281688456 10.286429470123155 -0.2602218651743776 -0.19230874627217204 0.22877547373963825
Ni 8.013525613024745 7.027406682294437 4.777115273966715 0.22919970576125046 0.4214778559058031 0.016916573249680544
Ni 7.3335913640609505 6.377614546059203 7.077565647914605 -0.28947947648791433 -1.660850623999843 -0.2775490435989155
Ni 2.4290879974525064 5.088243045695509 2.590578809673392 -0.8445899049809197 0.0385349228504046 -0.19614483218881057
Ni 2.182925906522006 5.239106981357588 11.431003349281125 1.055404937587395 -0.08801863140282906 0.18806976849015997
Ni 1.28145930854599 3.235012849305964 3.7462180289276157 -1.141097234849893 0.2835939642414148 -0.15572709049339634
Ni 3.599911948802941 2.666480817634081 2.631539062890675 -0.2502115321262271 -0.48221245478169855 -0.20580035300070365
Ni 1.201417158253324 3.28098836755342 8.219670237562308 -0.06781747386460578 0.7037055359273108 -0.3633989494851999
Ni 3.7263265802164716 2.7011248502224308 7.035984689113448 -1.2056810322685494 -0.44104755050761457 -0.5507979171605805
Ni 3.945395955036864 6.881170972860957 6.0065273366788015 1.3709415161736778 -0.6763963065893964 0.0053432665897843465
Ni 0.7071126729670255 7.33722718310603 11.254882650798452 -0.12649236199799507 0.009976908707053785 0.3486711563567221
P 0.2449414300947702 5.485178853453223 7.886126694122833 0.9153705752389074 0.06939458854373855 0.18727915426806455
P 8.73796481322769 1.701220481524674 8.01691603683899 -1.4439896423096032 -0.8283338481333734 -0.04721496712290578
P 1.8342571754173314 3.234489580063744 10.304638337564057 -0.5687827837737752 0.2843652951898006 0.7154007128770518
P 3.9740945664075777 6.213930513962737 3.7123751395928712 -0.2088676790721177 -0.07622678097422356 0.2240703549544851
P 6.768216991609359 3.9342178413970292 10.167695168121725 0.5020896533215997 0.8775285646904695 0.8218243291496298
P 6.558945382255359 7.93931159946439 10.128623195118175 -0.43267629572478383 -0.7890031688545508 0.4099881100986487
P 2.3171354452679145 8.329255447520028 5.7646353032024855 -0.28428404832990395 1.1277434392508061 0.47300507725081764
P 6.861773923364876 3.977730385452657 1.5797525488268187 -0.3523745733502383 0.0926738707866533 -0.15222113422266687
Ni 5.20947911598776 2.6900459773009477 0.6683699987107364 -0.0522728412617874 -0.0028456969789112285 -1.0231429922298958
Ni 1.6619121351737782 1.0771046256921595 6.999620183344213 -0.27664967171309773 0.7240851280249272 -0.592354143335812
Ni 6.754449597408884 0.9279999573099577 9.093843833614816 1.7355990206563272 -0.6621004587920146 -0.10860494019461296
Ni 2.8113632445445775 1.5239765585479244 9.276461190396152 -0.4187170053312144 -0.3842017451631641 -0.5685120466108918
Ni 6.464450174617241 1.8625317582641772 2.50210931801594 0.07831400252055545 0.7334889378373304 1.4919407162675855
Ni 3.960706091313538 7.018646433428998 10.2344165074465 0.8752989040290022 -0.4201105432446313 1.2605404033105905
Ni 8.26754576447203 7.279893113549009 0.2255425762219917 -0.5195587566406407 0.4096561806805267 0.43623058873494547
Ni 7.725826770522172 3.82259909890144 8.1036695662573 -0.11195791582724589 0.10542114314999264 0.12314967077800724
Ni 2.8993987836063266 8.371477862237079 12.419633070185741 1.1083272395077235 -0.7828001253676324 -0.06171881716603564
Ni 0.22648806961138207 5.049205355849209 10.217079153950397 -1.1196480638371813 -1.4886903276510877 -0.6830287243042495
Ni 8.565231831994215 2.249976544594041 5.801911019203861 0.6579908074990152 0.7331433815724535 0.3800021052595197
Ni 3.573162064265322 2.4810630682185173 11.400104300528042 0.15577799833598976 0.7717919471825869 -0.36636394565079483
Ni 1.0218636331040176 3.283189707124138 12.520369616819854 -0.4800236746604959 0.5787838608505452 -0.46498349249792176
Ni 2.997719269842742 8.267193911016054 7.994297272749862 0.882664343255138 0.36278651271218165 0.06961287520213173
Ni 5.61337981779709 7.8713677949271865 3.635472604753524 -0.5408220368947911 -0.03657060003518218 0.3046410147197012
Ni 3.0892823653477315 8.327207479968582 3.741543791093234 0.5265359592894221 -0.8649149896915168 -0.9616728007395567
Ni 3.5669098990091435 4.415851091326469 9.474145092600029 -0.21381628132664465 -0.22201424375640474 -0.04158682230285096
Ni 7.257239164114282 5.998848811643399 11.367846556121885 -0.026683165718141142 0.415459160515549 0.10110040428745169
Ni 0.6062750812378629 9.228123743051919 0.42515355273859445 -0.5037937804969002 -0.2938020151226682 -0.13584680662970153
Ni 4.6765835240877465 0.2035445177167383 1.7147415783059656 -0.46499017736614107 0.31778192297703334 -1.1378460749024468
Ni 5.880968882008145 5.634653419058374 0.35632019048961716 0.8812947166011209 0.44617458732153475 -0.010019331909215001
Ni 8.147753195537627 9.06509830844997 11.169925378382313 -0.9005134556214167 -0.48331545803789017 -0.04148423528671565
Ni 9.187976361536773 4.803160549404034 5.724414844431099 -1.0093636790576166 -0.4739311886095128 0.24781166443548291
Ni 7.774824619737622 8.716934802820543 2.7219500638744325 1.0004666336783028 -0.06338180669075535 -0.24080129455592073
P 8.552474888744234 1.6613888659315583 3.6171843447379404 0.014257024139646414 -0.2533822165447249 -0.28638155428888096
P 1.7189484825757435 3.181919064987621 1.392817318608818 0.5436199113549025 0.2240724118370141 1.5329282144235405
P 4.61398067457458 1.0249310734894443 8.073800816598382 0.18554494518577724 -1.3181454554185685 -0.31301432638506094
P 8.44455511847813 1.7096739863515709 12.427581349537391 -0.18454761426951444 0.6320769158467308 0.4155100683581425
P 6.38117819003639 7.739549055305213 1.318008762926699 -0.7432059080147781 -0.3727191984448613 -0.12663685799565932
P 1.8138947843881894 3.26480310857855 5.88608970307511 0.8635890717912419 -1.0355781326694553 0.11345738319090783
P 6.907974988699496 3.923671259601253 6.045097692960498 -0.1615012739730122 0.7986754018369923 -1.0737052785584797
P 2.313490604339349 8.37945320723919 10.228474694982259 0.06442078947823099 1.3445956791902973 -0.08726144152183037
