# total energy = -381163.9651165191 ev
CRYSTAL
PRIMVEC
9.32587083866730 0.00000000000000 0.00000000000000

0.00000000000000 9.32587083866730 0.00000000000000

0.00000000000000 0.00000000000000 13.64935464586437

PRIMCOORD
 96 1
Ni 1.6522925287606953 0.5626251297537908 3.837529670480671 0.12455580709691451 1.3614793423195133 -2.495684220924947
Ni 6.246850703874704 6.983258775313691 9.431103116309924 0.8056168661518319 -0.030017886518328946 -1.3305754536518053
Ni 5.229631333120849 4.390088455161881 8.613520799196715 0.5101698592265731 1.4665438734610354 1.2448409902974626
Ni 5.208135200646976 4.711196842728206 2.66298938539211 0.0549097646640022 1.471521529181285 -3.7258866353736284
Ni 6.915021377781662 3.335565600722347 1.8297638523953124 -0.06603544226351854 -0.1792439426684139 -0.573316924198703
Ni 0.9263051854893032 2.582818603429033 11.274326065619029 0.05182186976729785 -0.4569133138952776 0.3589666247454592
Ni 1.6073698085322166 7.272295492781251 10.651942620174964 0.2826431702923713 -2.064982789538347 0.9253701096537805
Ni 5.32889590320844 4.39586116926224 11.778450939669845 0.48807585554101107 -0.6760520358761002 0.6520487309829673
Ni 4.249016005733566 2.1458176179222264 2.793600072820777 -0.007028367601691121 0.2766594419051106 -0.5329089526953016
Ni 5.123400337454956 8.417941431993977 0.26478105978804073 0.6323862195570334 0.2678914659044935 1.5208273173949485
Ni 5.315531930178045 6.8978431235444075 4.218701329716398 0.02837598003953178 0.7742476078119311 0.2670679415619336
Ni 7.0947868656629485 8.84184889472711 5.573782082559815 -1.0499146038967853 -1.4264513763155242 1.6849791416169302
Ni 0.8419741325081811 1.4789898694279529 8.855292137660337 1.0128917468155332 -1.2040239562811006 -0.5882900005687675
Ni 8.595468710854124 7.3060831231295555 3.292948235785643 0.5231953249519635 -0.028752903762976286 3.2589254503240452
Ni 7.415550196005179 0.3835441607981365 3.5748478642370416 -2.3742245362548533 0.5783087209863395 0.9714985285807267
Ni 4.605245623189956 3.9144037570730257 4.448802273308956 -1.2307960821686221 0.3644448742512111 3.4202552317161996
Ni 5.934434028007144 5.297318504268512 6.054662223338994 -0.890944323875743 -0.4090419441352955 0.8114321872820284
Ni 4.02853376540936 6.697327572862962 8.15783729647303 0.7747487158180657 0.15966602053648632 0.4509624956284814
Ni 4.3349725580162906 7.485913892107291 10.58141665391882 -0.7616923968547399 0.5355024244540907 -2.421480383918023
Ni 7.14471757857623 2.795420482824638 11.994902538581814 -0.914031801822826 -0.5104130855856306 0.050733521799125526
Ni 3.7130395521377313 6.822182332758929 1.8779058632658654 1.335683464302332 -0.25539821853348915 0.1776791692844553
Ni 3.4213449614575655 5.068778711468201 13.305118391596464 0.824337839600103 0.39368037407756074 1.2872937601450347
Ni 8.190399507382258 4.102916911878604 5.497004985025044 1.0822696231887232 0.8550735781210629 1.2346851328103834
Ni 8.67828244463633 8.05580853824433 11.14280051025297 -0.2184301259495722 -0.12731228679612913 -0.2240150762365174
P 2.141760864071409 2.6782222629551566 7.2878407870201665 0.14168835301214308 -0.6256345026554968 -1.740249632054461
Ni 3.0698062570746494 0.45977569488400555 8.087106161056614 -1.1043908805677949 1.7724403578543926 -1.5587559741199217
P 8.434299009590148 0.1178808736209295 9.358038647988968 -0.07701173876936414 0.2146277214843465 0.3589334575146786
Ni 3.4333846608171186 7.0148828036082245 5.9234789274357516 -0.7600330068744459 -1.0503678893841202 0.498369009936903
P 7.027528684577669 4.034670188475655 10.128967363230684 -0.4368173144763509 0.5746371856720233 -0.5146952579007523
P 6.316253835271909 7.21822409317886 7.045455806249915 -0.30399926737064414 0.7316976502648624 0.504125452804706
P 5.3067376338991465 0.08451757039955046 2.411608669531057 -0.6754264864769594 -0.1681843424201426 0.23691352946574037
Ni 1.414846529230428 0.15111641241068507 11.600900346132397 0.15126879761172657 0.7992472151800621 -0.8647396404559172
Ni 7.737367349761532 7.8380867557128635 13.568209603573544 -0.6435990575537174 -0.3905749956793596 -0.14147675122196923
Ni 3.7142612412284373 1.3056685583533671 10.285171038229002 -0.27661187649662683 1.0497366835580244 -0.4712536417773497
Ni 1.4323884924336185 4.129738116648607 13.485425712578285 -1.4822782534771568 0.16366665705544714 -0.3896679104840579
Ni 9.445615104050745 3.622793099231153 7.668931311178877 0.471064408584679 0.3905999353800241 -0.16947143666268233
Ni 8.498265158240166 7.697648465507205 7.9271907894315685 -1.5803835796920267 1.1770147746821085 0.38188363855294877
Ni 7.596080405302023 5.508017905996148 7.830839621419829 0.3474534818995371 -0.6298922494905862 0.10487195551474196
Ni 8.376926251681574 2.34356338494001 9.889107828305953 -1.146924125944315 0.2106725934913404 -0.13232002442336563
Ni 0.5495940903152909 6.4967280893432235 13.162632140136461 -0.4480887736251122 -0.15763690592159949 -0.589196828653753
Ni 5.0070507718393245 8.915663163070148 8.773245923054963 -0.2574990669265759 -0.5683451820157244 -0.1835752230539161
Ni 3.5877278245666147 4.623281857551982 7.021951813766661 -0.5186920377649712 -0.5574367626333367 -0.5021742426156061
Ni 3.350878680775318 2.268340910087839 5.265811981947588 -1.8189531567039514 -0.22832990156178742 1.3698691090451054
Ni 8.607368522149855 2.2887552415348265 3.225656481565047 1.6562668612839024 -0.02771032143107486 -0.15621405743214387
Ni 6.5960392887854224 7.314737531344632 2.1479308602730205 -2.599102217601982 1.0633532459001946 0.20743377483906855
Ni 3.452885056913807 8.496092230315474 3.919371648512866 0.4001281865854335 -0.619180776610353 -0.6403756655204131
Ni 6.297807262589342 0.9013454245552155 10.196954827422017 0.26698360937824345 0.13674257897109354 1.075021169156426
Ni 8.355709895335345 6.234372688581844 1.4634156649891819 1.2725114596295375 -0.39172222190992534 -0.8761759073173169
Ni 1.378233159992934 7.903918078547166 7.486685141632493 1.5907443541010604 -0.5056801988863355 0.623865326570216
Ni 0.5210149588766002 8.965677808821722 -0.04898040666638849 0.31017480005373677 0.4621092562739203 0.5458074059245245
Ni 3.1693506032898835 5.9230378137411686 4.04206560411634 0.7075246525630847 -2.240204498421245 -1.6485954607815736
Ni 6.913641148885292 0.9856886011685354 1.1732794273399851 -0.8770307991184444 0.374871983121806 -0.5810281768000316
Ni 7.145118591025851 5.908498780974675 11.278311942850845 -0.1531899258938394 0.17908453427241416 1.1475584170942041
Ni 9.228508829000093 6.6155676624948745 5.853362366913057 -1.150179399656819 -1.012888147271107 0.8163046848829812
Ni 1.8628520424245099 0.26361812368413967 6.072120253703892 1.9852551944997163 0.25164646480054076 0.48080837534532034
Ni 0.6284396660204339 2.018920492294469 5.397050300489267 1.2162901752429633 1.9805649881128988 0.17389193432788114
P 3.182276260386971 4.415762577808549 2.034163628315529 -0.6334182603659736 0.6247204754816597 -0.6678661576311982
Ni 1.4031425612240462 7.150462315063825 4.329288439689686 -0.07611236688354633 0.9324920654105425 -0.4543710070893981
P 4.95414510610211 1.966695615134518 11.946256930681503 0.8289524555539787 0.8983185048526271 -1.6897390248994189
Ni 7.869421682008834 1.9754246303169671 6.041791588880343 -0.18405936177918622 -3.183416521352453 -0.09811535351719876
P -0.2925236606050801 5.164788552604217 3.8642548187801835 2.15514494964674 0.19827267716509078 -0.6263667528358309
P 2.635369886071233 8.794473470446299 9.784103184666227 0.22791569684250426 -0.19037810490836246 0.5047057507882082
P 0.7709184567837001 1.757339138819567 1.6198506215863524 0.6577457813677446 -0.47973596821674797 0.3061368825389373
Ni 9.006152088620684 6.162908539711005 9.82285404351891 0.7230633716286321 -1.1901047750968472 -0.9575924600225961
Ni 2.1183062987040384 1.991241307399695 13.405386425395202 0.008252469816779337 -1.761661264961018 0.5665212414331081
Ni 2.2605071785138464 3.3954936472633896 9.31447004421828 1.093924433818832 -0.4292081346705253 -0.5770378246937159
Ni 6.938643808825619 5.290855675719969 3.9715797391051577 0.4254952045953123 0.6634723994388767 -1.1510528034007081
Ni 7.034215334028327 3.1440868189637574 7.830771542562102 1.282529763097488 0.4136097660116361 1.5270391026326153
Ni 8.55445353054172 9.052203239230655 1.9428764082141199 3.0346154685549287 -0.10230136657408832 -1.9161426559727708
Ni 7.924033982124668 0.509425699082552 12.326390620483677 -0.7066538199223572 0.667577936966818 -0.4645590033659935
Ni 7.760262362873617 4.704603451986761 13.699447922115224 1.3973164066227808 -1.2858002063186436 -2.158487383756411
Ni 9.329228234951426 8.998784650592762 5.017024790789782 -1.488183048997366 -0.5636953419485389 0.3748763539971802
Ni 4.683582938929882 1.370026393582085 0.19058722849850188 -0.1560327946592732 0.8348171418648719 1.1547456788712631
Ni 2.5470818660581527 7.618481147255272 13.724971898240057 0.8657282296214316 0.15890728799359086 -1.8788860856141576
Ni 6.578413392743939 2.790617659300107 4.209379189143347 -0.2770530777991035 -0.35157033228138806 -1.1457509315718204
Ni 8.955475306033689 4.518440416653381 11.696951221100468 1.1607350636854783 -0.27284958124071723 -0.6374060413691282
Ni 3.147500087720997 3.3049394406164043 11.580985881366797 0.4516942315881834 -0.08170271648713026 0.6838882440910673
Ni 1.437023450281564 6.011736172074792 1.7587874465736633 0.5357453937028321 -1.7372938918602467 0.26022443627753894
Ni 4.827602363569366 6.718217523726943 12.512895915279874 0.3916931684442028 -1.8085062503390146 1.5490829698065323
Ni 3.102661300330811 0.2872731952763208 1.4839167270357387 0.9016488547774407 0.8212113781559793 0.273185110203265
Ni 6.8510738808734875 0.4829644729301157 7.805656972170719 0.8044485568753436 0.22088810057176153 -0.4360745227730554
Ni 1.6578134443461758 4.599883247410139 5.619343624946412 -0.8823308711751192 0.03092368616204997 0.4205383748106693
Ni 4.966707054233262 2.131092067737305 8.32751219201734 -0.4107213887202475 -0.9429559410563437 -0.7079918220074903
Ni 3.800684087057234 9.044127035012705 12.00385723984056 -0.5553479984251081 1.1276040854594644 1.8383446738566855
Ni 8.727075401297197 2.257765372462949 0.0032053018356919564 1.0398086258110348 0.7249251074277192 0.4785180366492468
Ni 3.7925612534846773 5.292870063838996 10.332507293851945 -1.1502657887230383 0.09635723317551148 -0.5273234881877241
Ni 1.7523218202638433 3.6033673101018353 3.4259202337316137 0.03955333681258995 -0.4437261257810423 0.1878702508848442
Ni 9.328761941405356 4.1327130694725405 1.7788520578610978 -0.29144379930313674 -1.0284345796461385 0.5679178646703187
P 5.866019438927609 5.070354783653921 0.45550071565362676 -2.6769274534115772 0.7581064792756943 0.23192044712652318
Ni 4.960346810264854 0.7644127292289177 4.6655131314325375 2.2379295863441393 1.0953447112051264 -1.8345350703026082
P 6.451693458663688 7.942881567256857 11.771858481515494 0.07477822145315509 1.2800404210167309 -0.34879791174257346
Ni 1.6314958366059291 8.163960663320033 2.0595234691121456 -2.139558408062393 0.28416577758448475 1.5735264475608772
P 0.8175804519390236 5.829844385623421 7.8624515260821655 -1.0589252920358279 -0.17572101711681992 -0.8106374592948749
P 1.6400476602408711 4.879109148668367 10.64552735356812 -0.9462420680067833 0.9435205553105621 1.35537425786304
P 5.8649469637716445 2.7332169237787687 6.190842320881933 -2.616297755544662 0.1264910764464144 -0.23422878354472565
Ni 4.3422560632059195 8.935135581554073 6.319965531898634 0.6851257160425943 -0.36804441867701126 1.6774447809130983
