# total energy = -381173.0486096568 ev
CRYSTAL
PRIMVEC
9.20049428098582 0.00000000000000 0.00000000000000
0.00000000000000 9.20049428098582 0.00000000000000
0.00000000000000 0.00000000000000 13.46585338043435
PRIMCOORD
 96 1
Ni 1.8813538199624997 1.2899368636186808 2.3229002489550483 -0.3563237878059734 -0.37407699802433636 0.13898689492057997
Ni 5.056554713503794 4.104616398837416 -0.13378346355065782 0.16611794680941713 0.011362476200670754 -0.0343180565555796
Ni 2.397335925805191 7.199625786467279 12.320178216351216 -1.2727531433266983 -1.4446938674654797 1.458674498015288
Ni 8.696279349812674 7.14913347526467 7.6544218469035 0.05901761618478868 0.0961381751861699 0.27917603767937726
Ni 0.7623271734287125 4.15175973021536 6.27677115345953 -1.6920900416300988 0.45081774252050105 -0.1704075753237065
Ni 3.7866289243868763 9.378247568338722 3.5436337566749208 -0.2756793373800284 -1.8145645407179525 -0.693162984524774
Ni 2.8773533005088523 1.9051002950379248 9.606849483199845 1.2218247319079474 -0.3774168610308468 -0.6934686886906509
Ni 7.51682201843177 7.0848312225323395 0.8766920742927402 0.4064032209608678 -1.3565410244776315 -1.21622332656077
Ni 4.826339952040298 1.9861382463995456 8.027331670429106 -0.3616272022967579 -0.04200102702213411 -0.8734726494535408
Ni 4.99205004990294 3.324322500679028 2.160690019019059 1.6531262587723916 -0.23265963928539285 -2.044188221390499
Ni 1.3964693839202487 2.881134703552634 11.040989369851138 -0.4540712164607921 -0.8196283499395756 -0.22902564207723136
Ni 4.644271375803341 0.6499118572483276 1.3021293582990192 -1.9210447212600787 -0.6667616117131097 -0.7428683221697012
Ni 9.544316485468292 4.942496189090759 8.584050803660972 -0.789445398598292 -0.8067090707747462 0.4956942913182172
Ni 2.204199155257604 8.385817879473603 1.0929046039014172 1.1424159536613165 -0.9257845714833797 0.8444238117167007
Ni 8.74897057908697 1.4147967680156561 1.9719262432809834 0.5191242402063833 0.8826574012766024 0.2158312548741444
Ni 2.7077145916980476 2.943872872300919 6.0590681438189975 0.6540652471923639 -1.7429660025443594 -2.8050190415758913
Ni 3.5291715001189115 2.4897916902503465 3.434304286190118 -1.4991475184286698 -0.5468240201144969 1.3968397240966781
Ni 5.712927157655634 3.218342010018888 4.689658332872143 1.1851705710200233 -0.7444307815608148 0.03485593133692061
Ni 1.0251742470958192 7.397464009461027 10.218751339487653 -1.1756063243703558 -0.6625997670259363 0.04906461873713486
Ni 5.372186861484241 7.9098487221404135 13.700562376569657 -0.5895930356509071 -1.2056476079274525 -1.2936125032742107
Ni 1.259869649148906 6.1453595772682075 1.3237799608358227 -0.5981668933628472 0.6237701957532483 -0.3936996573512703
Ni 6.650282689294292 4.88052166134645 8.849031471892198 0.005593692037693592 -0.4362259607492552 1.0393797658037325
Ni 0.8990584752645954 3.678771532945882 1.8779744785075585 -0.12871842311503637 -0.26358255411649445 -0.2876084847174466
Ni 7.07023003851657 1.9454076593561878 11.846907563915206 0.351254343702866 -0.8058719195854314 0.6861492722111021
P 1.625552484618818 4.234646980875765 13.178115083576444 0.6996527060141757 0.2744490645173532 0.009486599334196565
Ni 1.6965158950243793 6.414851247719302 7.434214462789689 -2.0626420572203124 0.028256937963164242 0.2035524375067914
P 0.810267267589119 8.81024586928547 6.081691238574117 0.16470178318818085 -2.0025566618926414 -0.4309996793533093
Ni 1.820014126305832 0.3245768682703833 11.098690268121393 -0.3847781864919244 0.06255622546566646 -0.10238338476493335
P 8.843625261603814 0.5624924432317997 11.897256347411044 -0.4371106773470536 0.19202618203474672 -0.47078030168535695
P 2.956937573814713 5.723480124300931 9.47955696818298 -0.660213783292263 -0.27261638218398854 0.3496525464333849
P 1.2569898945194569 2.345132322714156 8.2905219225233 -0.6226525372090372 0.4107386151114281 -0.186460257911195
Ni 7.797216274301066 2.8681068040149347 7.85013475577775 0.9865063148434687 1.3521500944987874 0.9188747317374238
Ni 7.210473168921338 0.38667100243700225 8.201929445518738 0.3286620602246469 0.9994245655670335 -2.18432131410038
Ni 7.534707778814035 3.019565336634712 3.1605435865119813 -0.31961949040640436 1.3053683582585585 -0.4433628289043526
Ni 4.3598289025635735 3.990539473436332 9.564755382942161 -1.0230923414976185 -0.19792969200337526 -2.0457504236712962
Ni 0.10308417514144792 1.4356726889556557 6.6152352474094345 -0.2023314206154967 1.8001151980618415 -0.41384193662710017
Ni 5.82449234818822 4.197274574151094 11.037919164995396 1.24358397796191 -0.6837216366062161 1.9297386494896507
Ni 8.937166684343778 1.4824203990905782 9.866673274530733 -0.5692589520792455 0.44416038510498346 -0.04733349497864106
Ni 7.913887739016861 8.296839901769443 9.771213548786807 0.48816584415165604 -1.6745936846175482 1.878328670448791
Ni 2.7341384105343987 4.0379772206230395 7.8365069840297 -0.7718081451325031 1.4472168909976495 2.720294507543302
Ni 9.231039663957938 2.7611234595062006 12.863552033001563 1.1047783458142004 -1.0996798482453707 0.5994689000037224
Ni -0.17223600827372304 5.632441235935441 12.98323665951015 -0.23995591583648995 -4.207050594286155 -0.36930374500540913
Ni 8.613842923359435 7.199432576092779 2.9528194326896604 -0.24173897587884172 -0.3677628828808505 0.9103918910773934
Ni 4.7869066346542954 1.6185509086667071 11.283765565805327 -0.7540752466291143 -0.4708093551510794 0.07442083811373634
Ni 3.5211118673540636 3.5861317586202506 11.698432751507346 -1.0821742352614394 0.6606390437551396 0.26762304273445525
Ni -0.07128266754818693 5.003799080771331 3.7788416262451334 -0.8102008859780885 -0.7841162730758947 0.15213371671518314
Ni 2.8615376512819424 7.840118177934041 5.7721240562541585 1.1868744410850076 0.6249616449581882 -0.7276221946439081
Ni 7.33711796915893 9.492517704114306 0.5322725005612298 -0.46272143593662246 -0.5822191117843392 -1.57410803109596
Ni 5.085591472642904 6.064708046655586 6.043138408466191 1.4365157025300614 1.3174674555149375 -0.793874380903923
Ni 6.8555733124473175 1.7394546006334488 6.179507210837537 -0.8776797455563531 -1.9395756901847305 -0.7484614999867626
Ni 7.441957598560118 3.8580983619637466 13.237646880157433 -2.1464957586121742 1.0862620321775678 1.5699518428357413
Ni 4.523340082354528 1.4542300854016583 5.524945423909582 -0.461858830826011 -0.971658708307675 0.34891926781178617
Ni 5.1404356175187695 6.60123485565342 10.065913652813709 -0.4612818752766185 -0.7276700171627081 -0.3686769100546876
Ni 3.9943300769741374 8.242722595921459 11.324256940004066 -0.6209828628160983 1.5319699642753295 -0.3491414111249213
Ni 4.36444755056352 4.61692750756461 3.8765361519874397 -1.8438537766003729 3.5389352967586274 -0.10257878860519107
Ni 7.425037890050352 7.351958366019318 5.651456816983829 0.6726160136113577 0.8963991763427271 -0.36041055628083735
P 4.45124501118404 6.100994795085449 12.201664812731856 0.44237912483484454 -0.09357632799626465 0.4214711710375838
Ni 2.8778041247160187 0.595149596769274 7.384808729931292 -0.46118880134217993 0.3280722491594479 -0.727004101443935
P 4.278956560094381 6.925975492717427 4.111542530738531 -0.17041940239824846 -0.1692858030144375 0.24749541874664474
Ni 1.270855039013322 8.454536369337356 3.607946129950678 0.25842157874084526 -0.641506693801063 -1.1203155222178511
P 1.9384612863682196 3.905940930887501 3.9702855058923414 1.7980290049567742 0.9499868797611962 0.435443831167592
P 6.170670136327678 2.0499252714665435 0.9397310991956033 1.5183765418616109 1.204722782120338 -0.7489831768181875
P 3.438850250287277 0.6747817126440585 12.82001713537975 0.5400288515695344 -0.3667992334160005 -0.2256472125233017
Ni 3.6962340706030523 6.8437782791088075 7.830380375059252 4.088424779520429 0.09916076406257761 -0.1373717279146602
Ni 2.751950566964473 8.346899789752934 9.195319665959943 0.8432956116495283 0.6805190705085182 0.4511717834258101
Ni 2.8943282119827614 5.394525660974025 5.702317147947389 -0.3096325543970216 -0.6663124399908331 0.008906815571326597
Ni 7.53019033624835 5.376308682806903 6.829315102503395 0.1374123513446085 -2.0536660789739467 -1.5856018906681726
Ni 0.5474008728845623 9.010678631593931 8.344734913509132 1.128256631441799 0.5891274088683983 0.1890665851857905
Ni 3.2278001178753537 4.837380544868856 1.2883010157812493 -0.5291646551615209 -0.32989233308732213 0.004331537495818346
Ni 8.279690180909082 0.4646056271643958 4.184163870167181 -0.24623429264603403 -0.4138190538089648 0.5329395488229208
Ni 6.783837060543758 5.648680107887446 4.132979681813983 -0.23542871739009777 -0.2518932907040243 -0.42796423496109515
Ni 2.053485862653754 0.9114819023449311 4.863866007015166 0.19214908076585616 0.984461259388982 1.076653048332894
Ni 8.212692183427778 3.8747144541707277 10.785542253527373 -0.03948340280660297 -0.5799555125611431 -0.18721667646124532
Ni 1.252546055905962 5.119200877311842 10.867656662689777 1.357675652302707 0.5583050241709029 0.9334510868897021
Ni 9.10428445779206 7.651636857362496 12.731438459116223 0.7688619180199855 4.785575545048358 -1.0397877998754288
Ni 5.4928329396183155 5.5256879037773015 1.7249353010144919 1.9592389729416129 0.9767620909725114 0.3189335200829733
Ni 0.4116696647490663 2.6102629589979696 4.241999095650183 -1.17503091148286 -1.2877079648643177 0.3124057462667846
Ni 1.3408707985344317 0.7564913000694168 13.34818805570517 -1.7094966671423202 1.4264269508354919 -0.16801490672181385
Ni 6.679908280050925 6.138762823053143 12.01423418857783 0.9801973419063055 0.6547075087620531 0.3268517464887855
Ni 5.660005916030743 8.515839261017929 4.706557800295058 -0.0035134124698971746 0.1884747172380625 1.382872977503941
Ni 3.7998500342990758 7.051065409464997 2.016295625710754 0.054581691900622134 0.5194410001158538 0.6853959389848454
Ni 6.371562923337328 2.2322330605481193 9.62943117573186 0.7131867359448686 0.5337011095792937 0.17237112680798056
Ni 2.0508821228450187 5.994526678242048 3.484450658817432 1.4364964192563519 0.6421353285239972 -0.27931873390482864
Ni 5.88799415794048 1.2492062765753231 3.0622427482135057 1.2473318750401163 -0.2554820364965471 1.4190005764644336
Ni 6.099393909125308 8.570434992555152 11.301405672997157 2.758650481613681 0.4814467802602676 1.205012288336299
Ni 0.7813418344276976 6.782107367667283 5.291002622267642 -1.855776496179888 -0.09147779359602311 0.2782815508895659
Ni 6.3770556182695355 7.092118013799189 7.9884292215482775 -1.007535624709942 1.1390349530042254 -0.3849388804395048
Ni 6.362371629807552 7.921652955972947 2.539942663124672 -1.7173668139190164 0.6909042703975844 0.9588566714470002
P 8.477169584635902 5.911832637956143 10.321979962385274 -0.7987782459634437 1.5023698820207092 -0.015077463158412744
Ni 5.230186436720928 -0.030867657449845397 9.231811585406534 -1.2200218743712539 -0.8763342872720521 0.700357188280368
P 9.280538321805976 8.624055471725853 1.4535041664231807 0.053470975334946616 -0.7560115444198786 0.15707357721896173
Ni 2.9814936923642326 2.503132406584855 0.6074258159452289 0.04985266185606898 0.3628255934802332 -0.5749742572964678
P 7.849153063065411 5.152773480004685 1.879213785052564 -0.0156976132409149 -0.5320028959412644 0.27894335284328087
P 5.086355113646879 9.069423785935887 7.031733331422191 0.14868792425842778 -0.024954870173124765 -0.25623331284027484
P 7.742657344739938 3.4971813823981623 5.451892581311216 1.3535066085266818 1.2923547196077099 -0.18894574333721006
Ni 4.909751630860059 3.928132522472904 6.798154869343594 0.16088035255956165 0.013266635201919088 0.1946790462765615
