# total energy = -340870.01538907934 ev
CRYSTAL
PRIMVEC
9.20125673424908 0.00000000000000 0.00000000000000
0.00000000000000 9.20125673424908 0.00000000000000
0.00000000000000 0.00000000000000 13.46696930785923
PRIMCOORD
 96 1
Ni 0.9298973912909984 0.6751366799345178 3.1135230377839966 0.33631160635010465 -0.810057675532005 -0.8552085610370304
Ni 7.653347578208389 4.806368380942055 8.318398760818551 0.21463080680814006 0.25054474709592983 0.7097851664624872
Ni 3.2717184017089918 3.8924995785927843 2.9676619582886143 -0.5889320050281405 0.1593718863348352 -1.5062694741854317
Ni 8.291703155137359 3.2077788698168748 0.48623120208764437 -0.4614523394162117 0.35403267777895153 0.02011939645769438
Ni 4.670125374937366 8.58303334059832 9.062475855589978 -0.0615709787342617 0.40081261424696774 0.14058612108689983
Ni 1.0006642555566874 7.491157028681501 10.68668626562919 -0.06240170216567318 -0.45985722701495 0.4233102811288516
Ni 1.586784298948235 7.256221344726769 6.9261023420770895 1.1738016670614495 1.5489238185208487 -1.2628117158432703
Ni 3.142183111742489 3.6531288889722013 5.3145639025835445 0.42812801423246916 -0.3556753555886971 0.0025878153318342526
Ni 5.196777697128921 4.656231477519451 3.9230624724095713 1.2099722034447356 0.5314657924908718 0.31963337436347533
Ni 3.8234257455356353 3.6102510333645936 12.085095999234532 -0.42039105059952764 -0.2858449650591206 0.40644050195670645
Ni 4.388290886254742 6.443998823685921 5.395326091859221 0.7099000947737967 0.6750667891446954 -0.3310868676160556
Ni 6.2909727257009145 2.1728307322872373 11.29365635640418 0.4742790588672348 0.23503148195167908 -0.2398322457744321
Ni 4.574524319194223 8.217890674947611 0.09246250712774448 1.8261090510224423 1.8248798066010312 0.055550740682110786
Ni 8.199653784429525 0.9668956439515543 1.5700600950099544 -0.21807634215457924 -0.9775210806257231 -1.0000259465964583
Ni 8.16888478246561 6.8100524137368765 5.898289779016057 1.0955928226601905 0.20719851889981092 -0.2628495326052118
Ni 6.131468943091928 6.721278690367305 9.340636282524938 1.2897501921053272 0.5547630724559156 -1.8243357611721034
Ni 4.7267499078577995 2.254933544644895 3.976189607708448 0.8079426860715312 0.6300912528752697 -1.2780100208502636
Ni 8.096940157359198 8.470566381565748 3.352049972177279 -0.8091696165000967 -0.3336631129836641 1.3971500562482455
Ni 2.58341840412807 5.139380258656763 0.5503759220012314 -1.6839797538181385 -1.7635625957487884 -0.7368845937824406
Ni 6.573810151349468 8.355035404095979 5.337700462224173 -1.4242605393117922 0.9694280192049435 0.20331512468500468
Ni 0.24095330575030546 1.2893812841522916 10.750345159195978 -0.35168294659985233 1.6385625020256038 -0.16449275250116832
Ni 1.7141848973909253 2.428736079960797 1.649501903968101 0.964756324760887 -0.07221251760850789 -0.0613380367878492
Ni 3.4698950656739393 7.985991405660371 11.211938156571069 -0.347757129182885 -0.6219837932767868 -0.21447139841214027
Ni 3.006519784901595 7.2641068216056786 1.3784788917530613 0.4557709727607183 0.04838353350971022 3.3392310293533325
P 7.9271401686504435 6.409806954278652 10.477045756105975 -0.08587535980758113 1.0416024844866643 0.2953966133032977
P 6.930368044622087 3.1814632760319483 4.331825535072938 -0.006382506487576104 0.731069015541928 -0.7738058922888222
P 0.4925966313814948 5.417874691205145 6.672519391561333 -0.2041767013543516 -0.338753640132694 -1.2531505386044224
P 4.174748123820974 3.0847304657309227 1.039096063990562 -1.0029760303637179 -0.005726360960815945 -0.27494528742748137
P 0.21468463837387647 5.475051299519667 1.0246114459009705 0.6111838744478054 0.1905801936168395 -0.3381268051819725
P 1.9618275166662804 2.8828180915993036 11.284660287857493 -1.236006165614652 -0.46576125120421075 0.5084014544722405
P 4.457309511772482 6.364987633535163 7.518689948710394 -0.7913554711368114 0.5657416829546064 1.8472851708794251
P 3.3891264355186648 6.135011426870667 3.363308629714075 -0.514160982663837 -0.5773512421690766 -0.752904880470097
Ni 4.234133033711854 5.825140709424873 10.179425591655024 -0.6749544319365473 -0.500052568286913 -0.24007367236127683
Ni 4.471424239348034 8.001191881510966 2.934345128380978 3.5228972694591585 -0.25395531543937555 -0.7006739481898384
Ni 6.911422657348253 2.696428237298164 7.812404179748164 1.1533552262816396 -0.8870470457038658 0.04695425726235139
Ni 8.51421714272508 3.672157087555148 5.922045583223723 -0.7304794615870452 -0.7649276159625858 0.587455163372298
Ni 5.543738679800953 3.296856234653194 6.058937277816467 -0.3522961547038191 -0.4351496969659409 -0.08066090548617721
Ni 2.1511341692995254 6.119387693217939 8.912426364104773 0.11049855767290002 1.1025885372517332 1.7793239723481034
Ni 9.32050485327947 8.85939308162289 12.477173503237207 -0.8806388281846769 0.42520004195239675 -0.1490386227296272
Ni 3.5733723970394236 0.7466525264848547 1.9412498264772557 0.1344352709941556 0.6593599199324 -0.7039392492046715
Ni 2.7490962298942896 4.5976102719237275 7.487432360022711 1.2424537210122086 2.0492247553731415 -2.8889074528604306
Ni 9.10970406530301 8.847367039288311 7.328064756010932 -0.22689599732873827 1.2441923009698699 -0.3698997267181952
Ni 2.7390024514390228 0.8568265323806429 12.729356022503291 0.004234606906637868 -0.4864066953687043 -0.37615033561359734
Ni 8.47848866347093 5.117048808965847 4.113001251369049 -1.4046908447099808 0.7551671941417124 -0.07210530260668227
Ni 6.219690591067409 5.52813334866136 6.582587229989832 0.8759493931288075 0.336340145595195 -0.8633605007202033
Ni 0.9417670122639198 4.402865676658702 2.7536048456126863 0.4947802641443801 2.3784025788919427 -0.8628159410706432
Ni 6.079822289974867 2.093902353445594 1.5668948627505088 -0.32082482356841524 -0.526671713536338 0.9972108457451665
Ni 0.1788751880619263 4.964501176322385 10.27721010558179 0.8658423866017928 -0.38671397006205654 -0.944722031817831
Ni 4.709902407081505 5.3186299378610125 1.396686338250129 0.7965020483347572 0.014997758960412881 0.5833213437095824
Ni 7.128563111100171 8.359166768295081 13.440601193588222 -1.4859729287199246 0.5690499213922329 0.8132782393518316
Ni 1.6211693947434347 1.161318195236694 5.278553864878408 0.3001981484569991 -0.5232835137903956 1.152820693934408
Ni 9.045037634142009 6.687841323998627 8.32117293967385 -1.201411458358918 0.4770561073917397 1.6857070209218905
Ni 1.7521400807345695 1.9326227283189528 7.496752312800597 0.73010922273182 -1.25456130290902 1.4147353734301766
Ni 8.259333134530586 8.67031646040385 10.091567393313985 -0.24875114553061678 -1.5179643940248568 -1.0087589555940821
Ni 0.7304849985689474 3.991909954555143 8.174396335149936 -0.8100000828211922 -1.2741564514321282 0.5728541256296714
Ni 1.7557285707961505 7.448104349199098 13.162400281124365 -1.149319108539053 -0.9941563751895587 -2.7872316356854836
P 4.472878037885802 0.5204469947619899 4.944437836375522 1.2307706282473254 -1.2050745090328019 1.8671094046942038
P 7.000969286269549 8.34409511003644 8.05304556290081 -0.1708894000561315 0.5402101143424052 -0.3388870803867648
P 7.669054123170231 1.2292970787622317 12.742634355856795 0.5639917901430351 0.2233558453859637 0.4283578708550881
P 4.366603524523598 0.7186190580986533 11.114774727462654 0.6169588292583698 0.4672848869375888 -0.7654701187296171
P 6.024384719151726 9.249839202836029 2.124387036581552 1.0156063175332188 -0.892785747959856 -0.7770292843221263
P 3.647451713669649 2.7553714868737726 7.243060787457336 2.172194448929859 -1.0135522632176674 0.44136713863056243
P 1.6076895538710858 2.8703687914625884 4.058297940820046 -0.5472163704569092 -0.7163219391397406 -1.204510923219848
P 3.7794713429095537 6.509309342806692 12.800893031943733 -0.686842955844017 -1.959921343720618 -1.026328331936413
Ni 6.195656908911385 8.595970307333147 11.248030085459662 -0.7498851198071667 1.708836407850502 -0.29719844239872684
Ni 6.571215396997248 6.8361195735944635 2.061335425948262 0.3870983499846688 0.5787794899751709 0.3375367370064574
Ni 2.1377923472756986 5.893202404259524 5.181107037067693 -1.1450675323515505 -1.0069733244485692 -0.8906373341582856
Ni 3.544673677803345 8.617749681629974 6.839132985120534 0.23621547495745127 0.04304643756751296 0.2634632549298108
Ni 8.517538796346184 6.49994246362031 12.704199787045951 0.011985197386334197 -0.08888303628565337 -0.5142609985768112
Ni 3.019300330274764 3.6916913552493438 9.482187493443796 -0.4422549405521545 -0.69450278638212 1.6920159938590538
Ni 0.7161144760608013 1.875731358958043 13.133109000965296 -0.155068630973791 0.09284510625719493 -1.0900245845437937
Ni 6.642607946709571 1.015726712558759 9.389238239843595 1.6201696013407132 -1.3336479219295418 -0.7866305548573163
Ni 4.68182937329206 1.9047613234305758 9.012419179607896 -1.2327768600440767 0.7445459669824404 -0.10060392426700737
Ni 8.700450575664561 2.6615278711351475 2.986920188285765 -0.4653221067842631 0.33770103049846356 0.8589022078385338
Ni 0.5991186585453818 4.398311054657465 12.500902623800824 1.3034649705882584 -0.82206472729521 1.537113970370114
Ni 3.106969902856156 8.27817730798217 4.506627326852142 -4.015342971933091 -0.1364672138225198 1.1263265042986215
Ni 1.2342749585656043 7.066436226751979 3.041555409536163 -0.14331766108544994 -0.5391472202955295 0.5392019847928649
Ni 5.648255753158638 0.7007824222412825 6.9722273211276 0.024140344691629394 0.27281075758298173 -0.06118094238469463
Ni 7.852582386678675 1.2842653855003967 4.786753142190059 0.37195172415121747 -0.24782014907591515 1.204288779906713
Ni 8.973838310817618 7.863955139796916 1.3394922475481266 0.4705332186715574 -1.5003070859544096 -0.6606164180473204
Ni 5.914963376043214 3.778836456206351 13.167181254037176 -0.1273289989666775 -0.40430931454631663 0.7894345999650146
Ni 2.4104623844164386 0.9349488811469161 9.954891008124937 0.8916392930602386 0.0741873819466916 -0.05137912580292441
Ni 5.082433681756444 1.3902638611655558 13.09863373285573 -0.6114214443799083 -0.5497967295895757 0.05516456098728564
Ni 6.915093958718948 4.066062881237913 2.150041980144885 -0.0709508772872649 2.2271173262199837 1.1574656489055872
Ni 2.2346263713989742 5.489230435891196 11.26191478162101 0.8762144738647363 0.20111503170989234 1.2465502596790854
Ni 5.315529114397544 4.441023287646845 8.466332883418739 -1.1884435853443405 -0.8590281918934366 0.6494154071251783
Ni 5.869417156030841 6.434944787222854 11.763680465172673 0.28596452135612044 -1.0966230636969179 1.1430515303627862
Ni 7.659797659062667 4.403933022420608 11.75573518012607 -1.3869993409674886 -0.2645446609194476 -0.9795663931905259
P 6.4675632417569675 6.4695323106625535 4.296636249453682 1.107983997235692 -0.28876316714718014 0.37257136001308744
P 1.4683365231463608 -0.07384008395945321 1.0278466077103343 0.8991428005261354 1.6711970002311733 0.20894789749074982
P 8.4338257640891 3.0084612500374757 9.560497547844058 -0.7703158768576928 -0.45833256284030743 0.33065235118179825
P 0.8121194669672858 8.337599022899322 4.79188468297812 -0.8218320424591137 -0.5299221021528358 0.4756563988307357
P 8.943050906340567 1.7871968682592443 6.998204308670819 -1.6943698388032111 0.5408328355280685 -0.7674015314243752
P 1.590612021680588 8.412451245081273 8.86114408074781 0.04627317203492676 0.03812637455807628 -0.6526465124679663
P 5.544566792892087 4.1113974723492195 10.758168987655882 -0.3635161917893546 0.7400169687638352 -0.7362862980768093
P 6.667175301746548 5.690931181121747 0.20942520011951837 0.584322274170271 0.410668423995125 0.8524993896359834
