# total energy = -340870.4689433915 ev
CRYSTAL
PRIMVEC
9.21848664259192 0.00000000000000 0.00000000000000

0.00000000000000 9.21848664259192 0.00000000000000

0.00000000000000 0.00000000000000 13.49218702034123

PRIMCOORD
 96 1
Ni 7.649795154044814 6.932716738597248 9.63340789339267 -0.1506180514016051 2.620040510416546 0.8524518242274995
Ni 0.3129371983194347 6.023036483074272 6.686431041934505 -0.6322198691824983 0.3664680753288269 -0.18030040895738628
Ni 6.522282060682277 4.966478080903064 13.277837002373708 1.2140085782976382 -0.9539384082097763 -0.6347976572120034
Ni 3.2175836812598044 3.1173326397234 10.668758245342392 -0.8157629534468983 -1.6135613519955758 -0.6286951438586915
Ni 2.067540606700488 4.926506723100596 4.484924622735674 -1.2198334125095314 -1.3218735550024332 -0.08937771653388478
Ni 7.075151574714856 5.96849991647847 7.555746310278129 0.5893343826728819 2.4658918201538627 -0.546782111132968
Ni 4.7727423669785525 6.963571013174016 6.924689280485074 -0.3287667041233112 0.888728804281663 2.2709584917746506
Ni 2.704095541888697 5.965660622612426 0.8595012675326212 1.4989238324536378 0.1831579330108394 1.1842701706929413
Ni -0.1524193789303044 3.1651581480903763 3.286318560883136 -0.8390972572974645 1.2197691349304993 0.2920629209443744
Ni 8.614187127408577 3.369845424069624 0.7831998541260173 -0.16656171921505505 -0.1637756718294857 -0.3213644981219691
Ni 2.702500743710693 5.7986953937106005 7.533928918093834 0.11093615943095089 1.3878969130810934 0.30680974023624574
Ni 1.0693905354878683 9.428114962845243 6.309243757711964 1.2891292706918767 -2.2201516935354277 0.576997972594716
Ni 2.6743474857012974 6.99121725442162 3.278412786793792 0.24089462560067545 0.39927792276999624 -1.0947795827302758
Ni 6.302577870067369 9.197440773202443 1.5279226671238693 0.13985258535498493 -1.361046625657469 1.3887088674594277
Ni 2.4653643949766733 4.594991508780397 12.326786022785713 -0.512974932775536 -0.09030125678941868 0.20723991366070763
Ni 2.457307437707449 2.0642403885055423 6.75484972746821 -0.8203325750954518 -0.5184300423528362 -0.7724192963539407
Ni 6.735312067014669 2.5657444953251707 5.671778036049842 0.0499652761745333 0.23336823531664327 -0.6237375427431
Ni 9.177289161542804 1.8807279761960987 12.396189242685955 0.5775618155179859 -0.02523614885896944 -0.8307740821437499
Ni 1.8953853698552143 3.8373701893625225 8.324800396750113 -0.5272041890010404 -1.298171326289487 -0.3876418811929646
Ni 4.795336877581377 3.212504295155293 4.334729664616655 -0.3244104840371445 0.3610404765553524 1.2079744562884163
Ni 8.49513037325293 0.04036590902800981 0.21008285617338626 -0.534125598711222 -0.17796584728693868 -0.22515870292265736
Ni 5.85857868252168 2.6535782354409276 9.851832558070543 -0.27435496214165006 1.0892807643992337 -0.9495158536620486
Ni 8.49860574269286 8.786655792797506 3.149306038570744 -0.7455821215564385 1.0150249911084521 -0.1823737465466472
Ni 0.23153611813784788 8.953611803212752 10.001866192674445 0.7640994636343357 -0.16836637652396166 -0.922589718695166
P 4.068468429387913 2.3039947874277305 8.55884947432914 -0.49866108725602504 -0.31809354068018125 -0.03234190666581527
P 2.1420075412780575 5.080971684202572 10.24015116483609 1.0339696505317548 0.5614633672942266 -0.7847575062043194
P 2.183758066990092 7.777526504070416 13.211185500717018 -1.0078387577726577 -0.0940247283875929 -0.21397851793612183
P 4.663706107733257 1.2563783172372405 5.457346819757586 0.32284236821907625 0.33155043751603547 -0.8517491417335202
P 1.2508564437769825 8.67576661775002 4.246598167384427 -0.6800680990140288 1.525133143859154 -1.4201120643610574
P 7.5754111858464475 1.6799493385259485 2.238056796632182 -0.13407454522062714 -0.1967518696451902 0.8668852260440102
P 4.409358844557999 4.516560624974261 0.28401696222674433 -0.31451379374872285 0.6144939126576449 0.20600938368771618
P 2.066969060532648 7.91028192928106 8.04675332643132 -1.0617234236062554 0.29082956275790556 -0.7735598377162871
Ni 2.0505048435042323 2.038926424362189 3.7272304772738334 0.7710491554792914 -0.3495964963844689 1.3668442061758523
Ni 6.347158471158869 3.877747160574426 7.76229756424346 -2.1515515758685266 -1.0370588309800397 0.48794910015515963
Ni 5.411767856569682 7.864078874551822 4.922826703258633 1.438526048091871 0.25317755673308656 -0.2813002831112317
Ni 2.464046151396011 0.7638806718043766 8.976891247368329 -0.30853829289157836 -0.10676145922797098 0.5596975336430554
Ni 8.22530527111311 5.556120137895526 11.473148634565398 -0.8939206328952475 0.44741925836191326 0.40209636605539784
Ni 7.517555964082541 0.08131350455909521 6.015828548418887 0.4946131424388966 -0.9634378630597794 2.71533433532455
Ni 1.006649515837591 6.766664139866652 11.374736681101316 0.5600433470182484 0.8670482339844358 0.6322890318575368
Ni 6.490358441662455 7.685184924017988 13.008977997627268 1.1484104806818545 0.7125334186315858 -1.9794367880457266
Ni 8.41952034633968 4.847596477992401 4.951498040213717 -0.5009635101369565 -0.8860851960112288 0.3723160494691717
Ni 5.513558385364623 6.466786771482354 1.0740172939013966 -1.294098441771694 -0.7446768361333498 2.192154951212186
Ni 4.755070528208411 1.8011540000542834 2.593562200423125 -0.532085942573374 -1.5125329385966402 -0.8639228009815766
Ni 4.2147105004622585 4.414429012175932 9.014925801140746 0.0032599016981943855 1.988050497856666 0.8153130103936731
Ni 0.7700764166334909 7.9210859955505475 1.5376371082798292 1.280726134229846 -0.067885865208696 -0.23796099689364825
Ni 5.261331374102319 6.633383260921058 9.527481029670154 -0.02162169203483373 0.38075261027229906 0.19137980669999943
Ni 4.857570880469862 0.3451677929423064 13.19500797862118 0.5306057584834216 -0.6940492437844692 -0.935106363104938
Ni 4.7788265681200714 5.540734483796744 3.5285573419381118 -1.389457572699994 0.19675521207929986 -1.0808760852753063
Ni 0.3418408411362845 3.7311271315503793 10.038753966716552 -0.877347559027915 -0.29154587209863986 1.519916632655221
Ni 4.833132672551424 4.663392679189603 11.528439273363285 1.4047520369652196 -0.9564681166101656 -0.2841207832791623
Ni 1.9400028448930253 3.617241948365024 0.8538936621471872 -2.9046266633679005 -1.4348136322372902 -1.50493404320346
Ni 8.730376932238448 8.04743457258944 7.777462896513027 0.32327508488112067 0.4474673379910294 -0.32668513900393414
Ni 6.655526065681558 1.9706174388187634 0.2763425721505093 0.07064465890075575 0.40233933530413934 -0.5060635503676834
Ni 3.9660786989653984 3.7108833350249593 6.87467438155581 1.5053629032107623 1.0399922025767507 -2.083608375059334
Ni 5.8927423937799706 5.43473110663563 5.605262046145849 0.9813381403789679 -1.2637231719139463 0.1422542528179421
Ni 9.103025033669951 1.418927891068175 4.891187935474074 -0.33551636414231895 0.5776366346199793 -0.9790354603877203
P 8.15611131085819 8.296407458089687 11.48264736313543 0.3380522431902952 -1.6655871102435638 0.8503676880049613
P 4.867646686299682 8.191879038781064 11.354161019059084 0.917173175665285 0.3985305030810104 -0.40970888829533314
P 6.6809045592309575 4.438332547872842 3.760367249127328 -0.16923155273773435 -0.6748747277385474 0.4013047233920379
P 7.76434406826379 7.1159710332825075 5.364359023796035 -0.4223021515793114 0.1190068522542273 1.0672168426206587
P 7.380062236770774 4.860198149144609 9.54284824679578 -0.24689043817279416 -1.550484735250065 -0.11048030284045489
P 0.8850521467810305 3.8742994465942315 6.223541331693054 2.0950055611526825 -1.050645568525539 -1.179315140680511
P 7.4091281249513985 1.9148455950214993 7.570304144282201 1.2326526757613867 -0.031149429019610868 0.9842185472505566
P 3.725125896788062 5.597465050198125 5.565770049645439 0.5244435955367678 0.35176882144543936 0.040374804272620794
Ni 7.870218386612811 5.24711646779895 2.012103393966007 1.012642092698572 -1.0365232701915439 0.2644392456898349
Ni 8.557862174416629 4.11400775308353 7.5092657791028925 -0.12810470079043745 -1.8775020607824375 1.7871267562219737
Ni 3.489298573148127 0.8240819984023985 11.303362548770686 1.344883128523729 -0.5803609755296779 0.8082512184508855
Ni 3.9031072171506693 8.221903649565807 1.137771425226603 -2.1881288607719283 0.6884524664229821 -0.26540572336816226
Ni 6.564060241854045 0.6467837678952254 4.18503342662151 -1.4562118954074084 1.407060630493738 -2.585619866844831
Ni 3.5929604547184137 6.5581880659038205 11.870669134633165 0.05958634420406512 -0.06728011330389704 1.873815870180102
Ni 8.063760512319185 1.9335959967212735 9.872570465476546 0.26697846717192086 -1.6065905771046978 -0.7790350018982454
Ni 5.035902503322435 0.4755734259242031 9.495275324961042 1.1557512373176417 -1.7331724134927053 0.9869835115902033
Ni 0.15303333013640322 6.76576994666858 3.9041258599175452 0.35857350307209856 -1.0684594567785084 -0.9010765272137385
Ni 4.1991773505782275 0.35214526543324015 7.395324363149411 0.0049750846170882055 -0.8704220355526752 -1.8616926045540068
Ni 7.414437973220361 3.2188281769478424 11.680807028768754 -0.2604501791350999 1.1065974013008104 0.21807994169900508
Ni 0.44402776485408124 5.924453987608498 9.041411434928172 1.1092410095712444 0.7256442449819309 -0.1828997942534463
Ni 3.088377373381713 7.700340115952319 10.104676286084917 -1.2405588179823408 1.1631537004293 -2.3705476016238984
Ni 6.045068665995837 3.685523278448716 1.8504941057660347 -0.5884347536767479 -0.11219291465618744 -0.027385076881172192
Ni 0.551817684714023 1.412594790789048 2.008014995168638 -0.45967622135239544 -0.9322238993508203 -1.1148264740788218
Ni 1.8395950890847943 7.156624559091752 5.555461937953853 0.5489192120806288 -1.5780708723984498 2.109814344030741
Ni 3.1986673468016247 3.8042666040607083 2.5117591942267348 2.1562122145689897 0.48770947334052783 1.4721362799471487
Ni 3.9651107578747022 2.3077098375186886 0.060242809787623114 -0.2379995634410675 2.221631363404748 0.4575121238215411
Ni 0.3144647015454192 1.4260353442198594 8.023790076365373 -0.86522892138751 1.2968510648161666 0.4958668123403396
Ni 6.846450141199762 6.780630147032412 3.332003536666687 0.592277781571922 1.146226328546342 0.35944664970567125
Ni 0.4078359865486171 5.805129897342088 0.39300344164451834 -0.6318200626409184 -0.13816876989465882 -0.36895330364452583
Ni 6.675355030310965 0.6356718041740316 11.719178979149929 0.6844636569785632 -0.4169701978434367 -1.0047572906338567
Ni 3.3184154874506264 8.614353060166982 5.0229256397665 1.0235176019604952 3.3703624606508145 0.10620892915861065
Ni 1.9404268952756163 0.8934916712432446 13.500956642265788 -0.5031890570333657 -1.7502715350668372 -2.1057090636131153
P 5.417068486352067 2.3689298068835862 11.849688781030157 -1.499100210130502 0.6250945709916267 1.1028520753257651
P 4.903810809145412 7.7559829009374885 2.829446678679844 -0.08549252254686567 -0.19941784651312752 1.760538464210484
P 0.9648989901255564 4.9202381522275145 2.478650077832974 0.5326772963004697 0.5460228643694403 -0.46672541488969294
P 1.5305176710955934 1.1749790807529692 10.965464454343836 -1.8388316407954333 1.0867286874013415 0.39329008061767756
P 0.3071673475702268 4.16770543740073 12.417129034948019 -0.07768819601109847 -1.2111891065709721 0.10320665199717709
P 7.84260901931152 7.238337224119677 1.312612007212065 0.18591235582752497 1.230673440547829 -0.27337331495467115
P 6.386198761816953 8.340195269335474 8.099062706669864 -0.41628551307158623 -0.7202109897815016 -0.059151056438859415
P 2.7270403549814892 1.365875500811439 1.805727291245659 1.6260152614882126 0.8639899067740863 1.1955521713646635
