# total energy = -381174.64665654267 ev
CRYSTAL
PRIMVEC
9.20659975896466 0.00000000000000 0.00000000000000
0.00000000000000 9.20659975896466 0.00000000000000
0.00000000000000 0.00000000000000 13.47478936461172
PRIMCOORD
 96 1
Ni 7.162191354213138 8.15026204404291 7.376759445472187 -0.03725991279272293 -1.1243742656682572 0.25274612562262283
Ni 6.69516817273129 6.782520390404319 9.894497463944052 -0.9686338054384223 0.38375051655835846 0.15912480332103565
Ni 2.1719197216512143 1.647207986634459 12.335818863831422 -1.1366186302532488 -0.8091377348208968 0.47534015314189754
Ni 9.012045806193408 3.0918984003184935 12.055233928975595 -0.804193246331428 -0.20929216820404603 1.6756180121170046
Ni 0.027467890116724656 0.33595066329388507 7.686989631266795 -1.3716735092436956 -0.5636128095370616 -1.7556261145105312
Ni 4.1247684041445725 7.3436718469166316 10.869155979373943 1.6995218153177956 -0.2519195159562694 -0.10902557267179934
Ni 6.833791943968938 1.67319821750408 2.741688555455048 -0.3444913139474196 2.0096624196994877 -1.0460687477881339
Ni 0.10975003335124897 5.030191448732903 6.371028656154598 0.23505667876265968 0.3606270431670176 0.13032407703925944
Ni 7.320949958930014 3.760306742991303 6.3997431198667 0.1967726955807966 0.13765840591714357 1.0765039243495393
Ni 3.1662877256555593 2.9851294639405297 8.903009284316616 0.11270404996465107 0.719588011485522 1.107370274911093
Ni 2.1816142711041757 6.794249598384446 3.2090477778248663 0.6976212774064438 -0.9282919112862659 -0.48867235147442933
Ni 4.662037941111793 7.73792606460341 8.524528733845186 0.25692596803192524 -0.09669764723406572 -0.5007634783110085
Ni 3.9657980476352757 8.563951393633962 2.1448900656788017 0.7860870236490204 -1.5917542834228136 -1.3639601997598378
Ni 0.8935097046147963 8.413092051434313 0.6419642264394365 0.5207720602224515 -0.21271584917361433 -1.043000136165139
Ni 1.931038247874112 4.4837613450936065 2.3872740565221178 -1.5583656806600388 1.1071617584447127 1.4369093384240543
Ni 8.728611428739583 3.8723510609804226 1.8354010111576635 -0.4707509911093183 0.3227446662989474 -0.21334654077907775
Ni 6.216738014257781 0.3634618244290607 0.6766031370394582 0.4629662049575769 -0.9484917832729085 0.47337660165762346
Ni 1.1157938470576318 4.170948708091443 8.627731954170793 0.12355616218780657 0.007441286769393635 -0.23268689297890252
Ni 0.364219527581937 2.5279389309067 6.69147264362358 1.2805554129799364 1.0121191303155666 0.37230010862957175
Ni 0.8596800541258053 2.0505859445946317 2.729560701709192 0.1812802563721523 -0.44865595898249183 -0.2263046436016425
Ni 6.4244204896233175 7.280146309190673 5.157933939820071 -0.5537523718032141 -0.01694639804635146 0.4950653994849668
Ni 1.857007979924193 3.4182355322365168 4.5095269349312685 -3.371594276175387 -1.5441870751668116 0.9232972862851517
Ni 6.512085731685141 3.387052779152774 11.578684678814756 -0.00457887761993405 -0.08267947857810277 0.15320123874774905
Ni 2.45495821531921 6.490588321454689 7.952645144097054 -0.6987145104706224 -0.23864002523854386 0.7195836406101479
P 5.1887475082570305 5.066032741249884 11.114788058580986 -0.8523083566710999 1.0065022983494214 -1.4747140679766537
Ni 2.504738299737219 8.893915925822135 9.515356800276251 -0.7358342981410553 -1.7033730707430856 1.8561914722301194
P 6.551462358475566 0.19913230625160805 9.03752783276122 -1.2065328387458834 0.5661638580936895 0.11331468696545645
Ni 8.448960963750306 0.6120676353296526 12.724769159448066 -0.24553675235837713 1.3080962987126827 0.6885918202143237
P 0.24887096097110026 7.307784521401301 7.772325603612 0.5596574244337393 -0.20698743133026934 -0.5514545769079728
P 8.60770115526784 3.6651933617961014 9.916124687229857 1.695626336918131 -1.3577337592341518 0.1540494456806573
P 0.42080236849642605 5.607859545053966 3.9959625507954692 1.4478581241260742 -0.5973240857465777 -0.02787641469529393
Ni 4.480345696615878 5.088413985048695 8.105503239085152 0.6162281217399322 0.34215443828412684 0.9499570549645252
Ni 0.9603312050227693 1.583884994101249 9.339066067806977 0.26456265864157663 0.766119579388158 0.5859050452763587
Ni 7.837016696856236 1.7480846992233485 10.469951373044376 -0.8812525505092758 -0.33013555944637984 -0.08965796677846495
Ni 6.900051841797016 4.193145819896848 8.92058007978763 -3.8594328188946108 -0.7460744878118247 -0.5441241046848307
Ni 8.957395430549742 5.318091027026886 11.249036853655246 0.9368097189492899 0.4445743327139505 0.33577733111318947
Ni 6.464588883985399 5.554673018757898 2.2815381006271758 0.07783269200876272 -0.7111535075649236 0.10888210511539959
Ni 8.116317311058038 7.096916562549796 3.36466877337406 -0.0694588661227707 1.0878458317249202 -0.7483771678030724
Ni 3.5758341053949185 8.346334997224034 4.840535495522068 -1.7575169037753409 0.5780809212462495 -0.22237291264740414
Ni 1.4955937032618358 0.8532216244569993 5.283141854017971 -0.6341885628730948 -0.3815059434985559 -0.3654008104065772
Ni 2.5580813382276846 1.0387714342148235 1.1110358763479542 -0.6218745213924323 -0.37422817889022003 0.9255385169108447
Ni 4.582244341768185 2.0611735342156248 0.3650886305908255 -0.8152106804878542 1.3997841514369829 1.7168268822551467
Ni 2.8918389894800733 5.3370842421469815 10.199485411886316 0.5580646260253227 -0.34417686803079434 -0.08899565060411771
Ni 7.653078042040737 7.295217512851165 0.6608699788626622 -0.6884974607283045 1.5401129050974378 0.36868693735701663
Ni 3.6292692098820885 5.32975578880932 12.669481687107206 0.2739343296644637 2.623418168639527 0.8846464066821732
Ni 7.875352977883902 0.17292848226963328 4.153738811327511 0.2595443794913788 -0.3814156977775947 1.2222651618794758
Ni 0.20359934841170016 6.303372117156518 1.5563112280883145 2.1792999496263885 -0.6665363830761811 1.2495715630039124
Ni 8.516141521545425 5.638683240750562 8.978925984539007 1.1049696358894001 2.314862392246452 -1.9657366648508148
Ni 8.532943565943958 2.978325786784082 4.492036236877388 0.4646734174566707 -0.9883338549705107 -1.0841992361112682
Ni 8.358625807784057 0.020547289144463243 1.975754702473385 -0.28293576183212565 0.5687727564714462 -1.5096473895187292
Ni 3.603011987622025 1.8915419352879719 5.040245055573012 0.9802299949164537 0.2334795640835269 0.9690348975315828
Ni 3.8603640682095244 2.9006957383630256 2.7717775644979437 -0.2687712974062855 -0.3550078972080273 -0.7250878582578286
Ni 1.6875881327889601 3.349020315914232 10.855923333667635 0.9139474696391356 0.8939360595142153 -0.41117287443536926
Ni 8.727414570782427 7.565182634987152 12.130571534078715 0.7724295807665859 -0.49848753779263827 -1.1340444417681694
Ni 4.026313027269006 3.3934237461247108 11.901931155223416 -0.1639870165093434 -2.4389366317212575 -1.5200148487959821
Ni 0.9968353727160199 7.026458455272005 9.97566929125832 -1.0481410569361305 -0.26751042841599093 -1.9667710196526
P 0.8651220751909957 -0.010695306837137267 11.434261670444705 1.0604281018335995 -0.1967251301723128 -0.9103101299968644
Ni 4.090713191963656 6.671866268965434 6.221821898595792 0.9710311020260051 -0.6973387131690184 0.4035606093057501
P 5.421490347925473 1.1935712010734154 12.24413678233339 0.8246761967761281 -0.5059841032799997 -2.4989150691574187
Ni 2.920710886046538 7.071313008866334 0.6409901681943051 -0.983481669084532 -0.43310387018050567 0.5090766261623942
P 2.5640656280134633 2.0439571928319227 7.123918598723197 -0.2237541092656469 -1.1997168442653146 -1.0993013818600292
P 0.5509256862583671 2.2526155677625233 0.44711943365434714 -0.8209354987867733 -0.9063907403378002 1.253111972057003
P 6.313913673779159 8.067522332804765 2.482082699268228 -0.12764524465551566 -0.5709767061013005 -0.7820478205826403
Ni 8.806084964966242 7.644561937345591 5.529621861054661 1.15296004772575 -0.1389997504363864 1.1860905117311316
Ni 2.36244109523107 3.3849997074262683 0.5794145882785424 1.3166223339058227 -0.41835010891009894 -1.3051086768392683
Ni 1.17199093144593 8.75257620768171 3.0317599706112848 0.19002354978242111 0.9043217736239135 0.5271777066384792
Ni 2.1252238481227983 8.793481130017424 7.375237594546665 1.4005341422291298 -0.02982273978838735 -2.2285864545663423
Ni 5.604388656978214 4.441797663795792 13.773525151005469 0.08893060169413716 -0.3724080949623457 -0.5553685672503984
Ni 5.277370236684578 0.16462689134680752 6.324271098408391 -0.053310795607998514 -0.08922730699894955 0.37611948237566195
Ni 5.440575629042272 4.686343364241725 5.542921714938562 -0.6780101880437355 0.37655014215517735 -0.2611924566177631
Ni 3.7752030212580565 8.93030961431934 12.89071075322781 0.6768359652299762 0.08979089281190343 -0.3021665850372796
Ni 4.949734974213025 2.8113088621628317 7.209120154713214 0.33822296444020455 -0.15137678394450058 -0.28820395220960043
Ni 7.169252816160356 2.718828568473373 0.3708648512240526 0.5069732066661462 -1.0485786586941812 0.08151476884604027
Ni 4.067586213591538 5.250118701660109 1.7716250539206682 -0.41539102628177493 -0.26173110273005246 0.006765857968923832
Ni 6.060557257448625 2.108467836722618 5.016758099153781 0.10865944758163223 0.6409659908062445 0.5400118822886699
Ni 5.447747570185536 6.985268128346505 0.513895821723935 -2.085383464681886 0.4013846847003538 0.14780603587410673
Ni 5.352671015389017 0.18063256487384818 3.8476589606643326 0.2795182515101444 0.24048864841150844 0.2830782009472609
Ni 7.581653241797549 2.123262842392997 8.028104276315823 -0.7338254952411426 -1.4758073010408326 0.3266972231887922
Ni 1.4003053966728967 5.295976774618516 13.173438984486912 -0.7614157461545854 0.36535041678461594 -0.412102071117858
Ni 4.653346911022907 6.58291210294975 3.5706977434387865 0.608311437996017 0.9324385864647877 0.3320032087827379
Ni 2.118088733378216 7.300520514261332 11.763059726454632 -0.3247532120885439 0.5929791785143206 2.5818645135674565
Ni 3.593915867147641 1.2562957646280475 10.646983236787118 -0.3169511995456219 -0.48424465472037886 1.798409785334961
Ni 1.821719083387439 6.456312150881682 5.551734272143097 0.31486397799929 0.46529999529707605 -0.08483689124073776
Ni 4.140327557587597 0.8368209878040973 8.411960560334817 0.10830617800727153 -0.5621002295472771 -1.8134713076537736
Ni 7.6265538283902305 5.106458920402737 4.429096238890468 -0.8532293258234724 -0.07759923584171796 0.1217263080679194
Ni 3.438333539317063 4.723013250729043 4.335581123398053 2.0064074030972994 1.947252232893382 -0.12214899742763481
Ni 6.374750884401353 8.204332403907339 12.001051248595187 -0.46678326471082193 1.5696955038505611 -0.2637669022131586
Ni 2.7383925927730344 4.233222148262225 6.768386418590278 -0.2400651877208446 0.19171816387602467 -1.1235263158456652
P 7.927922662002051 1.3602014485085083 5.848018300756939 0.4558517053999826 0.10102121431008408 1.7441291696145254
Ni 8.528082481317972 8.890481864145064 9.797654162670776 0.23783244173558393 -1.8733695266713026 0.4846043520526428
P 5.78718569343458 3.620421667598806 3.4343332717602615 0.678724954722573 1.3391017459552614 -0.0801687963411071
Ni 5.2934909927075 2.2324439078846137 9.738904088193868 2.920901232158208 0.9344805565954809 -0.22543792472597304
P 3.041685605715974 0.7984027680393645 3.250065020676561 -1.4231950741617552 0.9416385077965009 1.3475779017470726
P 6.389923360658219 5.858150163694245 7.35148088475709 0.08380073666673955 0.41796521476685444 -0.3576687318696421
P 8.38208422374431 5.37312807985671 13.403305682418315 1.2764527036654727 -1.6923430381811693 1.144006438076888
Ni 6.821823364397381 5.9015408679409775 12.209465648634522 -1.306119634602286 0.4154136519895943 -0.651899864109929
