# total energy = -340869.6828105934 ev
CRYSTAL
PRIMVEC
9.22132105026442 0.00000000000000 0.00000000000000
0.00000000000000 9.22132105026442 0.00000000000000
0.00000000000000 0.00000000000000 13.49633546247849
PRIMCOORD
 96 1
Ni 3.579052819329934 7.835725180088575 0.004794164710532693 0.9587455997904328 0.7061763660653064 0.8449717138003705
Ni 5.04639549977524 8.923094113539824 3.435977571399155 -1.49023427509944 0.022052866034981373 0.5230839961850797
Ni 1.7837907480955282 6.221634399617461 0.22506754441120327 -0.39480214638682976 0.10525196456198002 -1.0320297531965645
Ni 0.20546209414949226 8.071228493307068 10.005697468375178 -1.0685232201369081 0.15952229586977043 -1.191116247080497
Ni 7.733257862790173 3.8557108875072794 7.175866824751342 -0.6631486975508708 -0.06986072954687969 0.1355452162288827
Ni 1.3405218547789162 1.1973977338476256 9.652835326815701 -0.9671621059889022 2.7710133740544087 0.23034821754339682
Ni 2.2514592563843836 2.4350557545315388 1.4422044376728824 0.21239883215382774 1.744122484746306 1.464475163857465
Ni 0.9255439738337494 2.5546655072922992 7.474917948483712 -2.0166064551174885 1.3685570751019012 1.5118510820382671
Ni 3.145346435736004 4.426676631971144 7.690374110171723 1.0063053518472669 0.40581212434408814 -0.5699989155690636
Ni 6.068993875567744 2.926681254391781 0.9552467704275115 1.1741749912404682 -0.8244458259328769 -2.5729679824087754
Ni 3.816031543884617 3.471891849718277 13.327293775936196 -0.015842880569527554 -0.637377759234354 -0.7521332924113949
Ni 4.4526623141297925 0.9933483460525355 0.5765778403338978 -0.3513139932962078 0.19359609762502789 1.7657020106892944
Ni 0.5612234189845844 7.917389197546696 5.493089191655983 -1.7779980544478282 -0.13875292453290297 -1.1012783030807423
Ni 7.0097253648434 2.933800114088898 3.164350655878218 0.9651548457508862 1.0331846927366142 1.3373593093428582
Ni 5.086240827173224 6.424568007589557 4.228307577820385 -0.9619245117390466 0.1124741933420321 0.09632946526136958
Ni 3.605305919793267 7.365686792340964 11.149065639091523 -0.2813563331601477 1.1945694957364201 -0.8164185847530261
Ni 5.648225005128031 7.715257844488653 1.5299711252703203 0.12205566638288011 0.06502011362512673 -0.8717911479860598
Ni 7.697313154112241 8.509702299781061 6.611342172902032 -0.36683214353646504 -0.2518508675018631 -1.604737840166675
Ni 8.49710597549834 0.7374032087711289 4.622778163324595 0.5532597484375117 0.052341489716193734 0.08955795086549093
Ni 6.958666911290372 0.6769058111948243 2.8286567694794815 0.9209071887864205 -0.4350453101775927 -1.4361565194184298
Ni 4.038975418103792 7.931147408256669 7.069690692206591 1.4962015484264684 -1.328969542617266 -0.6267958699534496
Ni 4.856436290240766 4.049718256895425 2.5236661929868607 -0.35009940416281643 2.900913733292688 0.5190391366917447
Ni 2.853915811555056 1.4952002907367454 7.451002452856156 2.0209199948911776 -0.5679194073322155 1.4675054660433566
Ni 7.7038787345582875 9.337417280704557 8.601632413742811 1.5210013810789675 1.922183719960528 0.1474262839371848
P 6.055503083162456 4.286051488990526 12.443958554034591 -1.2230233802017387 0.4085104971118578 -0.07453319532188453
P 4.252827069963695 6.768062209296314 9.12823253932744 -0.4544239718145206 -0.9758439500336162 0.126182286956744
P 6.098695750029421 7.907900458390824 12.432135898571284 -0.6361636843215948 1.7613226506746762 2.0018894606222877
P 3.1919878766013134 4.98872535917191 1.2691940158628912 -0.1704530838496613 -0.687092609960978 0.5792769984368799
P 8.94953164042018 6.321602738965191 0.7831925995897885 2.4623938343029335 -0.6331439236586643 1.5673432015683006
P 5.832596094226686 8.413505480661467 5.400801290445208 -0.7251379947694737 0.42462771438869457 1.0660647312940865
P 3.5319042058178094 5.579203418556889 5.853630849220331 0.2984919643991698 0.5896179753515717 -0.9854462490100706
P 8.971533711971116 7.286346547737341 8.029563799305144 -0.9588412448280326 -0.010472360286233577 -0.2810657985029224
Ni -0.09708114378922318 5.591670644347695 3.8388838212180314 -2.0242889113634104 -0.20280038983211524 1.5168081689332265
Ni 5.696636939596769 8.272078082766795 8.688656785011728 -0.6466722971624025 -2.3273237579382564 0.8723058828389493
Ni 1.7421011565273068 9.026557333490155 11.35921769702593 1.0156777942011024 1.47924897973253 2.9487447367330377
Ni 5.677797781097792 5.246193858657933 8.345525903346509 -0.4786275656439177 0.3284746268041891 0.04652539725504891
Ni 2.9126648466979748 5.259297355587471 3.6866453467574263 -0.39020655659634734 -1.4095206619984564 -0.9852171637184002
Ni 2.7891360325754593 8.484362110081998 9.23597445215272 0.3545204160486475 0.6334357438674703 -1.1064022545708687
Ni 8.686705553519618 5.4518108709977255 11.038989809958807 0.7746409865956079 -0.43668207445006724 0.7478557480819635
Ni 0.24512576152670762 4.993907741490277 8.52670088263814 0.1657356237693339 -0.13909462414303786 -0.05396642691412641
Ni 2.000565558665258 4.755711802583238 11.648713688092299 0.4510414284955329 0.9541605515229116 0.03199249374619652
Ni 9.161059519425585 0.7916835918295625 13.38956535564427 -0.10191750087210834 1.5529964459283254 -1.5159563624558925
Ni 6.850740572048067 0.6489652090157243 13.684474262050287 -1.2764966695295306 0.3272806064960879 -0.957886337113931
Ni 7.683121541322262 4.685703534681018 1.6674591748973646 -0.806458902437153 0.6352419438382737 -0.02490627632337646
Ni 7.242111871614192 6.222261449435341 13.294051836399749 -2.185838522075855 -0.8801253788833682 -1.6238480786335647
Ni 0.8014222287805023 2.965263260833152 11.533752403172622 0.3654468331531642 -2.5246386991757683 -1.1326010244534237
Ni 3.03929202462649 1.1224376166483176 3.4037619648734445 -1.7045825176701543 -1.2532150732937706 -3.526857025437855
Ni 0.7452136675320852 4.393525983511123 2.0301724535221672 1.6685292235910232 -0.8546881697571862 -0.7944605924246962
Ni 8.092354539377139 8.268085250838231 1.1819289681197576 0.7385002750089926 -0.9442985711271673 1.9341977137022688
Ni 7.070835058124224 8.723028336352447 10.634977001637786 0.23590334303367114 0.4791322731944781 2.9138576950478656
Ni 8.843882967428117 3.2653527052933664 5.001309695737526 -0.9814150163634904 -0.985332863360658 -0.781013465780855
Ni 6.514217688904808 6.411298526884698 6.264270098705014 0.6158128885793845 -0.12080405336396614 0.141816136839259
Ni 7.389809767687671 6.743155421677256 9.569468131396365 0.9539312091209248 -0.2463913870491886 -2.016983635951249
Ni 2.1866979200464898 6.084780776864979 9.69966764902263 -0.030627237967553705 -0.7775537893670287 -1.3928552855276333
Ni 1.593176824780619 6.621941159088387 7.143462181148182 1.236546354388838 -0.9134188508291752 0.22076417339938753
Ni 0.4641883817996172 1.0143268509889884 2.256506085286239 -1.9303940236854626 0.6411626801980828 2.085030195107525
P 5.079822787860797 2.0162418041122776 2.6394380320093567 -0.6657203149327889 -2.974624689823593 0.44256938646877975
P 8.425465533805458 2.57764503885346 1.3092698762821546 -0.23640702214296702 -0.01175842608750878 -0.23324122282047574
P 9.1805902769884 8.310918286191999 3.344648687556903 -0.033563951998374454 0.6237881934753773 -0.16056127865724606
P 1.6454156074025996 3.3725413388675767 3.7644382537222194 -0.5237936206575947 -0.9929268736578319 0.030149527000186787
P 2.3174839136788905 8.708375657519909 6.355748367945056 -0.7170567604232361 1.8118466275661569 -0.4913337003566764
P 8.878592019111991 5.4271622803624995 5.947740883431302 -0.4983839223352384 -0.1292357290710871 1.3153254694712702
P 8.801640096608825 1.092791070111748 11.062433173958782 0.05560421962786553 -0.8143660730993717 0.18749409849234808
P 1.2569951305088543 7.019121890790761 11.466958687719128 1.121622671065049 -2.7971208697747376 1.4325009249437137
Ni 3.5461142612494903 1.8600787354974073 10.028236220799652 0.9693835391202531 -0.05622591237226445 -0.12028726162854766
Ni 3.926567516927809 5.78387985616986 12.525489784472455 0.01901330787770919 -2.29819033090741 1.0720397179305987
Ni 9.145152740957284 4.160595418810112 13.191965359652501 -0.47768191390119674 0.7194805393733802 0.9637224841797338
Ni 1.549845838100886 1.5102679290075869 5.497786532497578 -0.6628743608435615 -0.08079820239498987 -1.8224092335733517
Ni 8.604045633409568 7.773979215669019 12.340900150069627 0.7971628218472078 1.0224379957430714 -0.11629048176432877
Ni 0.8567566088122267 0.02843302071255338 7.916545446688812 -0.76246475624439 -1.0164735506295204 -2.3929979602076146
Ni 1.2344951076319555 6.7714279914069975 2.5807830543391197 1.5147389451090236 1.847920233360263 -1.750605264257172
Ni 3.8099085868394282 3.058435486713557 4.211166986622198 -0.4367103565848414 -0.14887844300267908 2.1987097216115683
Ni 4.617198342077541 4.011348340833632 10.545631623910625 -0.17103852403948608 0.5854304196327853 0.265737138565652
Ni 5.556731059642543 2.133297250997259 12.00860708680081 -0.9220754980629087 -0.5066225081949469 -0.42967504700461484
Ni 6.423396899841457 1.6724801841008365 5.331808289968703 -0.25436412084202 0.39708220067025807 -0.15459349110958537
Ni 5.394048517185882 5.38052083949719 0.7678824405805609 -0.21647351644383364 -0.07719248732160253 0.29033925338504835
Ni 5.76936549715009 4.16865485323405 5.453301958579361 0.08525495261476285 0.4315115859927214 -0.10009973093707922
Ni 7.582055864793242 3.0532807683577423 11.605322762827033 1.3595800684142716 0.9012858150110671 0.41179122474565855
Ni 5.542926742328315 0.7812155483992937 7.387529335041173 -0.3283928657236602 0.15077514580475967 -1.7546223558363654
Ni 5.49958653432773 2.764994614587049 8.42646420285364 -0.24369172872983835 1.1038722890601635 0.5780644661860173
Ni 3.9179179179693944 0.8443585429278043 5.32099721340277 1.6535852006866811 -1.0590584751795826 2.764954826565154
Ni 7.944711971228767 2.3559091576657916 9.413869407617588 -0.08407713025657777 0.5155324090900669 -0.8862582312539834
Ni 1.5107289950501461 4.1661282113208244 5.851862199881074 1.4240615359271087 1.429354666005248 -0.16768914795127893
Ni 7.197259366994014 7.5864636561601095 3.8704659230012655 0.5209628360770189 -0.3221623114329162 -0.19470475730817435
Ni 4.014216171618352 0.38166770363442004 11.918033429136269 -0.199844649637901 -0.0633884915589747 -0.6134045362482081
Ni 5.808076602083378 6.270175432578116 11.184764138502729 -0.14855859776941513 -1.1540591943271994 -0.8389807863242583
Ni 2.664454553346545 7.270624195686065 4.601575580291458 0.751653524561499 1.92831348700735 0.17526027543031752
Ni 1.9133134207713163 9.399476770033052 0.890839532810303 2.360751184358766 -2.8064164361440507 -0.2023447903519354
P 3.3974204625240825 7.911044928801079 2.2629444115045385 -0.0008476927122759594 0.4428540075887341 0.31958580895499156
P 8.248794247617544 1.663821363821571 6.694047277484253 0.08560822218912353 -0.136247641612546 0.3795830154442301
P 5.770352178481167 0.9012033753149533 9.77306106380932 -1.433069395852674 2.5692715073937946 -0.029220073207381937
P 6.6877721686450196 5.2335975343752095 3.5113277504704685 0.5511200763866896 -0.263495650829643 0.3538491010132358
P 4.244490995914221 2.8542016725014427 6.390676887065186 1.0077603391262384 -0.9138322842175101 0.5660286180674058
P 2.2301303412555855 1.7261943780590072 13.008901853850544 0.7687385050682438 0.2651781807383885 -2.381122291815951
P 7.403586421039346 4.585089702873704 9.454155514152257 0.5424467169824078 -1.5191617567670677 -0.3679901684003082
P 2.2395729738072023 3.6061727239532786 9.33050221219825 -1.428843016476152 -0.9990404427547376 2.356299319235
