# total energy = -340866.546204172 ev
CRYSTAL
PRIMVEC
9.29490772374205 0.00000000000000 0.00000000000000
0.00000000000000 9.29490772374205 0.00000000000000
0.00000000000000 0.00000000000000 13.60403699736928
PRIMCOORD
 96 1
Ni 1.608781215328362 3.4901077143711374 10.956936657700265 0.006378649832834177 -0.8058390094649669 1.1480332998480938
Ni 1.6440739798827453 6.169485694023555 1.9057219138042811 -0.5281575540532452 -1.6067625839061876 1.689551591478961
Ni 1.7384544727152997 2.4119541900832395 1.4266549347827997 0.3751067248404314 0.6136675601016077 -0.3463041987864423
Ni 1.3839281030462736 6.971552574761584 7.548621342657333 0.1542276231297344 -1.0623669707275254 0.33067986198562405
Ni 8.372890039938582 8.89004011480737 6.614323245932059 0.4917584465989208 1.5743805680310565 -0.7504245372504044
Ni 5.1470737312401695 5.885479789109363 9.436194949168375 0.2949605542071436 0.48927296117290575 -4.096810689591281
Ni 2.726391622822306 6.990281813786362 0.21722942898277162 1.4771851552249657 1.4993269814293273 -1.7890638253436866
Ni 9.258378717325437 5.224769864742959 8.1662586647206 -1.3179911892288916 -1.048424135394188 0.4055143905980113
Ni 8.822772867749146 2.256654872154707 10.955426235198265 0.3502976362165516 -1.0965071069443437 -0.5775402182514311
Ni 0.26868510854469185 1.7206733142763913 3.4073347022800933 -0.3876794192991194 1.6569286632376172 1.3840361445741067
Ni 3.0610268900034785 2.260056808374592 9.235644302570746 0.20375015533989427 1.3454515994326892 -1.0126886296657915
Ni 0.253004599247024 6.021036723073315 13.471751084914967 -0.8064488751348239 0.02032354204870048 -0.2568359794212802
Ni 4.639162794629759 7.0835190329712505 11.294194018344903 -1.1285980739416175 0.24019811375428313 -1.371397886984806
Ni 1.736874338405517 0.15687759325677436 2.342383664895815 0.5042187838494606 -0.9006579516190812 0.46677246607754447
Ni 7.495329918823754 3.5777958736563766 3.708079806479507 0.1558520461070348 -2.6453177969260957 -0.0032498743958653707
Ni 6.393874060920412 8.086857845144786 9.926756940548142 -0.042538901803475124 -0.47169150064571663 -1.0436585956847446
Ni 3.3922602209647654 3.1778267002195393 3.5601764466115284 -1.0632668568339754 -0.5749614017806615 -1.3250717502247567
Ni 3.4961772891022447 0.5386873055111262 0.8043032355317576 0.5364886996267599 0.49501449164237327 -1.4169146404696824
Ni 5.994778608807808 4.897719242248743 1.9763539174515707 0.1140497653592681 0.38967356691101274 0.24151786100697115
Ni 0.17216585744930793 7.24323343205947 9.758216097103627 -1.6127036319809709 -0.6243551217224408 0.3772219714112213
Ni 8.811851351196236 3.499904547091791 1.512605875818048 0.36720572482579983 0.9583967010914463 -0.6696322483926854
Ni 8.671972285149641 5.788794159166066 5.7654044534182 1.2575003309326858 1.9105638763334127 -0.135441857881799
Ni 4.35027706317065 0.4883470148737585 10.057913665204733 0.7096779514606616 -0.3565790983498891 0.1374177506612472
Ni 5.4124247563912204 2.165629841003515 0.11723667087817698 -0.3430849205181963 2.2079060433988555 -1.0250561500922089
P 0.5647994897256717 2.9218914165732537 12.976999878632736 0.35757154417014547 -0.3631377254040133 0.5457166459829311
P 3.339307131771634 2.1475140658872407 12.716047203807506 -1.5245919266437034 -0.7355471059179397 1.1940637597445953
P 0.8149942383735937 4.386471433772381 3.2539361929771524 0.40862953918822525 -0.07282855392595199 -2.518451339418134
P 6.340474816157459 7.1331259553907245 2.93716573840423 0.4442076934031511 -0.6368532541894516 0.024083523311764974
P 2.54169251182411 9.150706506475299 9.123724318899603 -0.04931607262630861 1.7231104012710132 -2.098744202259508
P 0.4339699458202811 3.20824893313671 8.961972476042533 0.40935381894875955 -0.3091419879138483 -0.10224685918706906
P 6.614414336027565 9.211523087586526 8.051712869622907 0.1934814264240345 -0.15932714913982884 -0.6478395779976263
P 0.443265783015656 7.908070295446718 4.907357132047648 -0.18646334323498853 1.6456219799755465 1.593984458304913
Ni 1.2257659535447227 0.7787264380009974 13.176407251582699 1.640922517617348 0.4702293142778934 1.237330283742714
Ni 5.953341910260681 0.18567228783486878 12.106695362472124 0.1263373244773695 0.10989229154746881 -0.6074593744083667
Ni 1.9967971374570779 4.4352604043138495 6.90589892368088 -0.48120689633531954 0.8367603816341718 -0.03415196329136054
Ni 8.360472043245231 0.8205916317933066 12.817383076075414 -2.135914640662218 -0.7707233967087564 -0.4908873568478771
Ni 5.4382738947177245 2.6414919358484488 4.995606703758245 -1.005775704596042 1.2037761019363526 0.4417278644040909
Ni 6.185612358891043 0.5896438485293092 5.4598036894339 0.8480878908318491 -0.33513738353634537 3.117118055235535
Ni 1.8050431915110867 8.953793886753251 6.669365830377186 0.925007326997723 1.2470775929374653 -1.27073277046256
Ni 3.6750391980619495 4.755516449275999 5.046172860652835 -0.7399524340744869 -0.4750545035806786 2.2360200280262523
Ni 5.8853589553092025 9.186938056707847 3.4565270718159424 -1.189663059573738 -0.25278134973593236 -2.2664963422382387
Ni 8.12697466679786 5.688483515217974 3.3539800730741227 0.06741869576429034 0.9103522960887096 -0.41246613932549603
Ni 1.029978017654933 2.1919158399921366 6.9989502447116765 -0.020510461248525964 -0.5235339392383047 -0.27157739939651293
Ni 4.289748624198266 3.9227763731127743 7.358273716247049 -0.3618732568692929 -1.005470000430165 0.8988877470925358
Ni 8.871747736444707 0.5107802746188216 1.5949234374315668 -1.1811064282529788 0.0015290350500167214 -0.8417804605565825
Ni 0.29079025804778236 3.9263642074867513 5.1262326891849055 0.2066102504965087 -2.6843990791982733 1.3588509035577307
Ni 6.160785660412044 5.390042618638532 11.234472377361278 0.22641391548599718 -2.0666282955615696 3.479154062934937
Ni 2.3542421081453497 1.1324171954673794 4.659940631312632 -0.48460126672884923 -0.08333073900885649 -0.028591181374131407
Ni 4.7945643565430425 2.928407146874181 11.468257895947492 0.34102058178999983 0.3682956154558689 -1.9972640460351345
Ni 6.375572387650046 2.938575775903019 7.219227473930788 -0.4900147244349367 0.9753952925319717 -0.7065152374619639
Ni 4.451563672427726 7.8301139045282 1.7629195992845892 1.0148601833958135 -0.44538988663671036 -0.3696642136686214
Ni 3.174610662153746 9.10799640557264 12.043858068425914 2.005440925418972 -0.4549111958635843 0.5549911293063216
Ni 1.920244277601955 5.202034520497496 9.559189815369553 -0.8575644628637167 -0.4780732358023444 -3.5370751036214374
Ni 4.527084797527638 1.0477127015553185 7.424512017022373 -0.00546462265899704 1.2589725446028381 0.15217382592449924
Ni 2.468467228927235 7.356724255132692 10.044826435156649 1.8873097909014787 -0.4736295982086939 0.6717336110064045
Ni 8.136613486087535 9.10282843688888 4.3091601094485625 -0.11558317128465899 1.1878283203578446 -0.986209095318024
P 3.8394568204486994 4.8969198801861475 1.4106974372355345 -0.5276767577620848 0.531190170231982 -0.13417533246454957
P 8.39702891524744 1.8216160119483964 5.570009692124315 0.07202688396026305 0.008528863406617569 -0.41335702657088164
P 6.811633687703863 2.3352619066125473 11.93022317428327 0.5676617827954547 0.4833362839734966 1.0470362539077258
P 6.981572485267147 4.915453926149129 6.425145848401784 -0.8068173142178362 -0.9515290274373354 0.27698391512406495
P 3.141762458325674 2.619295696249853 5.925551065714684 0.10451765749911679 1.1274493050491552 0.7073225638546076
P 1.0106910841678785 5.691541539852789 11.373913653254986 1.4786913074568468 1.7227383626435748 1.429412515826377
P 7.3081490674684275 1.988431720522934 1.8682968974224612 0.8884256712189474 -0.5317239312482649 -0.33372559079048325
P 3.414149728609109 5.946026817897157 7.985638159223185 -0.9069394137524187 -0.05214094366961343 0.1734183371255723
Ni 7.603550529228465 7.46193331544111 11.757669719182681 0.9120921615979517 -0.20899906244365943 0.8098288473506504
Ni 7.862729735663657 7.0387082829273515 7.55418527440931 -1.6220616761571034 -1.2437534136602384 2.6656621649104024
Ni 5.845976431364793 6.05818846916862 13.508305168444865 -1.5603261468205192 0.7666772516638408 -0.06638845472756308
Ni 5.497259379011146 2.501092354970397 2.5963716653779865 -1.0486187679034973 -0.024311323051854905 0.49309567735310567
Ni 2.4082176371859885 4.720418877783413 13.19217513301279 0.09738233200591616 -1.2480924073552249 0.03564037491142894
Ni 3.6963059468900847 4.943078391847213 10.755664726264756 -0.04046993508958836 -0.7657300572592232 2.2226891152453008
Ni 9.237372225913031 7.694687099272112 2.6868241302145752 0.12131750266527494 -0.17052224652469988 0.48960489059102774
Ni 7.6131428739796165 7.631546791234734 0.7257779962617176 0.38208161349636777 -0.21339821995261962 0.4219247136352346
Ni 7.25100397490052 3.6935174745787034 9.763535572782972 -0.3864146936540829 -0.575522416490454 -1.3730505920968805
Ni 4.6047251615841995 8.024451834816071 8.17814871065633 -0.6273604842076679 -0.05163597900873688 -0.22837772408058732
Ni 0.4394660247460137 0.017088687814915435 8.57190330880187 -0.03979090674469276 0.6211754384428786 0.8175809804922436
Ni 1.8033422234011438 1.0732736977429809 10.773104761590906 -1.4636909773932727 -0.15585950230620255 0.10966089226295307
Ni 3.705981945810578 6.144909958052581 3.3126372530948123 0.5134680703618705 -0.5299784093120679 -0.9190110002049721
Ni 1.1768840339262077 8.056100995550251 11.95773052414428 -2.0452513725476904 -1.2140422597490512 0.23916607294534295
Ni 3.442043746630628 8.379294231347055 3.9856424813728673 -0.13285198566743572 1.011804170178309 -0.765003977726476
Ni 8.007544397701396 1.7259528218526066 7.859473729494735 1.8950174439583816 -1.0469418944217066 1.0192454569477025
Ni 6.632000301404675 1.1784455784205812 10.048241384247321 1.3034333460193746 0.27038774996378595 -0.992205165000459
Ni 3.3271958670325343 6.95777752154336 5.809685393722936 -0.34004124859586593 -0.5285684163384188 1.273418287714523
Ni 5.834060359687491 4.993354547621419 4.507207637401341 0.6280436263176216 1.1745539718464417 -0.1629673169955774
Ni 6.085803639959 0.30417399565164244 0.8772171390205279 1.0623129775611382 -2.213144923200292 1.586192730174636
Ni 1.4077416565854703 6.243082773228613 4.462885799502705 1.485249420290339 -1.921699067014626 -0.8259370657664227
Ni 8.544706408858197 4.573131770296249 11.446831274706838 -0.1813465908337135 0.3306490087476886 2.162164575497683
Ni 6.705606675517439 7.220581741983349 5.362548281648311 -0.1761863867890127 0.6886306438720592 -1.1260740219681833
Ni 5.3019640732296995 6.0335383739360084 6.955852546157737 0.523580219095208 0.7465097755770305 -0.7201562252841661
P 0.7906322852798253 8.06617667550204 0.6822713217687751 -0.2375128536126361 0.11263540151024472 -0.4476915381866935
P 8.551064125728146 9.252346322225149 10.64854649191381 0.5658440128604255 -0.6261152989466572 0.16318020433733188
P 7.542269202732006 4.888210551666933 0.14458135985435305 1.2255584879187669 0.23610054664614175 0.04390981400907277
P 5.388453189421045 2.7618981702538954 9.191051053367135 -2.329300422048653 0.27022551335430883 -0.7843304459692299
P 3.789654704967428 1.111512948039724 2.79898949944912 -0.09553602282579675 -0.6826710838545146 0.8026012192539597
P 4.844905576671181 7.959526904499409 13.014927749521375 -0.5120737611175052 1.2763411177882729 4.444137416104965
P 4.291737734447051 8.829465201296461 5.94813397347379 0.12182915219437082 0.03873264068350749 -0.5916584028203681
P 7.604610148706789 5.867884528824546 9.911887876693084 1.0904740133763866 1.7181278604547572 -2.2281064296061306
