# total energy = -381179.3753028009 ev
CRYSTAL
PRIMVEC
9.09662228027227 0.00000000000000 0.00000000000000
0.00000000000000 9.09662228027227 0.00000000000000
0.00000000000000 0.00000000000000 13.31382620784980
PRIMCOORD
 96 1
Ni 4.380915134728522 3.2938323763686506 9.790854745274439 -0.9019980105867433 0.8330528508755976 -0.6517746513859743
Ni 0.6699225729344991 4.9434593580158825 6.325851225981219 1.248109119525773 0.39408635126672775 -0.29633455173653483
Ni 2.5042819421187223 8.204607570249548 8.74003476228548 -0.830216666978383 0.7637443942877622 -0.1727763326661992
Ni 7.902354099135415 4.660545306036448 11.079646007817196 1.1746246771833768 -0.002768563884072651 0.7256290754732794
Ni 2.476555437169257 8.064756098106152 2.206886977006396 -0.4582767699017075 -0.988889984584297 0.5359153436217933
Ni 2.7400209105456876 3.464721524000098 7.281531455044497 -0.41204293574514844 0.58613541611961 -0.9967375056531739
Ni 2.5198553595968995 0.8945036243762235 3.978637023482062 -0.17403514477396476 -1.2929926103020246 -2.0444124215861628
Ni 5.3057960198095495 5.22729216885355 8.484408758057821 0.9885742531160908 0.02137743723451157 -0.7816202461269184
Ni 8.612718435752438 0.43018563898086387 11.642794246829178 -2.1407015205279 0.2548832265702836 0.5468890690244775
Ni 5.128994067644915 2.181934032214113 3.074881224504755 -1.6389414826315774 1.0302541493533803 1.0431394899564808
Ni 7.300994588243276 3.966554889665172 0.33751470836335024 0.38077600731106676 0.43502114180787665 -1.8815914003604628
Ni 5.657389570597534 3.6606172864957456 11.77090016018296 -0.1579230697034506 0.45490733920884235 0.756120302083601
Ni 6.795304254698092 7.351244330153001 7.3054028114383245 0.5810616011411284 0.6783922539735027 1.1527885551448922
Ni 1.7004952938773532 6.0404756279915075 4.345526544766282 -1.4257057563987512 -1.5945395594774345 -0.48481466829123604
Ni 1.4415235519461445 5.142684484294831 13.132824627841112 -1.740400041589396 0.7630381122493568 -1.629237625080252
Ni 3.454160345441591 8.943935552456827 12.755018250064158 0.20232190753379994 0.45358939172836715 0.039255860176829166
Ni 3.498379026727467 7.276934022104386 4.419976940799223 0.15220905003780882 0.38322009797618517 1.1772196916040627
Ni 4.1927060181260165 1.9247361316428606 11.983961249069566 -0.8787099865930802 0.4651092194425087 1.2300468627074237
Ni 3.9537286521393367 2.008079385693714 5.2555926706738525 1.7845821354232492 1.7084533134794706 0.672578732615519
Ni 6.017397497067362 1.686295466375347 10.373667152839326 -0.020851389527712476 -0.2600735125219714 -0.7150638983629233
Ni 5.891245538196239 5.694922234449731 10.732541640163253 -0.28240585747058455 0.32849082475410524 0.08083419783924788
Ni 9.004337124918917 1.1670147790261933 5.375789980548939 0.36270423741102054 -0.4321605324306299 1.194661284119278
Ni 3.2257077715239832 0.03282152313260017 6.0955220188710015 -0.06601590187949277 1.0484549886321233 0.3196493152030753
Ni 8.119817953243656 6.178516872285514 4.379623414353579 -0.8241997713603417 -0.10186170793350843 0.5908778159006017
P 7.466644081396083 4.951455289069222 9.046558187934812 -0.0445783008310071 -0.4240430455298181 -1.5050829100764982
Ni 2.4049104394717546 5.517410745741114 1.948012568934426 -1.2324675563337744 -1.2870510480066093 1.4319622788314244
P 6.486128253968951 2.4757185479122525 5.866498177069264 -0.7145918438225113 -1.0457743564761666 -0.8406797712932361
Ni 6.958006442206666 6.175769692333171 1.6858897570181468 -0.07933190226210854 0.1161747821220709 0.8706418648729651
P 3.05863920528321 5.576284085646934 6.317410470094536 0.7704169212119313 -0.7124467724550505 -0.18151114143603578
P 7.4426108051242705 2.572925054437838 11.797515057880187 1.0718849375202895 -1.1634828016339445 0.39120697283640365
P 5.756133406301749 0.08965085199440917 8.713899256586561 -1.3886299345923763 -0.3420173984856303 -0.31306009202133184
Ni 8.265400297473064 8.832583798163387 2.5960632230695504 0.7858389121939563 -0.8837192668822135 0.702106823981623
Ni 4.333712761308976 6.531538592783823 2.4319965422071643 1.4496980055482904 -0.35434815213684134 -0.091819493206158
Ni 8.111822022190315 3.436631154156283 4.850453671695567 0.860978373641272 0.6094668917566988 0.10630560263747499
Ni 2.4490836376458374 7.584545403787822 11.160394905171334 -1.3753098204447023 -0.4729976210516499 -0.4473436679289715
Ni 7.719284574165604 0.2569586594032177 9.48291952383503 1.3782568188881683 0.04839407503267149 0.014190946788401366
Ni 1.5890525733603265 0.8005691729130797 11.192587851698944 1.1242945614702573 0.3170370743912088 0.03139676914372657
Ni 0.10863550285711714 2.0464034556911206 3.1626590819554976 0.5698796163823798 0.11285985881622498 -0.7038932264580845
Ni 4.2577468679910675 7.327120087657601 7.478043058873832 0.3383466345022625 -0.3127104219913969 -0.7895603269096014
Ni 7.533804444270723 1.2192657778548444 7.435226167093439 0.35409284159292564 -1.019383525187464 -0.9842026064109567
Ni 0.19535633278977343 8.699909561061043 7.6986670795895 -0.08147363119545968 0.7393340837641976 -0.18924836217929342
Ni 0.5037718558897234 3.0210974448086554 11.7900985816711 0.5738761391362827 -0.055884212762129556 0.4995941405932557
Ni 0.4566304298399814 3.695784828534667 1.1302544184122552 -0.19262961994670053 -0.508122489779241 1.5601885928013906
Ni 6.173122575226777 0.8346851454073299 12.728643503197203 0.38929921429072956 0.2345655980588541 0.06280228003820151
Ni 6.3714107494027745 3.082754351156252 7.894526455595713 0.322833883578644 1.0641834551109737 2.78502100118741
Ni 1.6579958742172807 2.6651102254213948 5.058122282847906 -0.34114708006553507 1.5628383717194116 0.4731760556110431
Ni 6.27230304880421 0.4992326413327079 1.8886725723016025 -0.7738151482602028 0.37628043343355844 -0.33848881650708157
Ni 7.115387105635373 3.2856454162457767 2.4292138854276226 0.7305992749943611 -0.033966329643115696 0.6894269145211094
Ni 4.287620175817198 6.997840551515626 9.79538122456015 -0.21358693892465797 0.9510816554872716 -0.3512664278877241
Ni 1.7658272356578846 2.1933321000296253 9.100639427182044 0.4815989895674157 -1.029283300799679 0.799390939846778
Ni 4.088931750257415 1.7096828824596892 7.968139052709412 -0.08723598760053362 -0.8200075876558651 0.6100677585654912
Ni 3.3729638942674027 4.03590753852827 0.295790320928243 -0.1504254757748248 -1.3133120385856671 0.16627349855067494
Ni 5.110218639096458 4.073058144241399 6.323162264411973 -2.04644616418674 0.5315344409452781 0.018685749334961366
Ni 2.9759963911539806 6.726642949134258 0.12055571679602106 0.21398340303212823 0.6551577089255942 0.8426214684006391
Ni 0.9362607596518223 8.495717678974216 0.1411168123135001 1.4628926498616934 -0.15980563143814414 -0.398525617985004
Ni 5.212446481164073 5.377586563464792 0.14122506211956923 0.5632510553222686 -0.16760430154695652 -0.2031868266372565
P 0.38309424435409506 4.259593482329893 3.353353395786413 1.0441100813998663 0.8678113374027054 -0.4604586080443747
Ni 3.542643191125137 4.278141495319382 4.402895303333965 0.008815798519417075 0.9944368825444551 -0.10995374091302354
P 6.03479023901729 7.3397734893586195 3.5163275723035134 1.1614788838300383 0.06249863275485365 0.5890032245857082
Ni 8.759674369958018 1.4178723338133987 0.6840841946225987 -1.0266389211982963 1.104735151281091 -0.526343383662642
P 0.6093090491714507 8.031162271735294 9.874838401539346 0.621126330372498 1.4608280540231808 0.5902751493195963
P 1.673387359248283 1.2413887634313205 7.106467867412619 0.34922471486734696 0.3537125754353715 -0.733700282517188
P 4.748163972595913 4.418347735734771 2.1464280958234463 -0.10670798028221623 -1.3750136293605224 0.69637429237322
Ni 5.476121176854754 6.440599659063415 5.567483103514845 -0.14779626568209386 0.22004246474201458 -0.8696039105267539
Ni 0.1800230661418671 6.500127955779065 2.5089639736467704 1.4064343097636487 -0.07758175234022123 -0.3788371384171411
Ni 2.95027114312344 5.367343766688841 8.690107950469491 -0.6791013642253853 0.22308973620877062 0.0255038006980593
Ni 6.055876209644867 8.332524273858269 10.827042811199346 -0.7306761509788836 -0.2141487249653989 0.8743154570698104
Ni 0.07951448570005581 2.859723364164458 7.085245447449659 -0.20644312879102508 -1.3593805508089556 -0.4979185526630457
Ni 7.801900098427757 7.098358228579796 9.647424661895108 -0.8081452890006403 -2.0096421079845133 0.17409942235299694
Ni 3.4064940442817493 5.261486372300086 11.446509148896578 1.1864000725517505 -1.1370374629582223 -0.4157280979062195
Ni 5.448594797597182 0.41648612570858873 6.562145088372067 1.0780851527937303 -0.5554814386791788 -0.5409747604225715
Ni 0.7471301552043763 6.422406414345918 8.367220610859007 -0.1952860837329411 -0.2934734281386559 0.29986801881109
Ni 7.070276955358339 6.730809202174566 12.487184578631057 -1.5447462901043914 -2.4517062726821 -0.8651026802222908
Ni 6.036636853356115 4.456062332034142 4.2538871711242505 -0.16666816288593234 0.2924228753869545 -1.4153398397833947
Ni 3.8331620193964855 0.7374986514509335 1.54223407740432 0.6091858701811701 0.3623769359785888 0.7453802899582777
Ni 0.08181411183234742 6.923039025859636 11.694092829296867 0.5108491446817848 0.5812750027035151 0.03314383374182034
Ni 7.350998721349315 5.158512607199054 6.395003749152424 -0.17465400930488628 -0.4750938414590463 1.5427248887989882
Ni 4.856732160447574 9.059799231440206 4.191631707025448 0.8661637744969535 0.7772604264963259 -0.6781706248809998
Ni 2.2040297279235133 1.8935983933088647 0.30715018292984797 -0.753470780275896 -0.035215371558868384 -0.5776268644279665
Ni 1.9330049613669629 7.46034921872383 6.387867448911986 -0.5182634348679849 -1.7128339590456696 0.08424605173427427
Ni 7.678868281025685 8.387285940457936 0.3243691793927229 0.07626560463195897 1.5418378582083445 1.167714837437421
Ni 8.343694926114813 2.4917922796201606 9.556904172803202 -0.5635421042001263 0.2737515242296963 0.6697556613444272
Ni 3.6892261638140087 0.45922842518563994 10.321757277349128 1.6190095195943408 -0.06510881668419109 -1.3955765411135386
Ni 0.797304395148525 8.38745877628275 4.2976364666964155 0.041616647099521877 -0.9970285545310312 0.14553189512794937
Ni 1.2733088112881688 5.28108049686083 10.755295021669191 -0.16995017607131377 -1.1427059740979093 -1.1418125157493626
Ni 5.319086185075681 2.5923190533066895 0.8400730748304166 -0.1564598548943628 0.5360642104948316 -0.7881048254099975
Ni 0.6313410685243395 4.12312595370395 8.746704405798916 -0.29444016292729935 2.2963306519908517 0.688130307196873
Ni 2.51818158108289 3.067644861418371 2.5721782217421847 -0.09491818673613976 -0.3904446407490824 -0.1373187631895377
P 8.892175771235548 6.576357651145376 0.4944259860783452 -0.004129705897657404 -0.9249106535188587 -0.4706419763352798
Ni 7.442583515257194 8.532531709660072 5.221575851363313 -0.1781288552273642 -1.8252726711640759 0.10406874288715626
P 1.1808143551444148 0.6224036370568691 1.9690348632054937 0.8892031728149201 0.417596518573526 0.36013056314657327
Ni 5.306050725235594 7.724442359043014 0.6554571240596173 -0.03702748506694268 1.537317601740488 -0.2828583716269709
P 4.508922804560829 7.076071503800861 12.035725578602024 1.5700078928846575 0.558764737416141 -0.9126619180584927
P 2.6509013012970293 3.0174678924875145 11.06280452118221 -1.2919376866749492 0.5275368897501108 0.17056441261654498
P 8.941988875272056 6.974080173914574 6.356673311519366 -2.028420417033281 -0.00621564189240865 -1.1248064681096692
Ni 7.0841674977001485 1.3035823704980833 4.021041838269603 -0.8033165001534295 0.9167324885834406 0.23427712028415784
