# total energy = -340860.36716094916 ev
CRYSTAL
PRIMVEC
9.27360401793953 0.00000000000000 0.00000000000000

0.00000000000000 9.27360401793953 0.00000000000000

0.00000000000000 0.00000000000000 13.57285687051296

PRIMCOORD
 96 1
Ni 7.594887002837111 2.6124670077856 6.170845342044999 -0.8575942876603875 -1.8355467993965744 0.7263091322594394
Ni 2.5575765451854684 7.486515665458309 -0.12278622757404584 0.43815223123769054 0.7143969542028857 0.3966528264423233
Ni 0.4688354009403571 8.307183259274597 9.487305021167197 -0.5710345559224295 1.1956997526861213 0.18276198312400135
Ni 1.9245417828928248 4.5858064953923785 1.4294120049197911 1.0008664402198828 -0.9446986347790632 -0.8849569959440566
Ni 3.5455585039673876 5.147675619909484 6.286906351934028 -1.496472799809984 -1.5630381464350436 -2.1722366150217045
Ni 8.849438711144419 7.465631509050892 3.92807983485356 0.39159469519312556 0.11171366102692373 -0.22414825938027202
Ni 6.219277666757864 3.3892426334507784 11.202303228156358 -0.3239967935384936 -0.8750988722030542 1.2250650932221159
Ni 7.957753857218009 1.8700964532889441 8.536593677217162 -1.1838258840666709 -0.29587098183655497 0.2412484093956684
Ni 2.181114587210755 1.4580609500305508 5.272240524747713 -0.1700900440832877 -0.7262188865384783 -0.5671740445257587
Ni 0.7449041031336475 6.026507258569162 6.209962331450916 -0.6763639106895641 0.29079099621048626 0.3353135041028935
Ni 2.4080118584453234 6.961397833944129 8.516927145026573 1.2456915112232159 -0.858127277345722 0.0391167634958036
Ni 3.408754296453089 3.028517981614335 10.937577998484183 0.7929570112959763 -0.7598085495684657 2.0191585321153807
Ni 5.165082174783693 5.442845164443963 10.857172141594814 0.5633073624815008 -2.127362637327149 -1.2073427362416884
Ni 7.668167022344838 1.4996252435554347 11.814506693584889 0.011466862989018962 0.5370836528982815 0.18377551199018027
Ni 6.839774516322787 7.964004266373693 3.147206203541651 -1.7681779830336128 -1.3805512713492996 -0.8967223640101007
Ni 8.618099383551435 6.467838077143287 8.260318173652697 2.0716712573021163 1.4627831208670226 1.5512357544834767
Ni 5.841322658524894 2.36433318318825 13.538680204459263 0.3246997331427892 -0.9478526070270127 0.3358614061865635
Ni 7.365152008751446 8.55318415493158 8.149021014183958 0.4081022059298455 -0.0035805182624067365 1.1341585987485305
Ni 6.79272952278157 6.436632399385314 12.639193467413158 0.8572767564199687 -1.9517830308841997 1.0990172749607072
Ni 1.700129837553988 9.486155094260218 11.72727453672594 -1.9019074862099958 0.48788559390707587 0.40987652422144893
Ni 5.421135657272665 7.292242933407262 0.7317272390842259 -1.7204387679761208 -0.5234370086491243 0.11919017190962698
Ni 0.28967122467037654 9.20331944316351 5.483840986038218 2.7257956398671896 -1.4334694595045698 -1.1447278896239446
Ni 5.843594691526589 4.38430962575635 5.639481738177181 1.0275287800024175 1.5060537586301996 0.587241247589279
Ni 6.92453525769214 0.8638037632341817 3.902277886197985 0.7605348862115289 0.0011420840242431945 2.907775493409528
P 3.550130390783043 3.9405398493069366 13.109112952671465 -1.0512063261250153 -0.9910697658444352 0.26502802831376937
P 2.1875041004277667 0.3021868807482845 1.1626549285918146 -0.018068427465936624 -1.2605339755526872 -0.7410317831815948
P 2.607403619953251 0.4743847256269458 9.4048228043224 0.8440366035806108 -2.0957558090551456 0.41318733376223676
P 1.1338650246989093 8.088864071821938 7.39979912098668 -0.8302529195329572 -0.30284638471312364 -1.879998087731414
P 7.789512131843523 0.3222493958334549 6.15246784082272 -3.03249148023339 0.5623252010738896 0.949730540776016
P 3.869309296302779 3.773466598047608 4.014715698969617 -1.1910697101132777 1.3957431485983895 -0.3960540165160598
P 0.6170888000623808 2.8466626054378574 6.599733766013516 -0.2025070269614125 -1.2193988960752742 -0.9910047169344547
P 7.63411434813168 0.3265940793489409 10.047103349891328 0.06689007695432996 -0.5492861085017443 -0.38223459413446426
Ni 0.9835213552153262 5.479540815822357 9.872625125767293 -1.5613587018500918 0.5148582658411778 -1.216955062520472
Ni 6.824204135058111 9.11419083426845 13.499753323937163 -1.4695428081883595 -0.807718485875867 0.25877716230805115
Ni 5.452378429446992 4.6443785788156635 0.09083495204735348 -0.2675374249991844 1.0942144542554253 -0.05866511794137639
Ni 2.1102642519742285 2.385987048735016 0.47835382817684546 -0.10230496611851413 -0.6688917706822352 -0.6923836831565882
Ni 1.8544147887752052 4.438207812719006 7.619095746310272 1.55665281173399 1.7600527828233172 0.7236850643730312
Ni 8.56098325597005 1.080523253981566 0.5112268999499398 1.7184631323069886 1.9681768988611912 -0.2650097734813242
Ni 9.244188216381755 2.005732186688086 4.0560852468086415 -0.4565554163352266 0.9635749028582759 0.6445305682290512
Ni 8.777865034788984 8.70955566707272 12.308368769879019 0.08363978560884305 -0.6918841178123504 -0.32344297791755267
Ni 1.4458568870500181 9.644733724174431 3.1902867313350125 1.3483903703460391 -1.7479418584923958 0.32420453867392557
Ni 3.6582977088718973 8.81206608666756 11.380067090208966 3.387666242036585 -0.1391298482563475 -0.3132017598055187
Ni 7.651706375087661 7.2452443078864865 6.11781609178544 -0.5365460352272565 -0.20642461684826385 -0.8565519624388023
Ni 3.2984911438402214 2.2891891692587247 8.7165702212053 -0.014848120756426041 -0.5741520185054886 0.8371493895424744
Ni 8.309835510043923 6.250001117103232 10.703310994080443 -1.7574004328021346 0.9963094169768196 -0.14989994228865797
Ni 4.5115434738512645 6.863348017915882 6.661639710106636 1.5924294551129674 2.16614155786756 2.861308717306556
Ni 3.2878172255342997 0.18269556470690065 6.94565125420177 -0.2743765594082049 -0.6922376444970273 0.6079926212040174
Ni 9.210729052830262 3.6732653058708182 0.20163597369735647 1.9251338037277876 -0.9449835130093337 -1.5222172557639397
Ni 4.153313421514642 3.0595752817068917 1.8713984673029764 1.786029923613369 0.40727559626349213 -1.0464850093899463
Ni 6.737022983021647 3.027173309021496 3.4385476043083756 0.09719541280609066 1.3113664848235222 -0.76172890651963
Ni 0.9136948258701754 1.7148563208466066 9.862159863553364 0.21955035559694447 0.2188831543265908 0.5866925741746605
Ni 6.207945322561655 5.379840298266349 2.4175024648695462 -1.6149479479304574 1.9448521080923213 1.6256733047677614
Ni 6.590184735883535 8.097395787583405 11.288070155569319 -1.2974868986279526 1.7434588830203779 -1.8364186604785664
Ni 5.83181721433413 1.7834902647059696 9.340908197583701 -1.217375180777026 -0.13545831294203123 0.5314254261712396
Ni 0.49346980284118297 0.92891837434194 7.7463416500905025 1.7034167794968278 -1.0021360509609258 -1.9631113114128256
Ni 4.510143159633893 8.192348219846075 9.06309883990299 0.10460996010260692 0.1611703729961547 -0.2967191887694632
P 7.490929901004458 6.912924705373275 1.192391667462161 -0.21741608286276104 0.9736225169022651 -0.4451646579997817
P 4.440275826430753 6.8830266057917875 11.951552014805493 2.7878433011275536 3.9530901366404563 3.8312648411008277
P 0.3396503865452113 5.454826660926369 4.009055091033966 2.445048143935634 0.9699226994531748 -0.027514403370184876
P 8.447882380506087 4.73704970447255 12.139264599324298 -1.2857778377211404 0.1273372264967936 -0.2890331329791151
P 6.201657818989617 0.9854317176575677 1.707859386561795 1.1633758437424353 0.7042837770282839 -0.6103060998285424
P 0.8071346233698665 7.300422252213362 11.353654011043957 1.4719776428820972 -0.6772619970238014 1.3168935852893384
P 7.676643096481773 5.156077505213711 7.215249762822478 -1.4698210015504105 -2.73986908724112 -2.5514581333614577
P 5.2796946477140905 2.648717526167744 7.079045557492709 1.0874704506633721 -2.0024188507631964 -0.07384259701276315
Ni 2.3690349004611457 2.52870781565781 3.0889382943324692 -1.7362613368306745 -0.06663013842472396 -0.20972874152083235
Ni 0.5084067969466115 6.0095365630871145 13.498382685252876 -0.0992569233208097 0.4934929127915243 -1.5500281073286208
Ni 3.188867869909464 2.9417448681577674 6.665847144281611 1.080183944304288 -1.1090857149403028 -1.8681401599515632
Ni 8.570229039246335 0.2415171080801685 2.609042265795698 -0.2288343520020317 -0.0903130838639606 -0.3238533259820939
Ni 2.734210882260092 6.173670081850372 11.309501454617958 -1.409947722233546 0.6516802918999551 -1.2862897443605523
Ni 0.26838552120592624 7.90861302915278 1.2225271713083152 -0.019536527371030867 1.2889415801611026 -0.35912037671450414
Ni 4.83807634741322 0.6978656011152922 3.272402640818311 -1.9492728628678366 -0.07757301058947286 -0.3147215388841547
Ni 1.7733171210208298 7.200183865620219 4.516422316962251 1.7340206204256137 1.602230500363789 2.052524509170336
Ni 5.0167508773873255 2.3732914847377904 4.888916099747473 0.285227900300412 -2.21790814891689 1.1838048010207485
Ni 4.439255729981013 0.19332033291115314 0.6730373808890155 -0.791534934137469 0.9443983299298252 -0.7921933936570744
Ni 5.7642311877367725 0.37563289776919667 6.987768254530331 -0.4196225478646193 2.015499852316871 0.46084992994552243
Ni 4.728657092772412 4.142880616915022 8.406227205661136 -1.4247853014670107 0.5012309048657303 0.657348803039642
Ni 8.24433604436649 4.266887250787121 4.859109808846463 -0.564849253047324 0.609809362697782 0.38183298782067143
Ni 3.759296531000303 5.95331997510232 3.5538222125706946 1.3825847568395608 -0.7229546139649098 2.2906138041117323
Ni 1.7461083666250223 6.54869463119136 2.4688615390327575 -1.222018078865676 0.04273122031993931 -1.5130911250929553
Ni 8.847713820783948 5.56999555010208 2.0348559403281787 0.19686962616997708 -0.6867413972691463 0.5410467513110875
Ni 1.5082218745455211 4.407549277602258 11.938223063649017 -0.19022435293931755 -2.4955307260662183 0.9948914535833705
Ni 3.4624299169176194 8.124298513044291 2.452981419391523 -0.02631704062797403 0.3418644178475338 -1.6429814570289059
Ni 6.907100882005664 4.543277747042285 9.320522033715841 0.4289145146895065 0.9559472111096893 -1.5956872999286325
Ni 5.285509197477612 8.290861716078748 5.210551582990266 1.2500215060571376 0.8534375851795366 -1.4379177250839106
Ni 8.538012538642711 3.3447571546380006 10.413299428140018 0.01868729199685814 0.3675289124931735 2.9547636892336078
Ni 7.332406912714775 3.9618784123146913 1.2769836292371022 -0.5542737915243228 -2.299118242038318 -0.2777665589263603
Ni 0.038083909910450894 3.663676399243257 8.415728013049856 -1.9055844208409505 1.0236258454035854 -0.29390691613164865
Ni 1.6249580028121966 3.807287432158552 5.055903106488778 -0.07510655132685129 1.691858128124951 -1.0345548336112635
P 3.4318177498213136 8.78116643784451 4.413648527011297 -2.331669950722094 0.8254963786845784 2.098759114657844
P 5.255203059316228 6.0963374973559485 8.852773499174662 0.43538700978772754 2.407978749887163 -1.0989082601866687
P 0.0014837766541681019 2.711453457826789 2.0281650349782896 0.05939094036380739 -0.715119434191207 1.106826229482165
P 5.9014156130187025 6.331720116331541 4.49607695695238 0.2289719060211605 -0.16693350073217703 0.17460053035913156
P 4.942858800009755 1.5242373888064482 11.683529091519429 0.1607998770306134 -0.3815553086792526 -0.21532011956568076
P 3.7109625064907767 6.114615771014481 1.4924984788133835 -0.16794111606108497 -0.5396287879176384 -1.436206655930075
P 0.7938668780003771 2.1618533115188354 11.971978982531342 -0.9285868168188653 0.4693433121285143 1.2915859597624852
P 2.7424643898989025 4.524350321097553 9.704158051813456 1.3138920794588533 -0.0863687545042319 -1.4225913791394853
