# total energy = -340868.6439466253 ev
CRYSTAL
PRIMVEC
9.26466084393669 0.00000000000000 0.00000000000000

0.00000000000000 9.26466084393669 0.00000000000000

0.00000000000000 0.00000000000000 13.55976763136784

PRIMCOORD
 96 1
Ni 5.38416700116687 3.014535394139692 8.366810652767846 0.09319837583155562 1.1213113104722174 1.0099496334680735
Ni 5.0837511037841985 5.359856530719324 4.633711857818896 1.2258731909457081 -0.7467902829319267 -1.8470553142568062
Ni 2.2144114767382344 1.1392105097719556 5.381912909147095 0.4980399087322584 0.5031371207495077 -0.555851677534404
Ni 2.7044842493235417 1.7839382683255889 7.766804339297045 -0.07602083561100456 -0.10671055138537752 -0.07811602757713643
Ni 8.709327949104322 3.5592511372660156 4.213114778025566 0.47151229475537504 0.49333916082247936 0.011261946067064476
Ni 2.3393454302386765 1.8982363910052291 12.465006575827191 0.27554384024342865 -0.608187767933959 0.030724425667050314
Ni 9.384916293428068 0.8421706548553991 12.038551450887526 -0.33445064188196594 -0.38205590246475496 -0.7111807612584332
Ni 7.2903802652877 0.491219737616331 -0.2526778786802817 -1.3676641309739865 1.2198231280968863 0.8770403122001411
Ni 7.396525486292859 5.989121570074422 3.8935247382502713 -0.03153046650811344 0.4792765120818262 0.17473525616478294
Ni 6.079757748576077 0.5881568120598216 4.242064990698771 -2.1838420604711164 -0.044552589799394235 -0.31500050357715426
Ni 0.259803329450559 5.390772704455399 8.28196766678557 0.32771075205497113 0.5761075995699627 0.4827151054497299
Ni 5.326281399278049 1.8445291512245794 2.404838245269449 -1.1267517647614984 0.834701185112298 -1.340130187219776
Ni 6.234551704459309 7.38728861928211 -0.28157898865022074 1.6838427140196421 -0.348423044901658 0.524737986848735
Ni 4.918413963690102 1.7635374848173966 6.245045785966908 -0.055973944262458435 -0.9245578981651302 0.1650661085061351
Ni 4.630116242887229 5.929883327680517 7.39164671581356 0.30509969952367455 -1.2778459844685734 -0.39819034613277227
Ni 2.009365999625014 4.4412005405640915 4.083334480359303 0.052676761568425406 -0.6501916231695706 -1.613359777507731
Ni 0.3500420539955833 3.4203646043090172 11.786271952629974 0.8246445722072443 1.1507496703379925 0.2759413327921635
Ni 2.7353818937376295 4.436040124390584 11.740291440118096 -0.6545864098031565 0.5988014416230526 0.04678610711560329
Ni 3.81326961239209 3.7268210606596 5.441738531048004 -1.2040478675405004 -1.6534944407450878 -0.7738087205022997
Ni 8.233902605550101 0.9229501605258258 3.961052072835267 1.6747500076897546 0.03413088024543799 -0.7217377108386732
Ni 2.325216822223239 4.205989327255288 9.198011022540571 -2.262769528205955 -2.6223269924578774 0.04658658951028751
Ni 5.393830042583329 0.7430591644766802 11.811791461337203 -0.7099317193426805 0.37001054126444666 -0.3539946254521645
Ni 2.218024694525789 6.507358912080668 9.284332648417447 1.0484228498426074 0.5279621502129875 0.3945879734934946
Ni 0.6411756875286372 8.375281332314414 5.3856817732393445 -1.0376488991555548 0.6022585469337176 -0.721689631209557
P 4.1041614382732075 9.330440086784941 5.104154666690689 0.8173015015786118 -0.17082640802868 -0.05591018090405855
P 0.37188719815269805 1.9586049220403705 6.110587760964911 -0.16979976653637854 0.09042621240305718 -1.171950987005956
P 0.8211602566538195 5.635016962233088 10.882459802318897 -0.2727097132287432 -0.7889741153888283 -0.08607616296447756
P 8.923795586448167 1.9718997105663723 10.030485283199933 -0.19703083433818971 0.4390333482910632 -0.8484241911253453
P 1.7575525138154475 3.4974836424208213 0.28150857722666844 -0.6586351259512334 1.1728583293115737 -0.34615250369992645
P 6.836949226932592 6.41035791147632 1.8375250675133201 -0.010010333048150502 0.0727881876063198 -0.8317001935024451
P 1.8245916007660739 8.818354479678531 13.297603130011671 -1.0405534743968596 0.6232148374704105 -0.21744822165227715
P 4.064277072695202 1.1009289305458656 0.17000467630273686 0.9841157031241051 -0.4788633358038076 1.0801952571581976
Ni 4.226844079152173 5.085780064541825 9.59929869589077 2.412912439743354 1.2083629499760866 0.7797675091888957
Ni 0.07108496440658803 0.9704825037541547 0.7315033528192013 1.6696545954447182 0.8382894166841884 1.8425196311699816
Ni 2.920647319629238 8.195037352681407 6.803410227669193 -1.352509277610419 0.5503644291675877 1.3214961170583563
Ni 5.5022173115489705 8.90360789014283 1.4933373527996745 -1.9160051019536424 0.7544202886733588 -0.5957801382982255
Ni 7.47420966872528 2.417529904364759 7.911229286596095 0.4851851642567774 -1.4273088392198128 -0.6210173155984595
Ni 7.73639031018683 3.841211829949178 9.759765403700463 2.5173174829240064 -0.6665754638442326 -0.4909688608180899
Ni 4.192194247035625 3.363312821909631 -0.02818402520902439 -1.1950713750735031 -1.843707737940812 0.7263636396464587
Ni 4.63185799915405 5.50345877612213 12.964588596456462 0.034164818807166965 1.2962867076722644 -0.5031934279087399
Ni 1.498049359381085 1.0358354224039223 10.197677208424974 0.10913741565931527 1.883669880156046 -2.376235910257927
Ni 7.473746435675594 7.220552515377961 9.648276326234122 0.7437090729034417 1.6315642163308994 -0.925816967383212
Ni 5.182225185486549 8.087465373883214 6.551089964903269 1.2784213973560692 0.4328611580420803 0.2690911426395495
Ni 0.8241666391462847 3.1678284749419396 2.2179440919751436 0.1312923544897997 -0.08796129580233238 -0.6914092350584609
Ni 7.174386709646208 5.29180759572038 7.951258180885602 -0.5242314795259616 0.8833225456644271 -1.2852924134442898
Ni 4.455051208749717 7.652637774803516 8.932592382061712 -0.45093241372149434 1.1543029349068894 0.32801568488989963
Ni 6.779119213009733 3.988871996867238 2.31450316825009 0.0674022407040581 0.5127892991272911 0.4560640785211049
Ni 0.492109145071729 7.902468623160424 8.965786735936145 0.43063972491072927 0.795255834632482 -1.4104609144245386
Ni 2.5341534569538258 8.724114348050316 11.217168842369858 1.4671974478846344 -2.305454982889623 0.6066332789626455
Ni 7.03709369838013 0.8301488307499358 9.685281235175275 0.050319059969526236 -0.9606785551470874 0.6363991973711686
Ni 0.2634387824244985 5.748221854915469 5.011445983524736 -0.5637609050791518 0.10290171916224859 0.5278842457872005
Ni 3.114232411093215 6.048563635010191 5.52278485895505 -0.9138515674912197 0.3399147503203307 0.17192941128487163
Ni 4.109692440886464 4.182790616126989 2.3260423035177804 0.6123622110266228 -1.61422521083182 0.3673211673577416
Ni 7.6394356328874515 5.323242590472105 12.00269999224009 -0.24419129407407622 -0.0983593512072048 -0.4974385277028336
Ni 7.494323247742667 8.6821732277317 2.2874781521313814 1.1102123723455783 -1.3329940903956268 0.3140332545678785
Ni 5.596290679279299 7.1120355411584075 10.998218962037248 1.1579919537227024 0.3276544448957389 0.6990567243013897
P 3.684981851611918 3.804634948345934 7.524044280210551 -0.6819239212758449 0.6975469725250826 -0.176700864531586
P 3.6844167072913008 6.515521078416143 11.194577893002746 -2.8002535018664485 0.3948016321661975 0.7158622258945025
P 3.5408515205324687 2.726246937997812 10.72423051013919 -0.14682875956250196 -0.7180913723353375 -1.0462860060052628
P 7.466788675269302 1.5003562599685238 1.7323683858361927 -0.3617930384506608 1.7657202655217394 0.5258731288944427
P 3.4865606071092143 6.04306969104091 3.112807506232379 -0.7587279149097772 1.2870279080781577 1.9118165177935913
P 6.072355284442088 3.8622704043879246 12.750900117102193 1.5657239207973228 0.481123592592894 1.386865643603102
P 2.7857816495435177 9.138133518538098 8.918910330706172 0.52039693627122 -0.9137924321185101 -0.7462135844928504
P 7.220422810124049 8.73612134869819 11.51827680992876 0.6371864691591542 -1.7093156614797658 -1.0275202953619853
Ni 5.618599982952199 3.4443415469607888 10.747038252573551 -1.3745397750478974 -0.6765600858607703 -0.3696703843162085
Ni 4.667573267284878 1.169913596305175 9.323561075997096 -1.38726956390974 -1.0055049674331586 0.9521527770642635
Ni 5.198058491124832 7.524618689192162 3.868398051169178 -0.2258865822276174 1.0780779537048786 -0.5264781094682932
Ni 0.19002004991358998 7.732610328501388 11.12950476711499 -0.5114296997756032 -0.3593630888529295 1.345428716614554
Ni 0.5294466553425581 2.9142547035435644 8.170885307936853 -0.6546146919379306 -0.8673261702361708 1.2960635359178647
Ni 9.344985604545094 5.386084785992572 0.221430030080631 0.12343120657416808 -0.5840605358684522 0.32429092774014473
Ni 7.522923256230309 2.461083075696281 11.562562815944888 -0.8638564665200154 -1.6698088616343953 2.189847643235248
Ni 1.790340149072256 6.542573888517833 12.780759193018882 1.0088803116632947 1.2070228910084244 -1.1644274249354012
Ni 7.217161649454256 8.271526393845638 5.409927391059935 0.6431791964074794 0.006268863727847268 -0.8264836822985122
Ni 1.0770168405210498 0.864507752511281 3.111953304488757 -1.1653743622297028 0.1645436603437618 0.8488191125709187
Ni 0.03702529119534041 0.4850272382081222 7.603083882546354 -0.11067802067355778 -0.022641648658915846 0.024554035190280293
Ni 1.5910758204191227 4.18785838569056 6.610332839627672 0.8366325978070559 0.2413453399848489 -1.1430924109030507
Ni 4.715508623266434 6.635387262353015 1.466326233672456 -0.16390345565660158 -0.10413636290029807 0.1956882042673662
Ni 2.3632389909415044 5.567950081299481 1.3086120566440007 0.055791395938007145 -1.642365934932094 -0.16472029513094213
Ni 7.336925922120197 2.2465320564034945 5.5370496574870955 0.28726961332078915 -0.919018713514456 1.077136672837532
Ni 1.4075521507943358 7.648829999135093 1.4728615255374327 -0.30174929499420294 0.445735185791271 0.7096283291696489
Ni 8.422225369569642 7.298412726369264 6.991254008715356 0.11595032481609062 -0.846440327926097 1.5798729586041953
Ni 6.008419858924361 3.959104641094385 6.311570684232381 0.11961157571776174 0.5469998835707289 -0.11303109428676662
Ni 8.77234617318367 8.011671182293513 -0.09332293018983687 0.6110296082581284 -1.3375896801861094 0.16894796005904453
Ni 4.034935891328061 8.230122623864661 13.157829042531475 -0.7730983246988363 -0.23188933677827162 -0.28286608493645476
Ni 2.9216756969995417 9.476729083875929 2.3026110493985392 3.200619772604617 -0.09931811557604832 -1.8876915997209296
Ni 0.1921120103659741 5.616543228211592 2.644642877498944 -0.09389463056763184 -0.23125684540059524 -0.4403278987327707
Ni 7.920525447437202 3.4396258345149806 0.24697455337254184 0.15131970545432005 -0.967116340352631 0.11974553019246473
Ni 2.661496222312637 8.015840279740692 4.324996677118041 -0.10657299736624871 -0.1699110953032622 -1.6990726435955188
P 8.369370478600414 3.9972565150665633 6.625194282327713 0.9163208549673185 0.6054870811733443 -0.4003238475360073
P 6.467984102857317 5.359365503686656 9.901993699877899 -2.171148781274164 1.7120795973781482 1.3666040651405884
P 6.4440720128325015 6.21507738705049 6.030747691919249 0.36222266978891166 1.1055113673254833 0.05041624766902284
P 7.202152898644415 9.015978963335774 7.793191946739385 -0.36578699010140225 -0.3466171020411708 -0.6837180370617901
P 9.202365413207625 7.748221282275822 3.117919746168719 0.9720775410126484 0.030222546329967306 1.8149589479428934
P 2.818967665223057 2.353084922492377 2.988491505620219 -0.5888160482755666 0.3936407790888769 0.7357450808613587
P 1.3080126330777064 6.654917167727796 6.625370310886594 0.09665573825253677 0.020739546540196538 1.232866591544406
P 5.9598822999782115 3.014868921935466 4.124528869001822 -0.6222928398767734 0.7574053394436118 0.34392772813446576
