# total energy = -340888.3229801127 ev
CRYSTAL
PRIMVEC
9.11861950453425 0.00000000000000 0.00000000000000
0.00000000000000 9.11861950453425 0.00000000000000
0.00000000000000 0.00000000000000 13.34602136906892
PRIMCOORD
 96 1
Ni 6.371434554243167 2.1914139212674755 11.578593778939247 1.1953979051749863 0.30160402766559025 0.15363215563758056
Ni 4.5344704797801505 0.28052793656058306 6.18190314237274 -0.43605626794061025 0.23171964396962674 -0.3675075723369348
Ni 2.5506236872927404 1.4326809737472515 4.797321061165536 1.1053504162675867 0.51634642035093 -0.021600866099227314
Ni 3.4863307961872776 4.326556843470602 4.779143093796425 0.12417656938062487 -0.28414212343540096 0.039578019402938286
Ni 4.835840844239191 4.626823855006812 2.495332027930143 0.12181681089919665 0.0956658635354417 0.6630756782210904
Ni 7.124577788195663 5.984987472676627 2.798006354934347 0.1436328783330236 -0.42352471113250284 -1.5551638858932892
Ni 4.960474131423039 4.666043036172874 11.50326942506288 1.5386118950718792 1.299323437616059 0.19516292789151551
Ni 5.715340784403759 7.916666644738314 12.32936070072902 -0.6288319265468718 0.5158499403304858 1.1642397344046271
Ni 2.096644111953623 6.394085204328379 0.3972754418629126 -1.5670212994525075 1.8500419076889556 -0.9345245224595389
Ni 2.638062126772248 1.6773335268012926 0.3678514814382096 0.2414232444106358 -0.6537263757957064 -0.5121863754359695
Ni 0.5215594859315174 9.052144462999529 4.650594271529409 0.24010761092300584 -0.42061936456024984 0.2232306326620091
Ni 8.30748154490019 2.350852977926063 1.741188481451741 0.48174811355077035 0.9412965510760498 -1.003934023401613
Ni 6.952272359850187 0.6967372793240327 4.792289407092661 -0.061641684071197064 0.53046640469208 0.7933768724422142
Ni 0.41559110038189684 7.424078835719331 2.619009683822151 1.4241612947297666 0.6588613830294265 -1.1447039783645447
Ni 7.664472993608398 3.802792475417263 4.093598007674723 0.5729777956917294 -0.62422965188817 -0.6460475190942099
Ni 7.588952589419298 4.12760680983165 12.865337635472827 0.16496840658600623 -1.595560544542781 -0.13224700509358514
Ni 8.111677434884184 9.141142186361714 7.050502685149279 -0.7151664853790587 -1.132282207661424 -2.1860064151122867
Ni 6.7662160537557146 0.6672713732510238 0.46369546409346185 -0.3080965773684694 -0.67215630036612 0.40414604949557503
Ni 1.8504413936361015 6.225062478893801 9.402405216144912 0.164138197375227 1.5323468879987738 -0.3641844215009728
Ni 8.952094973170645 4.858646510850752 1.3952198623623608 0.9089736705736281 -0.0029678243790723082 -0.04707381355935118
Ni 6.438036948857655 1.7009963436173656 6.9214067457304465 0.48750892729394757 0.6843099050095183 2.6017836210888867
Ni 3.588559636004231 4.4412143612529915 0.43254717277861654 0.05675016030685066 -0.21168457969562252 -0.816793965814574
Ni 6.03951681547436 5.348015447293212 4.766904994972205 -1.2062124792919873 0.9934799179478245 0.45772861070772136
Ni 5.594437012471461 3.107133016882309 9.15619793851779 0.044605040303884465 0.27060989327692103 0.09073088812766955
P 0.24116012190161126 5.980665247177274 12.465677674689914 1.1983464462803493 -2.29615144610051 0.5719858640921052
P 4.0392291525748565 6.5167762256232775 12.659421888629328 -0.39584909959410536 -1.5424973461692144 0.3079168572574955
P 2.203149584173944 8.655885747177075 1.3684475964001295 0.37420041097607815 -0.09998943061146005 0.589752444046907
P 6.268913918611911 8.03676797818128 6.026075058916143 0.8631306440975844 -0.9021365930471367 -0.5705447607702046
P 4.711927927971902 0.8806643878360171 12.859105059251714 0.17968540108120665 0.06121642360832037 -1.4247012263936365
P 4.105357378991103 6.208676320196891 8.312302558869614 -0.8135883143930827 0.5984813392794726 -0.6431897379304407
P 4.618744758398319 1.0370605612685844 3.823688703168983 -0.5539539462910589 -0.41380337007968093 1.0613639833843076
P 0.1844860798687571 5.603391496522862 3.512379043785272 -0.3715038379805215 -1.1032220570706741 1.2794981753600159
Ni 1.5882172613895464 1.4253769597704982 2.6251893720519206 -1.6368889709779226 -1.6398915052496728 -0.6612831050970418
Ni 1.982770795422171 6.447885057590356 4.7302572644196825 -0.34498265176154136 -0.097979856380599 -0.1299882909663955
Ni 6.013747597623793 5.80473972701061 9.154102479826333 1.2670424660951662 -0.19437539899321363 0.13630034922735235
Ni 8.610630040102636 2.2182773734216763 10.442781307353505 0.37411530746143956 1.2648791398952601 0.7899228524553428
Ni 2.4184857765098062 5.3825294209536505 7.0460455040858125 -0.3791377003766954 -0.5435818590281155 -0.10682522258637085
Ni 0.6164177458515798 8.558334759008154 8.390295932584928 2.2439220564821483 0.1491095851768787 1.748843030150427
Ni 1.518861043777581 1.1654416009423767 11.294670980451642 0.18026364218217986 -0.39821194339932714 0.594059298952377
Ni 3.949593125868885 7.073212606259271 1.7022984824386895 1.186595476392008 0.11096752688951857 -0.8939625418767765
Ni 6.130210602007177 8.27010432481191 8.197086069730453 -1.7075274592310916 -0.7331073861281955 -0.4073866679200596
Ni 5.366635667693375 2.6553054356736716 5.2597599795336585 -0.7285328793836356 1.1276015143563032 -1.7485764067526013
Ni 0.4627097413582721 7.025476634763263 6.561330710881471 0.8501056925928263 0.8169135221115738 -0.2855001801251922
Ni 4.9772888652222065 4.753645610797927 6.913599383974022 0.5632047754653655 -0.4271049722845935 0.3838865279155904
Ni 8.48518519581026 6.961609825907858 9.478050545417009 -0.8263371294183187 -0.20600732680518713 -0.22127608003879956
Ni 4.780518181571325 0.6324993426673124 10.471555110229465 0.1763699635547285 -1.631921342560002 0.017371658509228144
Ni 8.00599263839159 7.2013565618339435 4.663406843363037 -0.04672054398499051 0.1878723077673732 0.5800185045885947
Ni 7.419802203315964 6.268211784933746 6.9995341631479535 -1.0339516528096258 -0.6910598221388421 0.2772225134974322
Ni 2.3462024821356215 5.367574885470661 2.4092367610583447 -0.27226928325721494 0.1988223790209737 1.480101300430496
Ni 2.4409631728302763 5.2777473677615525 11.62130174381006 -0.7877469278499466 -0.28281080621848714 -0.22878884347607695
Ni 1.1518001466237466 3.6009883139696677 3.621763264086068 -0.5453582342022478 -0.2246884481544582 0.9671466793699343
Ni 3.566729661646744 2.5993171138044273 2.666348083521172 0.9183823654820376 0.6181001419516645 0.4790499978933168
Ni 1.5263474301382731 3.266918581070381 8.353995621423808 -1.49360139179946 1.030189357553716 -0.5810081221953735
Ni 3.746840628024807 2.6463509516222716 7.110359125281867 -0.4217781607550413 0.9058284400764269 -0.5923464300263283
Ni 4.228787008440955 6.895746039448322 5.926673902912162 -0.04871237760403868 0.5579216726895552 0.09561264170000308
Ni 0.8012786009693313 7.685172259185464 11.366658831563845 0.7542264274949979 0.43291823653226086 -0.15265899309103387
P 0.2807157801160401 5.4471804310599925 8.061130193089758 0.35005852362255196 0.1780607209935901 0.3817445418719232
P -0.36699250750985735 1.5098244921534083 8.397583533047126 1.4998959665589202 -0.15247824453879547 -0.696775898687013
P 1.9015056611389949 3.228556550108832 10.603293625491574 0.08459495043326076 0.7548563477695129 0.6918872031361438
P 4.131391036798382 6.2119316672502 3.729225279460148 -0.5270000434100344 0.48156376545410606 1.2624936703822194
P 7.031403737241277 4.255869307455882 10.428567203749306 -0.31381882456422727 -1.9774195005053816 -0.07793373636300126
P 6.600503387089629 7.944916127010449 10.320157763840664 -0.8498436971806912 -1.7114820730034652 -0.8490877928512732
P 2.189480773997723 8.39832122934016 6.049550944038678 0.7922373595211324 -0.2487398326767071 -0.703202371038647
P 6.514277723963314 3.9572801218519094 1.4541826778136482 3.1174857229875985 0.3857498063765744 0.7374911170181879
Ni 5.145591219740225 2.6185026885948006 0.683620145609227 -0.8891720624666688 0.17875620439871798 -0.7040438931033358
Ni 1.594144363867561 1.1798216634159593 6.928439936717051 -0.18728198248154196 0.08507394695220831 1.317004914056222
Ni 7.04688715263769 0.7785659442735801 9.527377715962885 -0.34414987144760084 0.782185374601769 -0.1820140492143833
Ni 3.085777210723063 1.9326366270773658 9.383613565703847 -0.9526687974687335 -1.0194120644325542 0.9198707771021062
Ni 6.190712640378909 2.1261154891981504 2.846438988937002 0.10874018022089658 0.33585035044296996 -0.15150868153667454
Ni 4.450132370827604 6.921314647676557 10.54192805388189 -0.8404332025000687 0.591745820327852 -1.1874346844638517
Ni 8.030603791604145 7.185189249997759 0.2929319942541877 0.049872202240094754 0.9576464531889829 1.014183211933447
Ni 8.141604743088559 3.5676324049472417 8.24822784549652 -1.2501729440333371 0.6970330090031414 -0.36763972703942494
Ni 3.2396903841483025 8.532009305386573 12.047986556306961 -0.8142318615143527 0.004177271306141193 0.8722063811466074
Ni 0.16306735523705237 4.610820678316173 10.316461075618223 0.05100271630011217 0.7381554900750643 0.3878794511250675
Ni 8.767023477949444 2.145702283233189 5.837109001435926 -0.011553252055238166 1.0066169695504148 0.7875782634825662
Ni 4.129539957101403 2.6568920754139405 11.625251929646176 -2.7045554995414904 -0.7947292727050507 0.38692428630064973
Ni 0.9393089634773312 3.3376061170851004 12.601820483024147 -0.29070846379900905 0.014602066183890981 0.7696553604555583
Ni 3.2884294037559747 8.329986297078252 8.125858711459275 0.3188797840269024 -0.12852019106130125 -0.28726524244541496
Ni 5.904387997594828 8.15327657566065 3.6891608022945297 -1.9469473000584536 -1.2799442617584988 -0.3483986194216258
Ni 3.168647221984902 8.301435900372617 3.608590506794161 -0.17022091323419716 0.8907208950110272 0.35157470315676226
Ni 3.5074130437706152 4.545896109633923 9.527790789412506 0.5283071922572321 -1.2924755614562904 -0.31708463979969265
Ni 7.4375470362732194 5.992829485186 11.519938260954897 -0.8924764442495534 2.0944633154959673 -0.6511745559081302
Ni 0.28542281134550324 0.3715162544934619 0.541646892160468 0.8723927861258007 -1.0592245684438015 0.034769542270701406
Ni 4.607072925826229 0.37087156811623784 1.645350881829927 -0.4859734644860275 -0.7655912176885137 0.6120426229036751
Ni 5.9414004729152285 5.775168044954916 0.33050708837904 -0.5361932798735282 0.43371887805668524 0.34802066725691677
Ni 7.788860078073929 8.81142203481937 11.764210567588425 1.946950642492563 1.0204047673631267 0.36656552013863963
Ni 0.12313965735938816 4.6432282509421166 5.8614256232484205 0.10600092691286261 0.38849445900124707 0.1019864064368308
Ni 7.954280948925713 -0.03936507907321268 2.615566493213384 -0.6990916913043831 0.23358112265839773 -0.40452888675629045
P 8.61249935703801 1.6873822451563263 3.785892026597645 0.6893783206713612 0.5725643623033946 -0.9695149224917948
P 1.897320214927597 3.468959826617097 1.5210723089328402 -1.0405609305960273 -0.756795987994387 -1.1375779088427247
P 4.687708875384816 1.2430866434043655 8.3638710860141 2.7672505645778664 -1.829375637588856 -1.4136035738185784
P 8.315797725607805 1.6920509781851623 12.668443850462786 0.35103194327941484 1.607965345965037 -0.6976631863879726
P 6.251862100713623 7.661883305756467 1.5861746906894307 0.2199563327861115 0.6709368261367219 -0.613720267716414
P 1.902298981009129 3.3091104320946467 6.004655422422518 0.015315290200831689 -0.4620791743669332 -0.31736771825775023
P 7.025367211332899 4.057366086157581 6.261552457334217 -0.213653016275903 -0.7658766101394164 -0.03270288954965981
P 2.321226584155188 8.667703477656316 9.987641843652536 -0.7231165934640708 0.10591222385379824 0.999639252681001
