# total energy = -381175.50995007704 ev
CRYSTAL
PRIMVEC
9.12883945483083 0.00000000000000 0.00000000000000

0.00000000000000 9.12883945483083 0.00000000000000

0.00000000000000 0.00000000000000 13.36097929937769

PRIMCOORD
 96 1
Ni 7.399992242844016 0.1456752772439166 6.235969392495254 0.037356843381903405 0.5209702922761866 0.3237347981263586
Ni 5.41620419708081 3.4654351626908744 12.625897570921213 1.1798974955465422 0.8442155523606363 -1.1649794407841292
Ni 2.8567241650769097 9.061075823015537 4.736400538457273 -1.5949275389444726 -1.703795760102801 -1.0426309257511785
Ni 5.4642857931280915 6.960977237051377 10.020707615293247 0.40720977602256314 0.3679348896823405 0.7719433851587867
Ni 1.5183176639794866 2.2149576407328886 4.345457999872719 1.8925437856069085 -0.8053119333169034 -1.3831848523174048
Ni 0.8806235148009666 3.0459376151000748 11.282919347154248 0.4902011294141299 1.5325482053763027 -1.3234416708205015
Ni 5.335350068318559 4.608877045071419 1.3808574291283835 0.9447994220229856 0.8165466256904582 1.5869920861474798
Ni 1.9130669285089266 8.07359102946578 6.73112767222949 0.9633409324705989 -1.0970578372414912 0.6698052836354399
Ni 5.519551785622917 1.4445109990768337 7.046326406233921 -0.07642938390333288 -0.4958210467040686 -0.37168612919465666
Ni 2.9919496600927413 5.801231247866116 2.367338050366539 0.1358061831997532 0.9572093656515646 -1.1154371110796273
Ni 3.1399920453402768 6.056199726620735 10.022417446874726 -0.2743765594082049 0.823583992153214 -0.414301392762022
Ni 6.115144641311697 0.0745634456720321 11.159596945566562 1.2524362861462173 -1.0453902336638707 0.21924747964454497
Ni 0.3447241386172508 8.378768123800436 5.078120376094999 -0.7902295850624843 -1.5222704775993783 -0.6168503287049635
Ni 2.756891179625405 3.641430053557695 2.587406976873436 -1.2027360907076126 -1.3410305875468582 1.3051886381475846
Ni 7.444659653031855 2.109273069356511 11.453432370083648 -1.3955505729716093 0.6480002719452065 -0.7945516094766057
Ni 4.645547592123238 7.000979810409872 1.044309078895402 -0.06874332811298482 -0.5466399291281488 0.61157673901085
Ni 6.491115883614204 3.4220640476689193 8.02794409483217 -1.0843416752264035 0.20848921268677642 1.1699756084471398
Ni 3.459994374529838 1.7498615413562202 5.775350075860485 0.8578465128805097 2.0064565111676798 0.18427199201062458
Ni 7.7176758468776985 1.0775042768651628 8.892065407017858 -1.332312748057886 0.11322444124449532 -0.9173976329712652
Ni 8.013212887020988 8.120978833734139 9.979475387295004 -0.4482062730395829 -1.2245907246888585 0.6750889006318825
Ni 0.15777920513438384 2.702711518994948 2.455373836924575 -1.266335926946445 -0.7712936673899297 -0.41675293962630805
Ni 1.598961829440221 5.576068429087645 11.59438986323088 -0.9131018338093887 -1.4908649667049034 1.5184976408205073
Ni 3.8356004632644893 2.9615780120864175 8.225887453778824 -0.031187995567030155 -1.4315411321336056 -0.3113904176283927
Ni 9.035642877014448 1.890117026769252 13.179964249989624 0.6264788529336629 1.845333446469693 2.0553596646262857
P 5.661979934764684 8.645558449314354 2.5142694558838765 0.9274779000254026 0.9380253365239458 -1.306189825718589
Ni 5.912064484549246 2.0983093334816707 2.121188943159533 1.0279509551415005 -0.7348179410613991 0.5276950125945299
P 1.4180191077289674 8.628624452605088 9.257140466855578 0.41739700096821025 0.4010355288910513 -0.6000851934314826
Ni 5.481886195098693 0.8548601048209706 4.460990762974141 1.4153490957547754 -0.45746867217811543 1.8702577205151985
P 4.458771542165504 6.067008272229237 11.792025580296617 -0.01760820000006645 0.12271489723343383 0.6709725644706639
P 3.1082510714544975 4.496519292242494 4.625530786417357 -0.3318306877606156 0.3915599853004482 0.5505942857902066
P 0.9991058058467357 6.253583487724651 1.1499863472004226 0.7427423381147983 1.400540312876717 0.640752846354174
Ni 0.6032428229353387 4.878634243324158 3.2097884111839647 1.0101069849815443 0.5711497413440552 1.0587841384722734
Ni 8.409048483414795 6.909408424431082 13.207474919791807 1.0842432019753263 -1.0822066311612717 0.4543753779647723
Ni 4.047681655474562 0.2995692484163254 0.47834843523803916 1.251998170167534 0.739816679827571 1.9470614570388143
Ni 7.901046839815187 1.1124951175048499 4.041027644584327 0.5233999847636018 0.9448737269043469 0.015334830584857462
Ni 6.5844217490403025 3.0088562702844186 5.660699158625433 1.2943743211409 -0.7746836669080852 -1.6139233633206849
Ni 3.939888322243822 2.9764671488156975 0.8601101002428031 -0.5297354400633264 -2.7388259906885866 0.20402269227499056
Ni 1.2007709925337495 4.213607436707786 0.8774594591355047 0.8475106781721404 -1.8532946102982986 -1.463255689628067
Ni 3.665292839217007 8.424530994691839 10.968000868513144 -0.1472478493777916 -0.7603564516521357 -0.019767155324598214
Ni 1.1078941825498791 5.707651517264125 6.169592689814527 -0.6688202940143514 0.2676883487547519 -0.25810661860358775
Ni 4.07265815951583 6.501349312353334 5.580800819327043 -1.3391775934985195 -0.008063236624108693 3.9764018147832028
Ni 6.378977222925991 7.960877251908197 7.966550825468742 0.2133223724093616 1.1068737948906484 0.9096987216651107
Ni 2.644387365369339 1.4386594131519606 10.340342052263194 -0.16885720011745112 0.0515174511530016 -0.6560100296235606
Ni 7.24747672639026 6.607709417830244 6.39537992119403 0.66549045831017 -1.350010165337649 -1.046692497415062
Ni 8.535784157978002 4.358116961186326 7.478821595072512 1.2345912875449963 0.2795809864272798 -0.6178553729307101
Ni 7.9407572903193975 0.2949683134613547 1.6797155409713118 -0.623049772647456 0.32256520329828964 0.8153274085713765
Ni 3.2357353108318074 5.0773873303075305 13.432593920142134 0.9750296816624368 1.0617198240618295 -0.6857204122037996
Ni 2.701150487492369 8.252461504679458 2.0120564092186863 0.16349824979838293 -0.41326780929118506 3.984063702203836
Ni 9.111777395912176 7.369830558139209 3.0875888568174337 -0.13880666058897387 -1.3662536237797052 -1.694466255171759
Ni 4.811975459512262 4.250259726081213 6.171890418640254 -1.030274975288987 -0.3378673808729988 0.29543929361577503
Ni 4.450573844567163 1.3393102561778638 11.972760164474193 -0.6572829827987131 1.4018320351049471 -1.561265885025969
Ni 0.18989263565937492 0.9887354445196592 10.586985942554644 0.39719815742283204 -0.7542914764049784 -0.8544395440814897
Ni 0.6379388020689829 1.0663031911712166 6.144113186733539 0.8863353643488218 1.3610319703694496 1.6575824947715325
Ni 8.334356321110095 3.354821018148457 9.645183686111363 0.1483613941569445 0.4321111672499332 -0.2874390490191179
Ni 9.015002571591456 3.36990186050086 5.2830646418213485 -1.0525754385584003 1.0044050495007606 -0.14460578376925418
Ni 4.478371159920111 7.418514657573451 3.7533258871232835 0.07255010345358473 1.6149602892256316 -2.8415932411554996
P 5.4060529278944465 5.706346093259044 7.76980973464425 0.8397647156781344 1.3873155866563267 -1.1305845082440271
Ni 8.377298380689819 4.17919171293747 12.548564435437001 0.6348022851976938 0.5125522434158205 -0.4658851783765847
P 7.378347765109423 3.1397364378427786 0.8049600440057719 -0.7226959609868844 -0.9102358251155034 0.396870084659452
Ni 8.89874680442568 8.109540398221085 7.775916015182702 0.21391655434993484 -0.24476979228536558 -0.1049136073859548
P 5.1828345518648025 2.601673526769523 10.309798782079978 0.7876278857735791 -0.07228425138670776 0.16015118770302095
P 4.440267385114462 8.83793960653866 6.164862125342968 0.0050460470643396965 -0.595918977868935 0.810801752786881
P 8.5999233821717 6.12409090372414 11.151593692243104 -1.4516942100427128 -1.2627644075451026 -0.9338182404211337
Ni 0.7616135768496474 5.818585171178415 9.289033892355937 0.055464351615891576 -0.34966720172140425 -0.6585880747633819
Ni 2.112842445482292 3.5060311105971325 6.570448234882419 -0.8905828267712663 -0.5489940311826221 -1.0414063093154582
Ni 6.775077555656495 4.712589787181381 10.866817727744497 -0.036698898082930344 -0.3647053270014493 -0.7733490072570617
Ni 2.3427613894820714 2.1994294852598633 12.74697519095051 0.3755939488894951 -0.38929047253998117 1.494607207356155
Ni 5.621867815335834 5.508551534391291 4.317586740922282 1.9485118163320962 -1.0147905065001426 -0.7887172621830159
Ni 7.107248627494817 3.9061116172172525 3.2082520275472155 0.3693387120084026 -0.039892979540195814 1.0467845429082359
Ni 0.8552818571918429 7.742579320205397 11.4076302451837 1.3523159306526904 0.5100307625455475 -1.4292888457643191
Ni 6.943121227583277 7.979417924316025 4.326284698908584 0.11005118572283626 -0.8672282112057258 -0.8167397155378708
Ni 4.078363684013562 7.703580919158503 8.179377843841158 -0.7614417142965144 -0.9020471186571238 -0.6965568406976713
Ni 0.9518184188095381 2.036132809715193 8.451407210169872 0.42477658126173296 0.5188820422885903 -0.04495445322350322
Ni 6.891753249425302 6.458188160632896 2.2382179230052404 -1.6706989775488326 1.2067215577179216 0.6408868008288768
Ni 0.8467929496231383 8.615624985589456 0.7506936594029493 -1.6201261496972872 -0.34602163454901697 1.0777293121162086
Ni 2.1333184317997502 6.721171760201929 4.1872104852875625 -0.7047404049497282 0.23499857183121467 1.048108146815666
Ni 3.927902156378988 1.0979711343434249 2.975663810966417 -1.4991583170619471 -0.3245747775291507 -1.9255071279068063
Ni 6.4781164165985725 5.684765517398825 12.898061131186116 -1.5360752446929546 0.8660434468690053 0.8332431125095326
Ni 6.47756868624679 8.103177597301215 0.3412579183743891 -0.5519472002736753 0.48806479979741757 -0.13437922094523955
Ni 3.3192824471569873 3.735356680049148 11.390221548836221 0.5154858721228478 0.6441981245902969 -1.4057817637813146
Ni 2.7364243221471436 7.755934811949687 13.293131730855267 -0.32025378155629364 -2.66888401428181 -3.9119730548851726
Ni 4.810870869969503 4.626276612579701 9.459479361875283 0.8146730628168292 -0.4822728757059888 1.1556424796539195
Ni 6.266774660363406 1.3440207372031907 13.412819941558878 1.0788145747605873 -0.7024837477050675 -0.8905357755834147
Ni 8.243670432533353 4.943147749924907 1.469106830523614 -0.2434667572032259 0.4350106002849153 -0.8070057760795584
Ni 4.740752256102183 3.1162205480729286 3.722635642629006 0.07787794342440137 1.614047033382743 1.7452987644425941
Ni 2.040569425564629 1.4063980954319881 1.647943529032265 -0.3757939807154431 0.607947884009011 0.12987490531698276
Ni 3.164658168848869 5.255865265435764 7.5850949765770554 -0.5025668500683345 1.3068858233443492 1.4012910749998126
Ni 7.390270029099883 5.929957009374131 8.892172214436457 0.16768683395843378 -0.05227052726894224 -0.18570846734683502
P 0.6506260627840982 0.3194007386865199 3.070887645507674 0.3690605186463515 0.9450405914995145 -0.1791243863714141
Ni 5.068934025211692 0.6641869534103061 9.149704984121335 -0.1048542149029291 0.19660685942689365 1.3881481098599513
P 8.17210033323381 2.1436522777700415 7.074290779344161 -0.5026745792907924 0.7976934975396971 -0.1377404241079886
Ni 3.08601321917214 0.6706839482663627 7.922539778819121 -1.3604023072052507 0.2423084752290666 -0.002010088451493312
P 8.29251885107313 5.542109147277148 4.667230410982457 -0.6939980788315596 0.17201605746140697 0.36658686029487836
P 1.357586192248997 0.43081456954253955 12.298553829249931 1.5469229860407359 0.34207139165201733 0.1443936677584481
P 2.1865578219929813 3.849823194732434 9.319243047024564 -0.8938992927390088 0.6327574868535231 0.51417872327565
Ni 8.266483401685083 9.080994950142015 12.513464961610877 -2.1470608870870254 -0.5135953399683542 -1.0360548151955575
