# total energy = -381177.30624005786 ev
CRYSTAL
PRIMVEC
9.18408909454256 0.00000000000000 0.00000000000000

0.00000000000000 9.18408909454256 0.00000000000000

0.00000000000000 0.00000000000000 13.44184273182508

PRIMCOORD
 96 1
Ni 3.035855723868357 5.259571641452893 9.370725302617688 0.4694749526103721 0.5255005760463723 -0.7933658166986207
Ni 8.852111736037727 8.574302227841557 2.324766612046529 -0.32985325231927065 1.754667350141688 -1.3144875469510071
Ni 7.735216304428324 1.4829824032847543 9.493583616412941 0.9488357968758884 0.5414959230333642 -0.023474428972856346
Ni 1.9069291356674285 3.2267286455795228 9.436670735281638 -1.8637559148409386 -0.4763940483277086 -0.7532388667707478
Ni 6.626173268914912 1.9413878375997908 0.657039829641085 0.16827175992762633 0.3390503454375064 -0.8777846465653335
Ni 5.913432857890674 0.20016262773584176 12.510658796682822 -0.48122489405744867 -0.11814116181982234 -0.05504757579344713
Ni 6.2204294009325425 8.734261505974809 1.4324836899118607 0.029804742066258348 -0.7157298140816963 -0.029548145970762017
Ni 5.312922014460646 7.218877636693953 3.850953725219453 1.3592795064547172 -0.3126592570384873 -0.07774038940527256
Ni 8.322088775691626 5.743159847809117 5.665077641530131 1.528672267360664 1.2622591857739098 2.0191999268762775
Ni 5.024486515290128 5.092531430699744 7.974493967220117 -1.0535959094031146 -0.7357314540146038 -0.12659443479349813
Ni 2.9265191443095144 1.469536896987052 3.7927504795834843 0.3765442286179064 -0.14002819170090078 -0.8776375794645078
Ni 8.949380422649043 3.1646717561986657 4.24617079038869 1.0600918015401033 0.419709965372103 0.8611552655387685
Ni 3.1380838185403 2.9859953046810443 11.394408088121299 -0.3363236905349627 -0.1695280009322306 1.1308138506460137
Ni -0.14312667981192068 8.572557250931336 5.525995634514323 2.3413624954195096 0.40595224946637826 0.18239457248225363
Ni 8.739588277595482 7.203310605836982 7.642238424198352 -0.6443711598330515 0.6067885735935873 1.1996751923941014
Ni 4.124675395401208 1.3978826345999802 0.32586249866805606 0.89585307403127 1.7278666850090758 0.16891942081395425
Ni 7.635688331922723 2.069248724673979 2.8836781243457903 -0.9776331807235551 -1.4808350932727272 -0.38686283693509504
Ni 6.8023608323132185 2.4716679524379277 7.5525815105512 -0.6947784086410099 0.3242973554980479 1.1214282956660557
Ni 3.467011966116944 8.50774513485013 13.042337648275836 0.16357229756942795 -1.0605404590417478 0.25423993655932986
Ni 1.5858350160087757 4.724460695800144 11.141244082759746 0.5966198605907016 2.7089921951566054 0.23978005238025799
Ni 4.071756674576508 5.90613150713475 1.9254764034052765 -0.2543193836470136 -0.7222658154280012 0.07403851507365314
Ni 6.085726367552488 5.864362270357462 5.843478570377719 -3.3005269279149156 -1.303978162779251 1.1089021381745872
Ni 0.39032745618501774 0.39377240796935387 8.1299622258318 0.26331978737341105 0.6145846725992383 -0.24482172856922352
Ni 7.619101867186622 1.3460751885444209 5.6317421536826116 1.5143550794070437 0.6581057358103246 1.0871156384271148
P 3.7654948586547334 0.8873620872478452 11.673595209667644 1.015943132047347 -0.12171165277990005 -0.9628915036380062
Ni 4.167464066057625 2.8391417215524517 9.002862128129514 2.0052835739055013 0.7587376851017901 -0.24995853557515663
P 1.8682916732395365 8.897398478902462 6.767806615855244 0.8171685755451732 -0.3502922368999128 -2.1142824071044233
Ni 5.340428361019129 0.10111314626720151 7.419587636134263 1.705386758739005 0.3443419328537489 -0.8133589719910959
P 5.8539750656971465 2.0828411763956995 4.72284521454484 -0.8091930135388645 0.6338327221955729 -1.0094806642514549
P 3.683554416586359 5.3636457380140685 5.957679961880477 0.9169618309854272 -1.8340707290716798 0.6262675082538053
P 8.180534411916703 7.386900544970224 3.8807946672020313 -0.7505260958252752 -1.053773058410927 0.6308052482231589
Ni 8.59423170097408 5.357088298467238 11.917577881254735 0.6428259268331187 1.1066475378124556 0.3111240513408835
Ni 5.12575028061695 4.626301152555716 4.067770779950004 -1.7649725887224375 -1.0230234359328962 0.25784693718429785
Ni 6.576661845109643 9.218529334917118 4.11632246645465 -0.5322489505137995 -0.1146308346737187 -2.1458247006870783
Ni 1.4513983212097554 5.129130025369378 0.28764842274311797 -0.289342693799734 -1.181710637495881 -0.11697156699175339
Ni 1.4664143067266566 6.490478353922732 6.150355720262571 0.8998783931405793 0.266802860826005 -0.3875572918989584
Ni 6.726638018498631 5.712879906372283 10.275696962116363 0.750103920686192 0.5177119332398891 -0.327820538159958
Ni 7.338729998159125 7.397627560923582 12.240155231287074 0.3717069551302631 0.16138480299980595 0.8454226852948602
Ni 2.1194856915103393 2.786342393884767 0.3919778369785267 0.8230507453575632 0.4062633529488939 -0.9311111259026157
Ni 5.398242201281449 2.450425154578238 11.829762377452317 -0.8832487550036981 -0.44361968211016506 0.09102347966742388
Ni 5.446688270762582 0.8180268073335669 9.889096409248017 -0.357544547586952 -0.08287076865330244 0.5559977161939651
Ni 6.027894159112166 3.9255735299450003 1.9808702362157895 0.3913506975031195 -0.5581780116747355 -0.4174209122276102
Ni 2.2745314820279687 0.5875300520357848 1.3757324487469755 -1.0826318916241484 -0.06691424532404604 0.07869992510506445
Ni 1.6901846352399872 8.24424443731777 3.59944285587811 -0.834957266987162 0.3305587630267275 0.9713159802562756
Ni 2.0625810760591348 7.368357869276877 8.274260795400268 -1.3847028316238281 0.09547868722530009 0.9682738509958422
Ni 6.3218952162173885 5.2441423719309395 13.06235253343607 0.028129668356680584 -0.26396590559784217 -1.3037675894303418
Ni 2.6118171505956713 3.6813043147810744 4.840353796496917 -0.017513583403731128 0.6806298850547697 -0.3103542630543945
Ni 1.5030220854852914 0.7204109621580083 12.3067058954162 0.41004518858882927 -0.3076684886921153 -0.0690631733462488
Ni 4.32650493529076 3.983038374825276 0.09825046572553908 -0.21587599206915078 0.02020398575170069 -1.1110220127310673
Ni 3.7286207413150647 8.40104438883462 2.5963998203894194 1.6538659651518937 0.26559649922272965 -0.38864821097029195
Ni 3.2240652597691852 6.3854766643724385 4.186985765638497 -1.1676029944499051 0.02004277758348806 -0.4607946512275548
Ni 3.783018100468952 3.3160439111158304 2.1911280145817096 -0.38183427337225206 0.06724154675647774 0.8899477642904285
Ni 8.681407073773117 6.600687421936685 1.0900834021794108 0.927726525701099 -0.24030789985927 -1.1217604821944938
Ni 6.220861053115597 7.098841593448755 8.241784938283258 0.29512921857452395 0.6489158417809405 -0.21557568721991258
Ni 0.2591318263945076 2.7544827891397334 7.540994863867334 -0.680678478904518 -0.1050449907574965 0.3230182316753082
Ni 7.372380500259386 4.92347072036634 7.919328818225733 -0.021386178985259945 -0.04337553877215755 -0.3510491696705954
P 8.042846549611271 3.795820720536573 0.16527778407382512 -0.2267062499154354 -0.47943412070561303 0.1277177497646639
Ni 1.999798643647186 7.280962078341813 1.2587400125967638 -0.21807788481647605 0.4340387232899493 -0.028635661458821647
P 0.5552488976055978 6.515091712445849 9.95587575719327 -0.0022196333591381124 -0.6800171911714353 -0.14415404094381626
Ni 0.699865236653507 5.591098886216866 4.063213634987626 -0.08816081340764817 -0.11085774078453166 -0.7497791903569215
P 0.6567514492464485 4.119440464670546 5.942530807073059 0.6356474068068085 0.14358248471106239 0.5368530249447142
P 8.953173451406524 8.494097578594403 13.338031332983972 -0.10746928392827299 0.665254431039964 0.35777748953336447
P 6.2427559212943695 3.495501010198551 9.704244576286014 -0.2844036046269037 -0.1700278233867846 -1.4901831101465304
Ni 7.288897131238817 3.519618427915604 11.570792191024228 -0.11730786728524958 -0.5978750731540413 0.1141549234785647
Ni 0.3627540657768268 3.1151603323933976 12.028460142992474 0.3564772826647022 -0.6312680467921902 1.3153144137276769
Ni 0.5788180252092817 8.705478571045164 10.273748098430316 0.5813333667452761 -0.6126365477339321 0.4635349329768532
Ni 2.713549304461551 3.8580061871634457 7.348883926958811 -0.4692777489979015 0.6202179596256158 -0.8749538619847576
Ni 5.186640790694659 7.554519353330446 11.185320362694126 -0.5640457833094222 -0.6201912201527384 -0.4713408021745173
Ni 3.419539410069934 1.2529026056276247 7.174489097733532 -2.2978702285638297 -0.781697379221757 0.886925432524337
Ni 4.766634032493483 4.72514031838623 10.986393913337842 -0.3693284275957575 -0.15125028566896534 0.2197280188253893
Ni 6.962191533200454 7.747311749642855 5.843586024219031 -0.43112566340821235 2.078889115206794 0.8756704284358079
Ni 1.3254477246478094 1.6766656562302755 5.561508669864019 -0.32212425910612913 -0.6914611713423189 0.2892059111115535
Ni 2.857427242753767 1.0907024097780893 9.71257821864567 -0.9215023991682582 -1.8782319969699266 0.12151933426343589
Ni 3.8965058882563204 7.239220393831528 6.860582446127189 0.9413754839431014 0.09749700320690952 -0.4400396780683905
Ni 7.419182617809312 8.32963809685058 10.053906723191684 -1.0098257062956995 -0.965016520400809 -1.1107116805794999
Ni 3.369302443233573 6.277545250430774 12.54539302128522 0.7281466996888104 -1.9447536348412442 0.67733913011864
Ni 3.711005658610835 8.886533701614088 5.167662789182657 -0.20327501547568863 -0.0005751557771796546 -0.06879732127937183
Ni 2.6473963113861756 7.242425640892932 10.550112031017706 0.2920634351650067 0.6281158743164538 0.45849222834662323
Ni 8.637856123729604 3.968848957318479 9.703518114846021 0.13408765784674972 -0.4999414966303455 0.16313932379706744
Ni 4.643723369390923 2.857114983727727 6.4411423462173865 1.6056348980596478 1.2520938152051337 -1.6075395712815281
Ni 8.485170644085272 4.290145126935157 2.1395648652935813 0.9004882588104363 0.11380216812483626 -0.6489793480290243
Ni 0.5844221563177913 5.113608914957412 8.01882556482873 0.8908101122907238 0.274680720912185 0.2433253465293551
Ni 4.138938285620013 8.201409846216345 8.969983089505352 -0.09335238491091664 -0.4684092303500191 1.198644180026426
Ni 6.581566148636265 6.17656619186299 1.6886316057898905 -1.0429304592694684 1.2449600323738301 0.635752564926105
Ni 9.212743358846387 1.6780616377584523 0.523798903230016 -1.0149092914661941 -0.5589542277191277 1.3280925393289515
Ni 7.109192061753065 3.8679617396407067 5.6082051703904305 -0.7965208173878346 -2.4949961937189866 0.018269744843465312
Ni 8.100770598941605 0.642379268368529 11.695062099298962 0.4633336155993247 0.7164736342262564 1.608948535813913
Ni 1.4657806045855764 3.2369321684598145 2.556329640077346 -0.23269563472965085 0.11762051342966194 0.0770122529899964
P 5.0890506609683035 6.989734616114941 0.34077378557034393 0.29701820806712076 1.2314105758241696 -0.8474980797666501
Ni 7.230017936652362 5.361781367946833 3.6754430291805327 0.4652472876822697 0.5718861052894474 0.6852275317277812
P 0.6930286008010415 1.7459504236550474 10.484865507526745 -0.5518333004036302 -0.6392675200578991 -1.4654681238983536
Ni 1.158508538873674 7.070508678880167 12.38972271271551 -1.0383353836996183 0.9876910791801893 -0.2948283995046535
P 1.8645721171940657 5.443483023701177 2.396183006528471 1.3282619750272802 -0.21528926632774534 -0.8790933380744279
P 7.56663316672298 0.06185667624063142 7.521907571696217 -0.9761483686479124 -0.27195535156122197 0.21637555741338865
P 0.8899216928524692 1.1360258889988275 2.9341254068202773 -0.7399897150703255 0.5492382859829444 1.13078222607713
Ni 5.106564718693521 1.343485275446093 2.460811440829653 0.23953785446246487 0.5499839058997172 1.7441101434511317
