# total energy = -340874.94907501986 ev
CRYSTAL
PRIMVEC
9.22766111368090 0.00000000000000 0.00000000000000

0.00000000000000 9.22766111368090 0.00000000000000

0.00000000000000 0.00000000000000 13.50561478614947

PRIMCOORD
 96 1
Ni 6.534808002034043 3.095012839647531 3.7167717098948336 1.234128488975965 -0.2842588515189234 0.8105706106126814
Ni 3.8940544543197766 6.370306490753993 10.42302596081982 -0.06640362423621467 0.7787627220734653 0.4586225832769004
Ni 6.399595086524615 8.354216678624397 2.801145058819069 0.22583387461281104 1.4977640078175818 1.1015726943927093
Ni 5.853575934369842 6.8378443867559175 4.72836972563751 -1.0714951582810386 1.7288033378907324 -0.35989325032478664
Ni 3.5312412821366266 7.230444448399549 3.4400424636992564 -0.04520025068572216 -0.9600131536489466 0.44094342082958254
Ni 7.473002743429975 5.985688355809034 2.7065523066941015 -1.280192630323879 -2.0004331877917356 -1.7133687485032167
Ni 6.86471533536463 3.4777116211204393 6.320452207083565 -0.7212090920287128 -0.023852895358197627 -1.1855811761948807
Ni 6.104429896570334 1.5005837640286765 1.8625055441666338 0.20567205495295549 0.04825909211670398 -1.051285258992067
Ni 8.239738317209673 0.6625395949318289 11.800139007863995 -0.31580423042537226 0.8184518131329711 -0.9623063205584974
Ni 3.971705220989526 4.747022519427912 13.032148009655034 1.5051250761683435 -1.058099453700423 -0.8925921438918112
Ni 5.938507325508092 4.030522331714776 8.567880399005627 1.01462132791213 0.42689799848011 -0.3400134806817241
Ni 3.1225112691990295 1.149701957419381 6.831275214944605 1.4670938324272347 0.5463733057303235 0.9070047197727155
Ni 5.2400748978828195 7.08533948038032 1.4937211526000025 -0.9608708736635516 -1.8865556863442736 0.3678122480615472
Ni -0.08724107466735735 9.097541676641628 0.316332521346288 0.16390551253913063 -0.33770308738099264 1.2383805793840996
Ni 6.935316169088961 8.038104698374175 6.9814978437119075 0.1678848089018528 -0.19240696241293315 0.7912775667110243
Ni 0.8483865314597061 5.850706131822689 6.993531636322011 1.7444767827619312 0.01780874604664675 1.1999348738133917
Ni 4.989765367676804 2.460768021404883 13.259555408215457 -0.8704284633105783 -0.08934609196500097 -0.46995060669521
Ni 1.7277503206390024 3.2777112982683714 8.095670538278224 -0.6731433468697375 -0.7844893401445973 -0.7941376618676388
Ni 1.8705852840710941 8.39509521651471 7.186175667886007 -0.5820710162422492 -1.4943611527836198 0.028213743430054637
Ni 7.2033981742332935 0.22382060675952944 9.518635832450382 1.196726908399055 0.39459414414108174 -0.9457892967400809
Ni 7.06236260468125 3.508255178776633 12.318173432736609 0.16377515760885342 -1.095751459725242 -0.16300279821920313
Ni 8.182609868433389 2.054953949319055 7.479045015802566 0.5490984179709704 -0.107775245204466 2.60550914956959
Ni 5.349025890404476 3.8214696734969307 1.8829660367319143 -1.0074461503199295 0.28487334517447066 -1.5747325520538362
Ni 2.8345436547649387 5.315224968442349 5.860220773000726 0.9172904179694396 0.04598623692212725 -0.6148911480960636
P 8.352371146439733 8.039996368863457 1.9516013786795787 0.2449150596139782 -1.0765728299142623 0.8541870617510516
P 1.5185592475073064 4.860615025393998 13.289348757038585 0.13117356952374828 1.0418390259775026 0.3787962578768767
P 3.8655040714230204 3.500854594716129 6.852289367165284 -0.4415612569192395 0.8193370439514019 1.2852034532749093
P 6.754001859606619 1.1349284722811435 13.264930520703292 0.8257370339404747 0.6499543103477838 0.1639844454061821
P 8.72495641154068 3.6935189271341566 2.9181176569813685 -1.3452538815995865 -0.08535085476267881 -0.9812764339030972
P 1.1244089388285572 1.2110474472376216 4.045890078216476 -0.4970685459579245 -0.4733742876647783 -1.1148655548468738
P 8.70073380161696 7.947359880854234 10.837012972185432 -2.2916872396815693 -2.1394884740564057 0.4289782780479064
P 6.291862145244838 1.0100320816839885 7.703345460930107 -0.6350542533075 -0.4931807808677442 -0.8039561906199573
Ni 2.9304098240973246 0.31854254613742344 13.275289492855812 -0.08190120565118153 0.11381733763348785 0.37905465374458586
Ni 4.930745248411241 1.9807635554955514 9.276345139586734 -0.41167038289707814 -0.3070275126740067 -3.0197565491652254
Ni 0.3826129642263208 0.2888350145608826 9.753538859978821 -0.048720862244470926 1.2669686754344374 -0.7545951236883262
Ni 5.858688058521363 5.0284200392845975 10.697189917278713 -1.1635889881945056 -0.42454775308037856 0.08069304427569328
Ni 5.197433876756152 8.960151033154295 0.05264380556754848 -0.7847618770796937 0.675677426145501 -0.19355907373950537
Ni 4.047298219273375 7.157232186633917 7.814821141480385 -0.3376256971758379 -0.7694134196480814 -0.02067218363737085
Ni 1.9039340506479776 2.5794818791834127 5.5345064887936966 0.35224781796438687 1.732835598978577 0.06685973793702679
Ni 1.1271495541227834 2.390794668623337 10.584579234434868 -0.4298668513004468 0.027955090452029274 0.05790227163342286
Ni 6.45725873963445 7.843207272012705 11.125087627486232 0.43200472357905606 0.054102952491990694 -1.0587496856899121
Ni 5.343913766252956 5.422607258607041 6.549993040849461 -0.8118250518450728 -0.6989114569727769 0.05387309586937173
Ni 2.499588790909296 4.330107571251328 11.2719209363964 0.23192893176695542 0.31626702899440373 -1.1493368491508658
Ni 7.240410322196736 0.7574857664701596 5.528753042208006 0.5553235729450758 0.8618656613422319 -0.8800829556812069
Ni 8.659163189157399 4.752153098901278 0.6242337289069372 -0.25321997993524775 0.11191240730129114 0.8721269340589238
Ni 1.5428187680747185 3.4726456352735355 2.123784917678294 -0.4975118041429303 2.0777040937597575 -0.20201311804412952
Ni 1.209718664064663 8.503990843070826 2.7449486037960424 0.3495797842139205 0.35168706036491043 -0.6456119742186881
Ni 0.09824413755232576 4.396546729899242 11.663421983624064 -0.2943838557680672 0.20826475538079617 -0.03159782941093913
Ni 7.7953803054471305 5.647014744601293 6.755697903684326 -0.7874651349434696 0.724132693433411 0.44908430476916206
Ni 4.77710469403794 2.2974476507230177 5.402245502013639 0.45354439742304475 0.6219909923656385 -0.45555937097054444
Ni 0.3362162851038609 6.832104781661611 13.0475314431803 -0.18162221309260332 -1.2836301952505182 0.2171134640206777
Ni 1.3778097354438856 7.245550129331026 4.742469591528345 0.5501543700393106 -0.2698347056737933 1.5332439458917464
Ni 2.9279737216135677 0.22337306520474837 4.664271624565843 -0.13639727981653282 0.03296514207211097 -0.7368280295128923
Ni 8.040734581737322 5.524822058654672 9.647938431138423 -0.9070384012241282 -0.5297534377854554 0.02776122927366832
Ni 2.733629954907496 8.533860781479618 9.607232450507377 -0.9786518517960564 -0.5901507079265902 -0.04406793685349185
Ni 0.3942785731655837 4.783545601362418 4.592597613876128 -0.0234155507104629 0.09526322878038432 2.1639928869556733
P 9.191866826599819 3.897625559097102 6.852802425112621 -0.1356560307751341 -0.6104601089079035 -0.9838639921246153
P 5.478314647601131 0.9078274320633732 3.7885140052753807 0.17104263780454412 0.19163383169233447 1.0654016437887908
P 9.070606134406452 7.658940111034901 6.383887762100938 -0.5670010092830041 0.9190824768728559 -0.4520968663432407
P 3.112508484758149 7.7345331093187495 1.3002447860207231 -0.4742821441910284 0.15024421300195415 0.30835471612586246
P 4.0487469620383365 8.478402539330457 11.479961320210958 0.6686991950554547 -0.07522327941037368 -0.33223306540535685
P 6.928100138246924 5.082115798197405 4.732393908566171 -0.48150797251550626 -0.8267526196891826 0.22593646162894637
P 6.1169702877651275 6.436948657942221 8.383948202119338 0.438818918287412 -0.5896344304118039 0.5376171568042483
P 3.5017496778256914 7.713392538143419 5.836951380450387 0.364806628466004 -0.8394317578187479 -1.3171830915052993
Ni 3.3534519391269932 2.5123506459662495 3.481045575012035 -0.1445366210942156 0.1392892566523472 0.1005159925388914
Ni 2.9733184473907692 7.073574212703085 12.72646236348207 -1.368697200224191 -1.0823922648095166 0.35558048188204566
Ni 3.920048775140773 0.2749353889120836 2.32835477821959 -0.31586156602586896 0.3028965212247686 -0.6164911455933318
Ni 5.241089940584386 6.663810701742077 12.711484024271337 -0.030104789805180412 -0.8834048209655883 -0.8012534469768137
Ni 1.2212901508625083 8.554973669672176 11.819249493636192 1.3432885303430995 1.5519736610907657 0.03515726462742332
Ni 1.4606925858571582 1.3802550655885657 1.4365917810576274 0.16263538757745538 -1.4401684687913003 0.8588867812195659
Ni 3.5521419341279494 4.381524097916075 8.986973075160114 1.4407788486817896 -0.5137976857871474 -0.10588625571186926
Ni 2.1944854101405977 2.8050797334367736 13.135398153258262 1.9302430999298952 1.2994005707108975 -0.18837521554572073
Ni 9.058914688016603 7.39480754476575 8.770721918655985 0.251133015499232 0.3648269401809781 -1.9590165725181616
Ni 5.091057401632103 8.537671805440949 9.385483453625133 -0.08660503888475407 0.7095794782095844 -0.23302730703745672
Ni 8.820960995786916 2.5526201582356243 4.927226741301179 -1.0967084243218725 0.45181815876055736 -0.5068557072516755
Ni 5.952478004146001 1.4229422250198505 11.164700130297867 0.6029054364890972 -0.48330671628714184 1.5409497991764365
Ni 8.456588348907724 0.9729830230768531 2.7904898787509103 0.23043589216119667 -0.2474745928110383 0.7094560652578427
Ni 2.9628450522427996 5.382596120843519 1.3797069425297204 -0.6171719737104403 1.5543778996568842 1.5244636285959554
Ni 7.181990000891188 7.8199074281813195 -0.27961381300020755 1.8655286904706452 0.7618777733926685 2.475225953070595
Ni 0.6982598703660059 5.990016128782072 2.706389899861852 0.150169908120593 0.9525297007877079 -1.8299795897214417
Ni 8.391099639334913 2.3215226180719633 0.757953608878972 0.015450530227115325 -0.27833091607026256 -0.2918747161929683
Ni 5.154977408847951 9.240118265567865 5.759266471435221 -1.38315862706516 -1.6610683964376038 1.0981261306050056
Ni 3.4604005292282882 1.2704735835838112 10.929607935720501 -1.184224147946354 -0.14298676010859246 0.7084677332026443
Ni 8.192843344397353 7.445430492591091 4.177840092823417 1.0653142262813071 1.2820047438319535 2.069737787724829
Ni 4.641799501919278 4.746441176789743 3.880405821048092 -0.7245633532129263 0.5080564124279959 0.8921257457783539
Ni 7.439257187433388 5.804383273987616 12.158362341503885 0.5581001072489485 0.3243078970210092 0.20625723803246415
Ni 0.26641548958158096 0.781399249752947 6.203804422585767 1.9027194405883294 -2.2680837413300163 -0.1593891127260158
Ni 1.1505970405289432 6.505620910533578 10.575192857743666 0.35943096597638746 -0.9947402727174868 0.43983527536706835
P 4.495762540146794 3.2013062658232703 11.017555849214586 0.2254950032161536 1.5292283969744502 0.6875728920315062
P 2.3587470022366417 4.962211572159766 3.6527012918059363 1.78736741147787 0.07644429630166835 0.18362304557271603
P 1.8055118192398316 0.978261245124993 8.426881740097276 0.022253154971245546 1.3026275622886276 0.5060015867814963
P 0.8960769286436159 1.3566230259639398 12.685567215802097 -0.43166225263797275 -0.3958735250741376 -0.9128712058558214
P 2.3213842031581136 6.114764876804454 8.838262860018144 -0.8474849671405275 0.5949507004183948 -0.7484910676731173
P 6.3465175808936705 5.307593692858762 0.6749129654639106 0.6446889481837864 0.06051399822465706 -0.863383383538339
P 8.12741000079008 3.3203338640731928 10.147403111168947 -0.13329318696991238 -0.055473350476956076 0.25093915432087105
P 3.5533138470652115 2.407902751975175 1.3730482624074518 0.07352917953740239 -0.5558925580746684 -0.2805855164323942
