# total energy = -340868.28568807605 ev
CRYSTAL
PRIMVEC
9.27754358732143 0.00000000000000 0.00000000000000

0.00000000000000 9.27754358732143 0.00000000000000

0.00000000000000 0.00000000000000 13.57862282852449

PRIMCOORD
 96 1
Ni 7.493267604283864 1.7513682333785079 5.690229949095504 -0.34125712328083807 1.2145066009799794 0.3815789628283364
Ni 6.424717279041628 5.219156194585865 10.043944434777307 -0.1353683243313862 -1.607769427904147 0.3459491294398687
Ni 1.5648988909196302 2.863532289597368 3.1551690794571665 0.5120948441634277 -0.33296068760000075 0.5182696055155719
Ni 3.296858503748659 6.4387820346597024 9.227366618594113 -0.46095508806481905 -1.778606377455788 1.0439187913246666
Ni 6.9106749962412914 5.072914279805065 13.476945319688141 -1.0579984093461843 -0.6686403167930614 -2.3181181801795883
Ni 9.187309897712453 8.006844567839071 11.729688893492964 0.043616451138370045 -0.6432239336024858 1.1577978354340255
Ni 8.931490919207997 3.5748786433309863 13.074719286132435 -0.40345956495151164 0.7558955876673047 0.018680864238954924
Ni 2.9442561937087515 0.7379942413073596 9.9876195417477 -2.34221455900716 0.8588230178611661 -0.42724972539257383
Ni 5.054498356386942 5.808011144344928 1.9691585619631216 -0.4026902908856549 -0.012461622802120473 1.029527298489685
Ni 0.3555395802435238 2.6515868132814786 10.785785145530085 0.714231375159299 -0.20314208944225015 -1.2634084688870046
Ni 2.5648974488386833 5.155614300635874 3.257104230778049 0.05110453198529909 -0.32838978039986666 0.0694930617948158
Ni 6.29064750104903 7.010009652179755 11.624591027666673 2.6842710382608415 0.07644583896356512 -0.09930320317771285
Ni 3.187411325630973 1.8740544657620195 0.517043981480321 -2.4943423621850718 1.040336216179731 0.3657281118390089
Ni 3.7533136333061887 8.837444462941235 4.951268060023655 -0.9084285967034356 0.18293990346276234 -1.4029080417779451
Ni 4.473918975236929 0.43328632071517115 7.036510026815287 1.0134183087429642 -1.168474341311265 0.16218081653854005
Ni 8.632689082670204 1.1748153060136164 12.44579833794843 -0.017291697200912157 -0.49708602945942143 -0.12135915453648777
Ni 8.82350031538585 7.48405500380316 2.743628392444635 0.8682445682853821 -0.4539295486766053 -0.024895734800415188
Ni 5.978884936543924 5.625679586190577 7.433630628301978 0.02098174445798967 -1.1696328803957405 0.34607562771540396
Ni 3.543427771599278 5.103984772262142 7.4144168361614575 -0.1943427459830653 -1.0187806014961422 -1.2475347350795418
Ni 7.3327846605626 6.044811159117823 4.058487286571218 1.0904783842517605 1.0361720574997122 1.5715896355494807
Ni 5.767032235660872 3.760976884058516 2.6427119153763017 -0.10549570514166992 -2.4515643477875972 0.12902284172933262
Ni 8.610534309308754 5.670759169006024 11.722600850424225 0.3867669347871791 -0.6058452358437114 -0.48040471214899844
Ni 1.073374647749754 5.671529205098571 8.279537542067903 -0.11641543737796724 1.178219850733803 -1.231249624766273
Ni 4.792491256512262 1.6204620976456472 9.040823055788966 1.8633656213810554 1.0895443024732656 0.9818513325699605
P 0.5041352077553953 2.042720202659497 0.7155064041420243 0.2783651117423077 -0.8508106890796507 1.1017405874291413
P 5.813540560142007 3.1735599535084242 0.3114322839642066 -0.1126873377941027 -0.6328901557766455 -0.5678019079177447
P 6.720216310170427 3.8099623125963973 6.330666184003225 -0.13018600879949838 -0.12799234358228925 -1.5201277202247625
P 7.7348919415642765 3.5779680652444545 11.19642962186141 -0.9555651451799221 0.4720486268748193 -0.23826772950078967
P 7.602390068386621 7.247709588651167 7.641559856130359 -0.9000969369092886 -0.1575731425631996 0.2420066277179316
P 1.403488192869998 5.285518461694096 12.948438933480823 0.9982755395642549 -0.49649853238706754 -2.019063401298413
P 0.9150190447034412 2.0974855406631163 8.5975624482895 -0.8448071631980484 -3.6666455903241237 0.5651297604022203
P 6.61285657929157 7.028184359472504 0.8116783455750792 -0.015900730390656488 -0.20058255624519003 0.027656071154371725
Ni 8.49002829959691 3.215559391953687 2.424856643988702 1.206708187981483 0.3087426955929005 -1.3779161477192978
Ni 5.585711929724442 7.139858147978275 9.179895285120129 0.422161255126073 1.3044293913840566 -0.6646072843742683
Ni 8.9407035196887 0.4753692570499873 7.490918530324435 -0.0024253216120409845 0.813672646576773 0.3089928639304937
Ni 6.964113645555344 1.7533721827277846 10.047488456311678 0.9043420853388877 -1.0654252979378749 1.4348298301872062
Ni 5.918673680632779 1.3275886112661335 12.190018325125765 0.7782685560458661 0.8208845909441798 0.32209674830230334
Ni 1.9490726807539336 0.09437673680766102 6.572365669384235 -0.9556278800970575 1.3820422540725295 0.12775760186366383
Ni 4.341741816074203 6.487312863576682 13.578256092346033 -0.1104237385709066 0.23272185998189596 -1.8045274681969243
Ni 1.5473365014836056 8.128853539562872 9.020659243216194 -0.6272679244938616 0.6817524286949872 -0.42033937142598576
Ni 2.547353614489226 7.293726203338268 6.963456795490858 -0.007347955724638959 -1.2486593356022884 -0.6176651112967749
Ni 8.566020656633611 4.693425649329025 9.36522998403541 0.6972687791630314 -0.2040507172994486 0.39363743665476725
Ni 6.798509497941483 8.782372966009254 2.0490688255285257 -0.6608485886627845 -0.17520396827108536 1.072375761113779
Ni 2.550712085157922 2.6730828810697878 11.859487290557754 0.18394880434325092 -0.4354458880501211 -0.17222020305241306
Ni 5.496063028974149 8.408645689912385 13.124906156525553 0.2983790929703894 0.05857821465452492 -0.44352763661699096
Ni 9.127274915123698 6.0312195582072174 0.5510164894765357 -0.5854461033620691 1.1803510381441928 0.6042858617763915
Ni 2.182523502401416 0.584301531515429 2.5232199411453644 0.3402757332041753 -1.3479057174001368 -0.5018590253680324
Ni 4.8659508442325174 7.427684650811463 6.411581205506253 0.8590302487759659 -1.0348543671295534 0.3206970397412993
Ni 8.158402514921423 5.460446540308064 6.511573639263531 1.2183118336586825 -0.027273748114288513 0.44903622514004604
Ni 1.3501887067052012 4.315838915226141 1.2117807494731494 0.7311206947154699 -1.3319674489033253 1.1097953394128177
Ni 5.393295682020718 7.446017076340032 3.874971913893867 0.2646230795658668 -0.30903400158107425 -0.43808049745949074
Ni 8.580029746991983 8.402179242243653 0.43050305773006425 -0.3949060189545457 0.7483216319747886 -0.30485544472335235
Ni 9.037830120325646 3.2388460255957483 7.2896561450997135 0.6210857069425497 0.5977143792064609 -1.2726081331084018
Ni 7.005073999152833 8.720092817945845 6.036322207013247 -0.09445255995363089 -1.2727906814328531 2.3822474065593298
Ni 3.6599351601558525 4.267558579977821 -0.06767967825451578 -0.09355575917097436 -0.6468052231958409 0.06248834834220851
Ni 9.13710911100441 0.2068743711570246 9.947020084583945 0.6358518095081308 2.6094658202244934 -0.23434319763540284
P 3.791017569211103 0.8002252183913644 12.131820296107179 -1.2519814579969857 0.43616348294243595 0.6541812039449378
P 2.7706269711545004 1.4759365283723305 5.111753787007903 -0.4198547184800834 1.0482811820584206 -0.13515209455552207
P 3.5750085289369578 3.651093661406496 2.0264603803005024 -0.33545002968075777 -0.2072936497167785 0.3754959898590501
P 3.746448251276258 8.346411929565393 8.792986475525794 0.6065798000168908 2.4197407755190974 -1.712611044401586
P 4.470838830866744 9.02343137314936 2.547444534413406 -0.17968900062563248 -0.6286293236177625 0.2614128001586853
P 4.60910205842357 6.010205922669661 11.143269298845869 -1.765972747852178 -1.4558164597412024 -0.22182706744626313
P 1.2642415457251006 8.070850338953244 1.308552947956659 -1.6278124625979513 -0.16376975829221474 0.9789279882755787
P 0.2441598898598448 5.24697954689365 3.051401613337755 -0.06565054812027403 0.3448324993369222 -0.33338080585655483
Ni 8.12575484010612 7.449635318220672 9.751827068175414 -0.8625156362214049 -1.9396813625246594 -1.2343490896272031
Ni 4.841884896954626 2.536860713035373 5.7130833214662164 1.7634103864416404 -0.5582818842424514 0.015520721343418432
Ni 4.859818388121998 8.975735523127913 10.64409201022128 1.858807826807044 -0.8390190957613615 0.4087375255209993
Ni 1.934534770428392 7.214755754907501 4.370700739679911 -2.417218523317876 0.7483257457398468 0.29560821509347157
Ni 2.4506166706701946 4.8655704649578855 10.833404919696607 0.04513005956941905 0.5217575640641724 1.989653323567412
Ni 9.28858356019721 7.616714595216639 6.266208596531135 0.8426836890971423 0.001475556104261975 -0.43713510282708584
Ni 2.9973701290078747 3.6806890244814663 5.257465954067205 -1.7064931044293064 1.1186903279096023 0.048287117141161996
Ni 5.0090105616670115 3.6238176841524488 11.48432385076057 -0.006369650971769674 0.3453207518272504 -0.4467854814326564
Ni 7.331708465541693 1.4697484070021094 0.9497096345498134 0.34870175248434143 1.47083581596817 -0.1308056446613683
Ni 1.637504944657785 0.1849079319242327 11.875713713760927 -0.39970061212971164 1.4068541709098867 -0.10726359567537011
Ni 4.131401354746392 1.8218497297046978 3.2698135373223756 -0.15907338125780993 0.598896058219388 -0.027142364742746807
Ni 5.056094093831736 0.8079793890678721 0.7340846845676127 0.20619630288754168 1.3457902137190307 2.4138925442684362
Ni 2.0076510890471497 3.7196918164460975 8.882944318467434 1.0366240574354664 0.8990070462792195 0.7259486635962271
Ni 3.2769210632320105 2.282758080038398 7.5942518074181695 -1.7115949444322458 0.8585453387197473 -1.5447871706446556
Ni 2.8298733625641423 8.479925054960972 13.640540879181083 2.071008941127769 1.097756920191045 0.41754098274524215
Ni 0.5346796635082867 1.8240113972897976 5.174120216223851 0.6215564759313811 -0.40461219049871605 -0.02108201748127982
Ni 2.934236446962367 7.362890288518174 11.634109787075738 -0.4170406460700559 -0.7576591073256307 -0.884312163271206
Ni 7.340021144323878 5.274673013595463 2.030153770281739 1.5468646219989748 0.5003909254629383 0.41264534521583773
Ni 5.4768770694634785 5.002859550469925 4.7538345169121135 -1.2145441390861342 -0.47242066550225736 0.8997608937261085
Ni 9.083457078194831 0.7792134383624642 2.7451359932282346 -0.34746016676775643 0.1520043902261705 -0.22558782004027603
Ni 3.1141001786032576 7.146602921945518 2.063204090475555 0.16300974019773862 1.3112217317155417 0.5212762535523797
Ni 5.903634782969918 0.457671415482021 4.438661527495923 -0.4126355750238248 1.0975358053191742 -1.732893705910022
Ni 8.606294472028107 4.019375019595839 4.69489057341352 0.4360678379048361 -0.6789033892819664 0.11054200931632575
Ni 7.01195793626933 3.2220165620791352 8.381798335158043 -1.6276641099455451 0.4647618634054189 -0.6964167155753813
P 3.7180960790013025 6.366027540229008 4.780733825908842 1.3038704335567932 -0.5640807503124157 0.8468833290007867
P 1.2385149181994295 5.168064763722586 6.170356730341368 -0.3058702591411119 0.05982468546711632 -0.6158537691196491
P 4.429878477269254 3.8623897096925277 8.988994060234633 0.18170603105566124 -0.4369075601973121 0.3575098376942746
P 7.074646296237221 2.036578469005694 3.3699970884712984 -0.7107819831581178 -0.607903918144953 0.7650422871635791
P 6.618951925228955 0.88734134982521 7.967094005885774 0.3864303773833667 0.7635111952310335 -0.9493361335510747
P 8.39125957379875 8.712782113838298 4.468928584704632 0.8353341907106064 0.07730124498532494 -0.29371356917392
P 7.247357042006387 9.038757874654015 11.089497585727933 -0.21539442444704193 0.25316213011411887 0.6924507889490978
P 0.9595948569185846 6.505960725576898 10.284054676993822 -0.3080017036618179 -0.09770114879791561 1.1269222289010914
