# total energy = -340871.22357302636 ev
CRYSTAL
PRIMVEC
9.29028656636933 0.00000000000000 0.00000000000000
0.00000000000000 9.29028656636933 0.00000000000000
0.00000000000000 0.00000000000000 13.59727346643857
PRIMCOORD
 96 1
Ni 6.110992459080131 1.6786246884783471 8.446327054547506 1.4311742357124901 0.23314917732730167 -0.18954275349126065
Ni 8.988835186935354 8.799239022083258 10.047161387912366 -0.5026897487994438 0.6461007409296485 0.6380999821123591
Ni 0.22302540240537586 1.9162237631594718 11.109013252578192 -0.7218670373276859 -0.503951646231003 -0.7790414296561486
Ni 4.93430336422336 4.9329191115497535 2.5567908684997844 0.2905449416379512 -0.18587481772137018 -0.6755005342480044
Ni 0.032346919187673136 6.4222263437680045 2.92136028741031 -0.42119092079300363 1.3518636736066203 2.244323405685625
Ni 0.3459656203944379 3.485882682451703 2.4269776966319694 -0.5842515688333357 1.0987632499683724 0.691097617355313
Ni 6.4847871323859 0.53652983308942 1.4107578607058786 0.6451697444749469 0.21848643310880436 -0.048654270672593626
Ni 6.714071400738986 8.642298213927315 5.6289715233856885 0.7403666387937702 -0.26273923227959267 -0.3191579773889536
Ni 7.397492739185421 3.839285177109376 7.892333341083284 -1.171669451209795 -0.16101507836521303 0.06680703032222042
Ni 3.506154087376599 4.917543687557681 8.56753277606568 -0.9138199429223359 -0.3931255300153552 -0.7300570293376458
Ni 7.177461596086779 7.890193788125354 2.959731957328412 -0.474419183989525 -0.7832235860582963 0.25202184586208853
Ni 1.3845499627713547 3.803824153920408 10.961306060075254 1.8355935934741097 1.666963678876116 -0.5184930343802877
Ni 5.443169511499368 7.027321277575669 12.217394587649999 -0.831414029720594 0.6376284417925793 0.4677170893790009
Ni 2.8115565343909106 7.163767713933114 7.260876290586854 -0.4984985935362318 0.8126526899526908 0.8953517089148194
Ni 4.468832144721956 7.080294490628719 9.715455428113355 -0.6204254476507315 0.8423088222562268 -0.15655832814544005
Ni 0.13342709327743166 6.681639010916433 11.21618692551774 -0.4355680154502821 -0.6842667104764086 0.13463041772409717
Ni 8.839205834176246 3.887130152069602 12.508430460675537 -1.3959007572221764 -0.4662800998221583 0.29145665481894323
Ni 2.86633206300557 3.3926267875680614 1.7934665638124907 -1.4065708353415132 -0.6078550671848887 1.6225031345698961
Ni 6.9763733469578275 8.735962881412558 8.3986009952532 0.03404654806174782 0.0222104746587682 -0.004032261087844668
Ni 7.605149220799205 4.695905324911831 1.2484333315811105 -1.395503521783758 -0.9389463056763185 0.8628339387927721
Ni 6.68325552075004 2.3396564367006762 12.464335045306369 -1.2602964056205845 -1.0694773565200615 1.9500344236242095
Ni 2.3114975786221432 0.5099986331881744 13.566094264232225 0.005656684065145097 0.7914421173133466 0.07261489525324913
Ni 8.77674723870875 1.7250482496193666 8.693675355776838 -0.11572381062758134 -0.732598564812577 -0.3607126609022885
Ni 7.700746267855656 4.0161629398798135 5.078704143796524 -0.969451159133395 0.005520929818229201 -0.6804612206873893
P 1.1779154126615765 5.209360873669462 12.750203661036203 -0.14976470226237434 -0.6593606912633483 -0.4758140074545225
P 9.036289969866779 2.316737300151768 4.399995767640831 -0.09730982689676788 0.37718417619475036 0.054588376768841464
P 1.6422160560765746 2.299429496588486 8.580790014758543 -0.5807348139293289 0.0847697854482282 0.5995244358320062
P 1.023845303003247 1.848906347904753 1.3395013640175415 0.9307496287981389 -1.1777915049471328 -0.008013871443412006
P 7.793128875817694 5.14964291268998 10.435308624677562 -0.12461674224183698 -0.6573799133878936 0.19313972681389963
P 5.105235343697769 3.5525962290904185 7.705873576919841 0.4412496392160917 -1.1889655192860813 0.14663901214919908
P 8.240679132853412 8.184147740109145 1.1060346087271562 -0.0649936312625655 0.09329556353105223 -0.9129707075481631
P 1.8971415148937814 8.575714731298199 5.645424620600167 0.2857801732594562 0.9331402405175027 -0.4941863393141231
Ni 3.302557460919635 5.5882837850680565 4.432316674026583 0.5870003352230665 -0.875946050694698 -0.5025185133289023
Ni 0.29958572359949825 4.0115642481117915 8.851076962138222 0.14317007976399213 0.35401288028460964 2.277828479421606
Ni 0.8147441818542571 8.925939948007057 2.1324328824331356 -0.0039260745272835604 0.70914676154754 -1.1696166824458243
Ni 3.040264804987193 6.061716780014297 12.317633990820555 0.9311584342007835 1.4405230239172417 -3.8969971503016305
Ni 3.8033038978820057 1.7414456051154443 8.292501279421499 -1.011923983585625 0.10186119371287619 -0.3003714408100698
Ni 7.852670321355576 8.173612555331495 12.296925013406216 -0.15165806263034526 2.4786414065100475 0.9175706682140198
Ni 4.811365004291578 0.1318904799068644 12.27890836099061 1.3585541982529183 1.694048193797734 1.1304700941533499
Ni 2.2197281295625086 7.54288572134611 3.7830194865561495 0.34914989576535355 1.6954463596968414 -2.5869231590372865
Ni 6.855209431728454 7.104486396414434 10.330419433163787 -0.11663989468394752 0.45283837249495557 0.4125666694591024
Ni 1.7327777679042031 3.5259981391270925 4.613636122724882 -0.06917347367186796 1.090632907551754 -0.8178599451852431
Ni 1.7754945047716055 5.955027130996192 9.798181712391186 1.186271517393686 -0.41125360707463365 0.044931827515683906
Ni 4.043968767075145 8.0475154980237 5.192920782855944 0.5749922550185969 -0.26109835424206 0.26151538717482053
Ni 0.3308596147079663 5.865375867235768 0.9613421141610312 -0.15984162688240214 -1.0061400299139962 -2.193302434553068
Ni 8.309501574504939 6.504473249267593 8.604273071691935 0.09226506538400883 -0.7862528598029233 -0.5154331645080413
Ni 5.561286212789528 7.795507189136106 1.0688474503250602 -1.1333183622354224 -0.17567782258371034 -0.3402119698457754
Ni 4.787423936238664 3.3383064829870044 4.926835832015005 -0.8832801224622658 0.45560025151080896 0.8723845585956846
Ni 2.883500512272851 8.536788431282014 11.171369654895287 -1.5775173138878251 -1.1017773542043476 0.476936808205056
Ni 3.6568889842173125 4.648812863150009 0.10839534560115316 1.9180627558136192 -1.9670831515763798 1.4318357805558888
Ni 5.430088788248107 0.6804595951421014 4.031795704805168 -1.3174373736079503 -1.2251782217612126 -1.5777654253428892
Ni 7.746714604963074 0.7670236967317912 3.4012082251157816 0.7886486137286096 1.8984791772547367 0.6028635275075681
Ni 1.6793493308175504 1.1798570825191856 4.338128034388378 -0.3695575128874281 -0.712299962464541 -1.4428349598798702
Ni 2.5306925959447804 2.8308431689574016 6.676614824031288 0.33493066684217804 2.3012131768941337 0.23220763934963878
Ni 0.08351595862183539 4.092473352369774 6.694644482847854 1.923693471736835 0.4299635247793111 -1.9823038251808762
Ni 0.16037356898075925 8.063151050034973 6.844976181258805 -0.5321949573474125 0.34508112501261856 -0.23411591211594518
P 7.40140394975984 5.5181885741797245 3.3321748939629754 -0.8758486058848851 -1.1435171571452951 -0.5022174371487157
P 6.557130592583043 0.5864298194013362 10.78286845821825 1.4468294257512437 0.1863036777286727 -0.09617365640979567
P 7.2066981273877175 5.738080362982366 6.7823745153807495 -0.2639741331279583 0.2544147715742973 0.29994746589877375
P 5.550500190279077 5.744499950884796 0.5153925734720399 0.7662280799415643 -1.5294518258391658 -0.855491896605404
P 4.419621497660923 7.898248466434191 3.025271211766162 0.7510549717455517 0.14757592214117166 0.8809638156242635
P 8.056945138719744 0.7277731657202454 6.788071319001256 -2.537653366267881 -1.1773143082003983 1.1830198432256078
P 7.297910159263349 2.4926024217046003 1.068398729491938 0.1025672186409653 0.7638935182711166 -0.047259704317912155
P 4.2956612062251365 8.851413270505905 8.1030909202974 0.223410352772983 -0.5136627028711799 -0.5302720292930868
Ni 6.2131298677622135 2.820837530504554 3.202429541185881 1.7211103401218488 0.12808850284052134 -0.6464987476990156
Ni 9.23289101066451 8.515653029721914 4.301524305972205 0.6724015836077065 0.24841664500933347 1.0026183899139829
Ni 3.589878148413795 1.0642487585570384 5.60176399063452 0.7231549029011738 0.038123803454914985 0.4019595833672174
Ni 7.481188929363418 2.939706744993117 10.534487077141232 -0.036962693267278274 1.0164732935192042 -2.0504136334749203
Ni 5.6185236673002 4.626757723236304 11.931756371022887 -0.11980338001359368 0.07455839213286515 -0.04132045601534174
Ni 5.012295318551729 2.8324503885046095 10.319718881288214 -0.7197582185147992 0.19782247700154962 0.4370052621174409
Ni 1.9140126749962614 0.09217357651803637 8.927915062895707 1.0005594505024251 0.7861957813127427 -0.19777156915895616
Ni 8.224486163658137 6.506405628838802 5.064562469838377 -2.0546716374203258 0.18249021751985345 1.0438622270551186
Ni 8.82092255054096 1.2542629862971377 13.38966986743811 -0.6059570788312273 0.2840107400638593 1.2631081640377666
Ni 7.616102468464856 5.992299760033169 12.797318419485386 -0.5721303600897695 -0.7951121099657662 0.010226562824014645
Ni 3.747887339505743 0.45312628693302515 1.872983983167747 0.22654144220279698 -0.5096422688578771 0.914923974619792
Ni 5.706632743518216 6.449855655521735 4.368790624651723 -0.17509598193831133 0.07293036961113891 0.7014635339706694
Ni 3.0726507433777464 7.00850844761558 1.4748691981239423 0.26011310751065525 -0.9930914242601542 1.0817947404348336
Ni 4.541872376399102 5.174661653965297 6.405498254076084 0.2472802174120451 0.027642187197300782 -0.15808453498197936
Ni 2.6677521912046296 1.6628869433166726 11.063189843938614 0.2950171184766919 0.27061092171818557 -0.11610253412323876
Ni 5.7107576306798356 5.172562049238888 9.22897236786097 1.485517843460377 -0.581504859326134 0.5301218768684678
Ni 1.4982816488806932 7.352713558737209 13.332371097037196 -1.5468566515791746 2.5040166520500424 -0.7316750245570431
Ni 4.551738660555949 0.4407516254481666 10.042239394177622 0.4763575386628183 -0.9534717529860032 -0.7151181486396264
Ni 5.011161903610924 2.4661065248916754 1.184771644024809 -0.10472591685518093 0.3010666671048815 -1.135459062727509
Ni 6.510995030320424 1.7822949944164377 5.689900937711737 0.8083959715588658 0.9318546889368596 0.7683883208176767
Ni 1.102162417355618 6.219168553922243 5.083408744829505 0.14579800430514245 -1.3082158550096825 1.928137366440802
Ni 1.8454782322231367 2.9363250807435013 13.10699618120125 -0.14542570856738826 0.019544497790830853 0.638727588394029
Ni 5.372489012567835 7.217512020757369 7.041933040025658 0.8621711083977927 0.24444711883862422 1.0140600560920214
Ni 0.6245042001546365 1.4604423123733141 6.490033357116005 1.1880257810806314 0.21205687543337673 -0.25952381066608854
P 0.9361542896732319 7.537868966690085 8.771790870914327 -0.12842171781022396 -0.5626525025063213 0.38479001356646636
P 3.911777281888919 2.2385316692361976 3.344792960951515 -0.04365167525167966 -0.8046884408002917 -0.1539147198750059
P 3.5776892926569372 8.076547643023835 13.302851212001059 0.9384444263392354 -0.7612038872540955 -0.08791347328353247
P 3.626714133989969 4.534783887875869 10.69478539480215 0.19363466417244718 0.7006970881182901 0.12203895421233175
P 2.299197239428485 5.1737790767572935 6.570637739980067 -0.39184743463387994 -1.5547275696868192 -0.5681150682827892
P 1.8678213710152427 5.278183315320987 2.664534965024295 0.7983951515924121 -0.262072031009239 0.37068519873396805
P 0.8089005917086294 0.1898702283008989 12.107052927048038 0.050677214639893366 -2.402921389968913 -2.056056947803627
P 4.037344792871913 2.376938356024053 12.777819966388973 0.17401868971373255 -0.007395264022806618 0.040495903231517354
