# total energy = -340887.68441669014 ev
CRYSTAL
PRIMVEC
9.09770871430101 0.00000000000000 0.00000000000000
0.00000000000000 9.09770871430101 0.00000000000000
0.00000000000000 0.00000000000000 13.31541631387092
PRIMCOORD
 96 1
Ni 6.652563064794785 1.6087569376612536 11.48747579132925 -0.47032547353612547 0.7401259835378737 1.261847295047472
Ni 4.56764114836707 0.12324938987834883 6.347632430988081 0.9172775624536331 2.3139820465240275 -2.0001930467564715
Ni 3.1083595656253404 1.898236932681603 4.7711932841534015 -0.6173156983771563 -1.7770284914457073 -0.41999535782300573
Ni 3.681042136621945 4.250931711029366 4.821884807590778 -0.5463447664852332 1.4580857153913533 0.22477766543415484
Ni 5.4172579740045945 4.729771416171138 2.894518831002825 -0.8256413889028749 -1.073323983959661 -0.41737026149533285
Ni 7.252538762070062 6.16700925058846 2.7024571013798133 1.4538125419372963 0.027444212253881765 -1.0212542598476155
Ni 5.073619318738601 4.455921284799708 11.432776727183288 -1.2932299231238116 0.2616388001265623 0.8779725942064235
Ni 5.762798050401336 7.899267584660702 12.42169857911803 -0.4452435908668332 0.33401046902075376 0.2711493107201588
Ni 1.895116418577075 6.680483932977866 0.24617126224135358 -0.06332369975931029 -1.431321817033948 0.6904949507743077
Ni 2.229393531529484 1.5006579621801954 0.5233074860167359 1.0984459758382694 1.0860990242371424 -0.3983389558954947
Ni 0.8150773743318661 0.038143053745319386 4.527934198485982 0.5766303048426521 -0.15806139505352781 1.9088576922755836
Ni 9.043104311582306 2.4602115004682092 1.2634270183368586 -0.8048056831044461 -0.7192365416833743 1.5888905887217732
Ni 6.798153698073979 0.7049305046090314 4.566349273723213 0.9700327426684777 0.10647992343181016 1.2475020820693934
Ni 1.083264182000472 7.328249894367097 2.6169586539992475 -0.13651966432701004 0.08366781063330106 -0.29496235397935655
Ni 7.764284879795152 4.087218441901134 3.9173423848591793 -1.5563558493188616 -0.9490060039051657 -0.39815589335041107
Ni 7.6823418169978215 3.9768450392301866 12.68036463456976 0.5925983981361342 -0.5446270124631781 -0.7576385385003404
Ni 8.5805586028289 9.037409145898824 6.600344945827556 -0.9233831611307387 0.23638388221451545 0.012875313300771374
Ni 7.148260824268018 0.2702929272464435 0.48619338313212246 0.1312116218505353 1.3197667930720753 -0.7544120611432427
Ni 1.682648528206377 6.057427348579594 9.209035602106116 0.3414694964019603 0.7320727742160941 -0.4899257642655562
Ni 0.11454106305370071 4.986827177172426 1.275869954607305 0.028066933439545208 -0.17238706764758055 1.045478936722935
Ni 6.630828638568204 2.023603359388301 7.068887864195261 0.14325466905799844 -0.3913465837380615 -0.28081871548912285
Ni 3.5318306152564474 4.580186888746499 0.9882513507991607 1.110649459882997 -0.18070921436003073 -1.2459797318875963
Ni 6.052960373578652 6.004697028609201 4.805653585392852 0.5912997339293687 -0.6452630755197015 1.5691170056392718
Ni 5.219364613066707 2.760899872680333 9.70753818518992 0.5750169376089451 -0.08863441060995704 -0.19488884829452244
P 0.3226975492432447 5.5704906826418155 12.48056621341762 -0.41896383123469777 0.5834095325480145 -0.05676610114645062
P 4.133671342827433 5.971044603907599 12.722068531523568 -1.4068390014012353 0.623641640595184 0.4894768496535957
P 2.3531041752419424 8.582423633124609 1.2124862176794702 1.1835335496372328 -0.7473402418981258 1.7804899676317465
P 6.564879347770174 8.115947714187076 6.13549114836185 0.009443147690770834 -0.6850766079722137 -0.25183852620668884
P 4.660419582297034 1.2625254353987865 12.408143902837164 -0.08067684632577718 0.07933447336526982 1.4813092046956682
P 3.735819441063239 6.343795927204176 8.426168665637462 0.1134787233471465 -0.40748359850924015 0.32762436298875186
P 4.929447928025899 1.0593463056715962 3.5842033952725902 -0.042238854064553064 -1.0187507766994712 0.22477560855162576
P 0.21647907016278686 5.5355463832963565 3.6726313048737342 0.44509678087632376 1.041409651749568 0.538800378479072
Ni 1.5735306093442483 0.9313961296771842 2.663376073861384 0.1388737663814834 1.2552146202223027 -0.5214279486388956
Ni 1.6617056026418764 6.731003509719688 5.028300902094619 0.30994725742396295 -0.8724560352635684 -0.9724621780455767
Ni 5.82083233457855 5.762798050401336 9.38937948284682 -0.829612714845797 -0.1200005836260643 -0.09994623607835044
Ni 8.566511740504144 2.289920587906818 10.173164378129313 0.31326835137739595 -0.12391380263754144 -0.3746022744001871
Ni 2.413240030142615 5.311642673014895 6.955041866090791 -2.1489110529218864 -1.0628038011546275 -0.5314454807758977
Ni 0.50267843140444 8.743635032343962 8.96574922331242 1.0510582305829255 1.0416230533119544 0.25436720616581354
Ni 1.5387045802126635 1.2663646684953194 11.44167064726663 0.08237737395665168 -1.06407212634409 -0.32003266668442304
Ni 4.063773646427755 6.841240446759242 1.7850778115884791 0.042358667471868984 0.3153013226470247 -0.8280286581881289
Ni 5.362753600826088 7.864769073044461 8.128476168919862 0.19047246439438165 0.38151288547709133 0.7906016236899223
Ni 5.334878221186804 2.682914313193409 5.1064493105683395 0.7387414444855213 -0.16341340339406052 -0.18221845191570554
Ni 0.5609456169259 6.99823960682292 7.108008921632233 0.4262451953874595 0.8144894860511135 -0.2826817368397906
Ni 4.56022651572803 4.727706236282718 7.196862604003324 2.837328809452191 -0.3367533218732136 0.0013858246039330972
Ni 7.733880337120713 7.45308865396574 8.65407536777313 0.2857110105844176 0.5057899849913224 1.1667244484996937
Ni 4.633908858971685 0.10489931131032201 10.610469403700202 -0.33974222929820846 0.8871820286198333 -0.9778499247200514
Ni 8.218242351479537 7.554091416614344 4.616015485383387 -0.6401990307332329 -1.5264438922507777 1.1363957156091655
Ni 6.761944817210941 6.120610935914719 7.109580095935009 -0.29052900079835126 -0.15213371671518314 -1.0340768655335804
Ni 2.403114280293228 5.20882036861438 2.8608973385110055 -0.7685592991779022 0.7866297835263678 1.1239921997384898
Ni 2.378814300196451 5.402674346863024 11.407277669072002 -0.73515192736205 -1.3195747316659274 1.3125273379008429
Ni 0.9817974362051309 3.3459280344636566 3.8576095584565544 0.012618974315591171 -0.3375364798961413 -0.9376486699108173
Ni 4.257664015511438 2.6123251909280047 2.4109292121176877 -1.3307677721682694 0.8600396638770866 -0.7247459015373775
Ni 1.076359021051968 3.3757867146125236 8.032085944612353 -0.6310998966454422 0.26773668549418406 0.6084785597015006
Ni 3.5319488854703223 2.6720789420607765 7.199166143861244 0.33111386419924915 0.32151413632595593 -0.5427485644935427
Ni 4.006731012505332 7.003807404583769 6.204811140255297 0.3287793025288015 -1.2931841574875405 -0.8022356083844249
Ni 0.615466365980174 7.292614169155911 11.095470077213948 1.6614728309648743 -0.728485571085468 0.4285478753787071
P 8.823467426709078 5.528750394852968 8.324065989999829 0.11843452469052507 -0.28528292190806354 -0.0002550534335995607
P 8.623599862970366 1.5611122368874526 8.064708508682374 -0.021179462291092556 0.07185924803414721 -0.27503579025875863
P 1.7396820644200408 3.100517340674602 10.389326848027267 0.3821096385208258 1.131201830113052 0.0888059031908148
P 4.120907257437774 6.279575201070461 3.9205775300940777 -0.8237032913398976 0.3260022540042966 0.1563366990529372
P 6.840357969009565 4.073872103150864 10.48710174360798 1.711310837532924 -1.1420202608847945 -0.2858701618701012
P 6.2874993054000345 7.700564527643214 10.289621418647775 0.018455121381394022 0.7086801063237667 -0.07027930514153703
P 2.483528928018954 8.520277184588075 5.89987413805246 -0.8145211106199972 1.301944934399306 0.028958077795246902
P 7.042045074500188 4.041320501209168 1.5287962656026297 0.5792638858107572 0.10209824942434674 0.5362644994310958
Ni 5.663805881388594 3.0224044132650443 0.201971863774797 -1.46089053183 -0.8078236439951636 -0.02485871091489267
Ni 1.6761254710257745 1.1644248418444814 7.059447171815468 -1.360093003494948 0.10897209372604458 -1.0713905143823743
Ni 6.638961990199248 0.7865151176812363 9.25353522496174 1.6963814699166009 -0.7983640412441605 -0.1584843415235593
Ni 3.0485148374049733 1.6204383957085249 9.271577800973693 -1.4205000438280955 1.2223476942909528 1.75494348662121
Ni 6.689108560881927 1.9402865425682763 2.249546775973655 0.2710050718328107 -0.03498422938466878 0.7427734484630498
Ni 4.052892786751325 6.906107110214885 10.780334543491646 0.21003264591449633 -0.27996896589431786 -1.8533578594360662
Ni 8.348166730274771 7.264365783457487 0.5768302164200867 0.09857918052749473 -1.6357389165338798 -0.4724821148678121
Ni 7.188345329062627 4.094414729529944 8.300924148228143 0.9523543515521081 -1.2682503703603383 0.3343146305247339
Ni 3.1488898581491678 8.312221682965761 12.513362543724947 0.5120483071962084 1.417639434450849 -0.7142619712869183
Ni 0.06893970766729635 4.648374215899381 10.468420508441104 -0.0619890401082868 -0.29887994386620786 -0.6371988104543285
Ni 8.663720758600013 2.3697620799806915 5.6492786600413325 0.47447754803128606 -0.2477317031271669 0.09408566353251538
Ni 3.2873660831783873 3.0063378595956665 12.443615869290678 0.7185976225477947 0.20714066907868198 -1.4079438044296397
Ni 0.9072680962759627 3.4000866947093007 12.720017907969165 1.292363204248142 0.5373070817629972 -1.2915779893426853
Ni 3.086006495203108 8.774840173389244 8.1815112621337 -0.1263941458572339 -2.461554883341406 -0.5477321337510631
Ni 5.7011155850115385 7.91761766322873 3.5037123267932846 0.04464566373383279 0.7300470020353168 -0.929501872433967
Ni 3.329251934307388 8.569823306492623 3.5684780056816963 -0.4617086784013919 -0.43816997184950346 0.8201765091335615
Ni 3.4428459258792192 4.241715732055934 9.556913789654065 -0.5477814989317599 0.4249092501848553 -1.03081336429096
Ni 7.403542532061191 6.075340737127163 11.330859644804349 0.3223371464478836 0.9191444404590429 0.34492325927851564
Ni 0.6444089068569534 8.929373854379081 0.002171623080906296 -0.9969143975506701 0.42841494934526864 -0.7996971582332872
Ni 4.55265722204008 0.20561731567475156 1.3921268455330582 0.43939201718206267 0.40039686686578785 -0.6754246867047464
Ni 6.137332524614785 5.6352299781748245 0.03840415798671867 -0.07243980312796557 0.27633882534089826 1.8756048437597246
Ni 8.083623554964369 8.759847149353494 11.054432132541336 -0.620048523927287 1.1028387055893263 0.4601683304974655
Ni 8.6730368123698 4.991603474271193 5.989686718926808 1.02618640704191 -0.18801243288966332 0.007070533693536211
Ni 8.310065525989748 8.77140123947813 2.652790889719639 -1.0746028506720848 -0.947368725412059 -1.5732456830956645
P 8.617604472897817 1.5116570920705 3.4210232518776693 -0.03341611356660052 2.426726462808311 1.0452354532535613
P 2.0537713616349924 3.298583558078921 1.897419958434995 -0.2210248832599419 -1.4186421646837504 -1.0018948814843969
P 4.876963246192013 1.2194022958784854 8.20822213505176 -0.22052043281969763 -0.4926272223571194 -0.3591265473620912
P 8.650456299228578 1.6308370768206988 12.492416888847819 -0.5426256657624332 -0.5788059723377321 -0.168051159276388
P 6.325591411976301 7.5239689029114505 1.2698609179716174 -0.7179692449351764 0.7627036117280735 0.726472140199865
P 1.8636110531427286 3.3359205548281436 5.811287018548023 -0.4545311868163462 0.2756595398856866 1.554685403594974
P 6.615599074104705 4.1136927743914455 6.121389699784538 0.005498304110409885 -0.021062477097254048 -0.7430567840314235
P 2.390795982632788 8.547670385663102 10.20276468334941 -0.5065242920541857 0.08869843107867306 1.2709513142312692
