# total energy = -381178.57935921045 ev
CRYSTAL
PRIMVEC
9.15643880129003 0.00000000000000 0.00000000000000

0.00000000000000 9.15643880129003 0.00000000000000

0.00000000000000 0.00000000000000 13.40137373271536

PRIMCOORD
 96 1
Ni 4.481802179145738 4.449177787121107 0.5148958634856847 0.3904245861444244 -0.833125613095062 1.0014277120399915
Ni 8.166536346575464 3.757472918550599 5.45309982709074 -0.2720862207121314 -1.976194884069661 -1.0615185066843007
Ni 8.098403284252905 6.39203678845324 11.104673709496298 -0.2546243164819421 -0.4472847896665781 -0.3754024017039793
Ni 1.633600275361904 3.1125025144464726 10.75138624677321 1.0855490652709434 -0.04273224876120382 0.6362310472244204
Ni 1.0102940058438787 0.7329976613612684 5.066710921873057 0.3978080230926891 -1.5226682272584293 -0.1748021048469764
Ni 3.7829461317452453 2.347079155786067 9.532210061445442 -0.03658319844067248 0.2942820400828803 0.39966718778861493
Ni 9.559230712824808 6.521701120606145 1.4024001915499646 -1.2118254546033904 -0.31004418801314343 0.563191662839243
Ni 3.9538968471816376 1.0054594060714945 12.10307533241523 -0.6707604484598577 0.9504630480666663 -0.9953110576192923
Ni 8.953486493237529 6.931570797900158 8.342288698603975 -0.5950262908513365 0.48924596458971226 -0.3334080595500645
Ni 6.863007382946344 7.501980319529804 9.3566380912645 -0.21965037150991848 0.3743845019624262 -0.7840519954968626
Ni 6.089691173899962 0.10857339064587923 12.93386742447531 0.21281715063816894 -0.24766125490054766 -0.1222649541802088
Ni 1.0693438807152924 2.636596599352392 6.335083738104318 -0.1554622668677839 -0.24229561971326014 0.1425995519725028
Ni 3.002332240845473 5.128658809676212 9.07862662889889 1.9343324395079204 0.8514184978669788 -0.04218228979500477
Ni 4.523042780234411 9.100987568490066 1.3204683757103914 0.12415882876881197 0.2456269980793383 -0.5117302617351575
Ni 6.993504951044869 2.7301479362358214 12.172454586080633 0.5829336213528605 -0.4547620718802297 0.8155647213931632
Ni 2.649772715019932 1.5024068179022025 0.9132778724569076 -0.4517906479567317 0.3358727190404731 -2.0598117868603687
Ni 6.666766583094562 5.91697326574374 1.6694230115162585 -0.20762609335553275 -0.7359281434064423 0.15500692449792014
Ni 0.2817894090816804 4.75633053212988 7.149338385753597 1.4250884345297263 1.3920129921319961 0.2705790400389856
Ni 8.267953064527982 4.820462230625675 12.97381696767022 0.4294891562460538 0.33327436218567763 1.356879895874289
Ni 5.651720385428965 5.526277171637933 10.228786155544185 0.4999633510072164 -2.297832176237043 -0.3073854102340577
Ni 5.492874482301459 7.358965899369064 11.50491905379646 0.3729932780418544 1.9930307246800771 0.5871836548784661
Ni 2.6357175812119586 5.823238800081054 0.9818412874107215 0.4770111130864172 0.4396851229424492 -1.0729362616029392
Ni 7.679422950190856 7.292709907033888 -0.13856622211258768 0.1526438235823823 0.2942290753577578 -1.6587580031368723
Ni 6.329800472822754 4.022130630332789 6.865845879024827 -0.08728586700186257 -0.36644956338606566 0.7982881937009026
P 1.4573296688880963 1.1829020367325467 9.081695867239238 -0.4179621294430608 0.6248616290452141 0.8099304059255212
Ni 5.641483486668499 0.7299064475674105 10.428105350175278 -0.5800095057275302 0.6089778679354222 0.7399028117834742
P 0.7390152730476528 4.054104915191058 1.43623872738107 0.24500581955557157 0.48306708947251004 -0.2756402566119769
Ni 4.902412359343174 3.434360500429581 11.527473194249751 -0.48323369695736135 0.09479245979155287 -0.14869640889886004
P 3.0421627503338664 3.3263969286186277 12.575219782383371 -0.663359013789464 -0.5248616569107929 0.4855888274530993
P 6.8300533591190495 3.669946518504725 1.1379778002491203 -0.4955652219395207 -0.2820500167930627 -0.44663944277309525
P 7.326378133100285 8.803586430976726 11.209485635016241 1.2316306622547755 -0.5446115858442104 -0.003953071110477062
Ni 2.756903050885266 3.570626625074701 2.171947610319238 0.16316683460089318 -0.7569597672657609 0.15510488352836513
Ni 1.523732164246678 5.157913632162514 12.243199980439293 -0.17254673315389638 -1.21401577738649 -0.011883124590831148
Ni 0.8112376010110212 5.238710049570695 9.848737168664378 -0.7028930673283442 0.22870373996143836 0.09467984547308855
Ni 8.596751631244928 9.799312542430712 13.001450184816203 -0.40454662736810326 -1.5099883177979156 -0.8118204238593825
Ni 2.0452829275705615 7.388257347611219 8.557648143010185 0.21543144833256445 -1.3537482922238429 0.7154277094602453
Ni 7.611994933668436 5.9347184444537415 6.416725294828769 -1.7251307741351514 1.473394320723966 0.6169184629387375
Ni 1.7656819074010022 3.39826581803803 8.374250164447696 -0.033384488997716705 -1.6579619895981381 0.07012838138596955
Ni 2.381855310966968 0.8334520375787894 3.026244281196953 -1.1524080318770218 0.46165802766911457 0.7088395147197663
Ni 7.54599532162422 0.6437461882147933 9.050698574418304 -0.02399327759080384 -0.018639983698690476 0.04289911335637128
Ni 8.356468359981843 4.551143891411394 2.9194087826662223 0.314927998468006 0.20762300803173922 -0.7964138594963253
Ni 3.850722092948254 5.594831430152784 11.909425804789935 -0.45329731440924514 0.004101937983515516 -0.23563183453983935
Ni 2.6845305573229066 7.878602966949712 2.3216004487280433 -1.1771158190363469 -1.3778315584252914 -1.019495882395612
Ni 8.35877578260048 2.9045597856001706 8.081698277009082 1.2632287487760308 -0.1665205815644745 1.0102977608361117
Ni 8.915990875684662 1.7746643740235568 10.71643520360812 -0.5383877164216856 -0.48649668397934925 -0.3457802079621722
Ni 2.2977900448490507 4.258980236984806 5.071334923549295 0.19027448945096262 0.9086725943934416 0.564303407846183
Ni 3.997856910642276 7.662913890740839 6.8105647944305225 -0.8454959617349568 -0.6836131360528097 0.14673388585585054
Ni 4.557470990734723 8.677886836894734 3.545614896403783 -0.5596301707402298 -1.388653331631144 0.9763923663379185
Ni 0.2362874012996982 8.380504012259323 10.416030754114967 0.4237447975631089 0.38321444154923034 -0.37775084733149783
Ni 1.794735288230122 5.49814859114406 3.10058174656074 -1.299529640089594 -0.23187879525531033 -0.37785214879605244
Ni 0.3273207174683437 2.829037477034591 -0.4783818161896352 1.3156188323419729 -0.18392026509816067 0.4674530370843369
Ni 6.406293363918395 5.076329761003529 4.197725491611139 -0.7986525190188568 -0.9688947724092927 0.18969239169524751
Ni 3.457398100860109 8.028356526187109 12.76754254200295 -0.4250804856553969 -1.4593566116839771 -0.17211993002912293
Ni 4.44761203605846 1.759968289488184 2.7873253193393324 1.3566888629094056 1.6920579028405827 0.39426555715706935
Ni 9.123750475751708 0.9620029467538127 2.5714824149558835 -0.5337867273145647 -0.4107198460583507 0.6607305750276814
Ni 3.3453507572717247 -0.029704403639378697 9.82162586853928 -2.4455353679846983 1.1207685505948697 1.7427145486551856
P 0.8902805603578159 8.884968860478528 1.0815860396086217 0.800680348082163 -0.6504780440617378 -0.42605030576783404
Ni 7.54982271311069 8.114097420635229 1.8656454984901143 0.46845319621407705 2.1544139850179866 0.4524156831352402
P 5.109805701851705 7.197116684261744 0.6862989070068418 0.44280927039372775 -1.2153440092796102 -0.43245800906639065
Ni 5.490209958563271 6.103718838391047 7.817905848708882 0.7567412234970515 -0.6934900288468895 -0.26570731376898116
P 8.29687825521162 4.024914187777496 10.908490595209983 0.40511998337307004 0.012350294035236794 -0.6468584450312795
P 2.9632800286689216 8.946490973869912 4.974282164406472 0.17247499937569652 -0.4577653774829277 0.8574829588935038
P 2.370070974021781 5.780597263831066 6.732529043369642 2.0054604658029976e-05 0.4072043767059246 0.4212341153261132
Ni 0.8123784933057921 2.892931108117352 3.826548178442436 -0.24528324158667433 0.08932346625718166 -0.5729942507519615
Ni 6.818818408511634 2.620279825120595 3.2297845941899177 0.580167371461633 0.9597755837168439 0.12427581396265049
Ni 1.6243705848873522 0.4197412341398609 12.194218525851428 0.2512625990985608 0.8564863993081895 -0.20337014629265618
Ni 5.652013391475776 7.206630224344144 5.241491775727608 1.335339964919984 1.2874032891397054 -0.03007110835376756
Ni 4.423420724318613 7.28159399013299 9.41741395488041 -0.8328551330424946 0.07969288514595307 -0.1722322872372711
Ni 0.48838980397602927 7.675503994314757 3.5950523416519973 1.055854366419988 1.0812805198025766 -0.12201067207755761
Ni 3.1662599675973597 2.0955975596714174 4.962836615702911 -1.2755710723914677 -0.523330564978247 -0.820750893579793
Ni -0.0223508675083146 5.779571742667226 4.848845360122714 2.0290323395856666 -0.166045698810585 -0.5619246232013612
Ni 4.500197465022102 5.348358406150812 5.7478355252219915 -1.0229059365184254 -1.1922896985633078 0.05188769000822677
Ni 5.030822259358169 2.051848094306924 0.3508610063979324 0.6087184436264484 1.5732857923049808 0.9528593162129848
Ni 2.8083897071733666 6.741116867472897 4.627534230390651 0.38522118756661394 1.1238119654068837 1.1047361797223556
Ni 0.8797744622918429 7.328703868596848 12.6797634242417 0.327650588240997 0.9932418337950892 -0.6085963162262874
Ni 4.475044727191156 6.132671498391575 2.825116689870699 -0.1960371029663527 -0.013878814864621258 -0.07670294927969372
Ni 2.5411132538478016 0.18088362042329098 7.470488579004877 -0.15468682215434004 1.8701957569290115 -1.010466682313808
Ni 6.11629062908704 5.541009881929157 12.730058827820734 -0.14235889671660645 -0.4740024081670804 -0.5113890763456548
Ni 6.598807493112297 0.34948021540233476 3.8207045390963463 0.8982830236290014 0.10461741630177467 -0.39523409171792573
Ni 3.988737097435278 2.392888819917201 7.0899698668062765 -0.43607477988337157 0.9357095439065755 0.6538400185554353
Ni 4.855741989949532 0.6259570585977702 5.8617077470956716 0.7733088980477456 -0.9649234464663704 -1.104311433480111
Ni 8.029656740519833 8.507311535455818 5.569705245994829 -1.1987873904725095 0.07695183206570619 0.25621480089751364
Ni 7.654627313479462 5.026372230022225 8.913414253760516 -0.1662580719317072 0.41306649191365635 0.09273634859347255
Ni 4.866253581878882 0.45521602561362706 8.208261323285273 0.9952174694642216 0.09265124507883397 0.14882136451249853
Ni 0.8992062570588011 7.630802259298128 6.24459797698565 1.5470667107074516 -1.1220016516710225 -0.08483457724789262
Ni 7.02178919100111 1.5988699023758175 6.949443251111743 -1.0280748823138746 -1.0801497486322431 -2.1178978923698235
Ni 7.274708348032926 1.4222055690266073 1.2034390136823208 -1.3703753592575623 1.083846737867856 0.4081939943127034
Ni 6.381442788573223 3.106477577608918 9.679812773170465 0.3614053160939389 -0.7842042048040107 -0.2899924115685909
P 2.388273974679925 6.849739702889176 10.904510291192834 -0.5543177573883808 0.6335061920940895 -0.6696744144845306
Ni 0.11466242255617387 0.3951644363196777 7.347048794058916 0.0476674812792921 0.9324432144504781 1.255838884069863
P 6.393666634588626 8.485052232337132 7.2333377255109825 0.6417018405310045 -0.764618312252283 -0.4679307480517038
Ni 5.269118583366317 2.971813829782297 5.08844830797086 1.088307858963003 -0.46972512094796526 0.35389718064235176
P 4.426891014685532 4.011545786891736 3.510288439241214 -0.2143713824991663 0.47263380995432797 0.0427661873229328
P 4.811397356052454 3.9561035489716843 8.365043365070552 -0.1732008217981275 0.5985016509944466 0.9828869729233267
P 8.256901242699822 1.5076992396227293 4.733539239907452 -1.1594801082324546 1.0194056366746507 0.08705883859272104
Ni 7.49152366623423 6.966731523517498 3.7164557345726204 -0.5125316745905303 0.13272934404664236 0.5489302678242223
