# total energy = -340863.87606195966 ev
CRYSTAL
PRIMVEC
9.29533462709827 0.00000000000000 0.00000000000000

0.00000000000000 9.29533462709827 0.00000000000000

0.00000000000000 0.00000000000000 13.60466181358342

PRIMCOORD
 96 1
Ni 5.787777363807362 2.905498555007195 12.56306227598198 -1.2627862619219736 0.8490242866031895 0.8809224208633668
Ni 5.832162587241532 4.578203338714516 6.615865273534254 0.16162622958665068 0.14062468763431912 1.2464481868835824
Ni 4.936083021947816 5.915076973216989 1.7174116257238634 -2.7878088483451924 -0.6004857713040109 0.47473491545773083
Ni 4.49391324319597 0.8411831773235536 4.94821994053169 -0.6711468852649989 -0.31238106367643614 -0.8264512863986799
Ni 1.9494268992330308 4.8059018587655 4.040639257551042 -0.25485674420772236 -1.241414738224733 -0.6567672195045593
Ni 9.489142480161929 9.151442968672205 11.30705247660898 -0.6154092253830626 -0.7907291504067221 -0.7663725759392285
Ni 1.0993871269590947 7.231036104530585 3.622364066309118 -1.227192166867448 -0.17689086905520504 1.5140542603371732
Ni 2.6481943937755132 7.311031755394349 9.283984217347703 3.875814602686744 2.413667572741824 0.3792441440475727
Ni 8.250427580625916 1.1406398225823091 8.541795425584688 0.0936046101310388 -0.10351287038368624 0.9683345290304485
Ni 0.14734499879932098 6.882870046111674 1.56433233491689 -0.3327398298384463 -1.417605752999436 0.9687955278272671
Ni 8.134282372917022 0.775508848710057 13.138484396517745 -0.30694318049031655 -0.33708036619532916 -1.8623073553198701
Ni 4.165499771122109 5.112973242251957 9.7736299183383 -0.8293532905368234 2.912332516652591 -1.1959175251238823
Ni 6.308548493210381 5.698449196853984 13.498953760012565 0.2838952975319175 -2.697767015864747 -0.12215722495775092
Ni 7.578244743470183 9.061492014290536 1.4377001305423571 0.23629363649355434 -0.7760720626151796 2.665838285476951
Ni 3.2984030595808 3.621202149465291 11.448554427984066 -0.5926644754873793 0.14601629096353563 0.5355682446950196
Ni 2.1875176035351984 5.685547272220134 11.160747625768252 1.0514459529396474 0.9469969438949369 -0.5578993040920521
Ni 6.456985693842899 1.4837492188968873 10.77633440948933 1.1723405091348906 0.2237649078989243 -0.3962249948762853
Ni 8.190007904746938 5.900687795023041 4.1220626718325 -0.011006378412832658 0.32184683707502637 -0.7153284648782197
Ni 6.913247200076673 6.009601232295959 8.567168900853433 0.1088013724761352 1.1018706852491023 -0.24095581785591408
Ni 4.892664513327709 8.928745338717052 1.5575709084192952 2.1605265256736277 -0.6766824703712475 1.7762975268169539
Ni 2.4830069999223925 4.990739590281414 7.63915335395704 0.7010917524535475 0.13918101320925708 -0.41869875049876926
Ni 4.649944732319738 8.024169837461276 10.829256468358464 0.01601822980512725 -0.5329901995551981 1.5432378238796647
Ni 1.4097955356210208 0.22561915366727175 2.9398717733814816 -0.1737050151280557 0.43831883872254185 -0.5146186390265459
Ni 1.4313421215729387 2.8483880182994366 2.44117985261159 -2.4238085178305675 -0.27042297407709553 -0.22207954977670138
P 8.831822883272423 2.164121245967909 10.657756612676202 -1.0015436687925654 -0.10791717009896898 -0.42889857384990643
P 6.379509078696549 1.0032082982945156 3.228930657188203 -0.9413598002138174 0.031811745193958116 -0.03187987942773219
P 6.489296277436025 8.61524158358317 12.194688159815241 2.7386483274601416 -2.2176569521380323 -1.5665423029335601
P 3.2493422827670715 1.9870172329645046 13.020396463845977 -0.2967770385905921 0.35167883283479434 -0.49833918514023207
P 7.154293820829535 8.573115126493398 7.668444812823168 0.8193727822853436 -0.13766817610915646 -0.4362958947552421
P 8.585394263698957 8.346699362638 3.427518047867221 0.6340180987335017 -0.15387923865138015 -0.2296349935264561
P 5.427666800233915 3.8701869860951756 10.776484064378815 1.9578408070425053 -0.448992002165672 -0.7063350031303578
P 3.0640304891788768 2.829081608022416 3.7329153415650924 2.4248269317927527 0.896093215066534 0.7099204064887709
Ni 5.083283943058503 3.3893021381070314 8.605900701692281 0.7266837419900388 -0.4691196261534824 -0.6324756939470462
Ni 0.9112393267384886 6.273588739213331 12.782641321128306 -0.19097254395925176 1.025363911140615 1.5379930305409577
Ni 4.995628936360235 3.8673333183267378 3.0812249994005585 0.15487142736132037 0.42063042030384334 -0.004956315564010819
Ni 2.6020616474082274 9.527253352639436 11.673180839899972 -1.3654013030817387 -0.017632368369782537 0.41526915599193
Ni 3.294034252248012 2.936470610396233 6.2303914595602885 1.8595812146379584 0.44479647602708555 0.4923503145466488
Ni 5.268465601960188 7.745003048896156 5.682871145345433 0.10092376950027136 -1.1024149877883465 0.17051067656047408
Ni 6.573140196886542 1.8067713968153936 0.8449050293576985 -1.398150729598618 -2.801723915764388 0.27524456383545504
Ni 3.2234082988128647 2.0311421870256585 8.516314124432837 -0.8406602309092103 -0.7007343691141287 -0.7711391440899366
Ni 5.299911719421508 7.715797107109735 8.395354862856601 -0.23685285143113402 2.075764710645199 0.44504921546784004
Ni 6.713629886307286 0.5629078113610169 5.888506258832365 0.3806831904869444 -0.6635284494877928 -0.7209802638473584
Ni 7.392458887809706 3.9011125648104605 9.203703199707094 -1.2620283007100264 -1.7533116074447417 0.9626109962831099
Ni 6.960764951321799 6.541433810052206 2.0028648491808223 1.4668557482744995 1.1886793555042303 0.5207836301866774
Ni 0.5847453412906288 4.612930709342802 5.763260918402623 -1.0618200970851195 0.8868536987461372 1.9990995565819767
Ni 3.9190525608791416 1.6943350276719948 10.75807651297218 2.4745507813804415 -0.7413115192055426 -1.3123321911709012
Ni 0.9327217748806272 6.2069318937166935 9.047671710583327 -2.8850248299765733 -3.3631901112720914 -1.58716075051486
Ni 4.113362238505927 5.107777150126364 5.099857524918844 0.17597427077820663 0.2590874944596183 0.7488055135897427
Ni 8.54987678961687 6.731356089676702 10.753451154400276 0.627086661720991 0.6836301053336743 0.07734932461444098
Ni 7.000344486689904 3.727271214304521 4.869706895560649 0.18471936396068833 0.00640538930571155 0.012126865170521051
Ni 1.5445778895048903 2.3224951594488306 5.045941794764871 -3.071108678384956 -0.2155234938257385 -1.2607417206881188
Ni 6.36630040801593 6.379397534679543 11.28927050123106 -0.796807495390318 -0.6920671803574339 -0.2642901217064803
Ni 8.702245916848897 1.082767068425001 4.383435401084524 -0.3575311778505133 0.4183799337067698 -1.0413633718926645
Ni 9.01033049182317 0.1381165904589137 6.45708515392473 -1.3794387550114113 0.9781021499401735 -0.4316720228299856
Ni 5.925980400879456 1.1113595181178824 8.225255814121258 -1.2140728558766705 -0.5821923723114618 0.4914082623483537
Ni 3.2108410062300377 3.4015162079693346 1.0563078980573848 0.4974202728703885 0.6685827240822485 -0.034039091862580084
P 3.512651230247648 8.670111944616032 3.274002805860444 -0.38650031138935365 2.263089373439218 -0.10868772971640636
P 9.031105564990787 3.862750718294686 3.9002388033439033 -0.14222828467601312 -1.0744280156571173 -1.0639492276129807
P 4.468741476691313 6.081166014540918 7.632297115044989 -0.6438749369229233 -2.6448390575174643 -1.453612253001032
P 8.460920436053517 4.909331048535556 7.434226544978105 -0.8988039291294779 1.1212763434692237 -0.015133256097012647
P 0.513155461641843 0.9354453079625565 1.0115239047624127 0.05136935561091153 1.4756257811576456 0.46911936904316626
P 5.916266776065067 6.0480653274939895 4.073398805812623 -0.6140249434410264 -1.0317916690438296 0.17198751821631672
P 0.3699124940679669 8.127375939197318 9.345436604917472 -0.5371754412811394 2.262746388277503 1.6190707118495795
P 1.8874177211117007 6.562701535961605 5.710434601481422 0.07998547668570741 0.0011978769628430983 -0.11977921164387759
Ni 0.6274313775323879 8.382151769376833 0.0928919982967627 1.167646188983015 1.9362800501525943 -1.7165384044804501
Ni 8.052836649832162 7.121137361774102 6.208473989751821 -0.21836867658401746 -0.0724202627439398 0.6516954614086067
Ni 6.918183022829248 8.393101673713053 10.012078493028364 1.1455742967846398 0.5265213040014028 -0.3875459790450487
Ni 3.5496280718855813 8.824210004111674 6.980619786349106 0.6280999334768538 0.6420078018071976 1.5927079055853344
Ni 4.666127910120553 7.51650513005662 13.456561456348926 0.7696489326976551 -1.03473969592856 -1.8452383156527252
Ni 2.6389083543596517 7.275058809909482 0.955755614392643 0.10139145316530926 -0.5076396366055516 -0.10567542525264381
Ni 6.4503581201657125 8.184049595171796 3.5710872816908434 0.1348669592149355 0.24043079859037947 0.9125559886082477
Ni 0.836020548403064 1.8326403134263458 12.446374220723651 1.0991149768808361 -0.3587871617448014 0.3862131191662381
Ni 1.2276999278565381 8.247611094196479 7.44562727304973 1.3472719404708797 -1.5705275128335534 0.22176124720533422
Ni 2.899168432042028 0.29319716683769365 0.8347117652701778 -1.5967049425598694 1.5411416034722685 -0.7145663899012145
Ni 0.2301348272891189 3.4305920150692484 8.605383881080147 2.967498363191457 -1.2229074234491648 -0.4139566078280935
Ni 1.462955555059769 3.9708740521138015 12.884104547598605 -0.15051135062041174 0.49743595659967227 0.7258165088937371
Ni 3.9791190140375936 4.998147972077651 13.073889256268794 0.12171525232432587 1.5361369511688254 0.5168778673743678
Ni 4.259912486184072 1.6376334856932637 2.477381463331323 0.5299110464092421 -0.30218869652446667 0.04288008719297777
Ni 3.2058401161342087 6.670332217038938 3.5970723899861783 3.159019323455011 0.07524744778008977 0.2586648050999029
Ni 9.364306134461213 4.5954461846769 10.458243406656024 -0.36739521512878665 -0.9491492143512492 3.22672366878052
Ni 8.101860245306888 3.2022707075899737 13.097180576553404 0.6794494915934234 0.31926879193520497 -0.25771581092307233
Ni 7.334102776245366 2.8211155061411417 2.7480327957314077 1.4598104113919441 0.21713069041185828 0.6252023002140846
Ni 7.787343298685192 7.395052286205128 13.425161815561362 0.6142992801483357 0.007944451658057286 -1.2512034421803804
Ni 2.020452552062455 9.130574942157082 5.322239113492477 -0.22964604927004967 -0.31612536121021684 -1.149371559043543
Ni 5.138340210786376 0.523171184835627 12.823496176424195 -2.9785281386430573 2.562065476563659 1.3134367370889894
Ni 8.319408259810205 4.69770416226838 1.539544465737434 0.32687874307197895 -0.4874806451591734 -0.14443763362250608
Ni 8.429297707231935 2.866867143783653 6.70547973679795 -0.7833505985544639 -1.406360776213236 -1.483153971213891
Ni 1.1951383702251455 1.1524820790545884 9.485646504762224 0.2974964332551199 -0.5366293389696822 -0.3244279675386412
P 1.4571924475143896 1.3672786744717231 6.9284869014003005 0.8445263987328357 -0.3150028175699994 1.9394095969205116
P 2.1445731569873727 5.597232296754573 2.0643850926942706 -0.7342890651411225 -1.2247131091993357 -0.9752425690041913
P 5.496833386113217 2.22522877661843 6.387946454049681 -0.43923440855827584 2.1118889671715824 0.39013533703877973
P 2.9461284632021183 7.5761811791555465 12.076368773308179 -0.8115226901133057 -2.53334856824494 1.3911262186516686
P 6.23605417749036 3.7483809195231603 1.0975317781428724 -0.724414743450204 3.2807412606475563 0.2315414665205496
P 2.1334373459561395 4.099363464371506 9.714218786279764 -0.18559199637362878 -0.6312742174397773 -1.848780781588345
P 8.433554970547716 5.2714679950846355 12.550654863156863 -1.0550385553869122 -0.07042020159477551 -0.5013964839093171
P 4.100757764584098 0.0017856338055925027 9.342797659381771 -1.3249154271525505 1.8059914543369608 -2.1636555582209125
