# total energy = -381169.91402762634 ev
CRYSTAL
PRIMVEC
9.23686064249965 0.00000000000000 0.00000000000000
0.00000000000000 9.23686064249965 0.00000000000000
0.00000000000000 0.00000000000000 13.51907922647669
PRIMCOORD
 96 1
Ni 1.2930034670410306 0.8274703077492993 3.7925210562480807 0.41603431629272863 -2.2526980029025654 -1.1587740833043656
Ni 1.9629529713700276 6.130449004910095 8.805962966247758 0.9964904226393742 -0.13784249690349165 1.4209073065688433
Ni 8.161588481739335 7.681631964512822 12.138010815478635 -1.0984845423856888 0.5227512954360094 0.7707208256055952
Ni 5.3434315284610685 4.30227106756274 10.132076884043205 -1.6551656577999236 -1.610946540080548 -1.812160816372466
Ni 2.9688193876517692 2.411042319288185 4.372989396531349 0.5388368881439624 -0.4031698016252347 1.4838646241276703
Ni 5.437324217162355 4.91979215073399 12.297684731120903 0.45298338271325206 -0.37098473225225786 1.1665699251997006
Ni 4.898879898179173 5.933666925215832 8.513220988434467 -0.2840068834091173 1.1510132084120241 -0.7430123039467333
Ni 7.961185552662788 5.12390829779951 3.543945127724037 -0.9077176866793398 0.5325636535407409 -1.1043122048110594
Ni 4.734602331179431 0.9654089665511341 8.287966285727737 0.40179811808868865 0.11061014355009983 -0.6343076049494624
Ni 5.2069938595179615 5.391897336391777 1.1497610028430052 -0.15405741610045726 -0.5749881412535388 1.6448537343509544
Ni 6.039031794868125 1.7646283359440258 6.200891151744699 -0.38693945580930134 0.005785239223209391 -0.9996665063745105
Ni 1.8469564750876126 0.7597918296268871 13.311345210435222 -2.1896748651028095 -0.10917084000041198 1.5058465277154
Ni 6.987555780116165 8.649950542174718 2.398797936785241 0.13387657027720815 1.3098947853740022 -1.6811255721987952
Ni 0.2604499129141577 2.377290830403335 9.200896028387445 1.092828629651492 -1.3313059040599264 0.7302884286221616
Ni 3.237685928007601 2.4057588349854666 0.038566664351645664 1.5367151922697986 2.0417312752095738 -0.5227870337699512
Ni 8.811253840039013 5.480201724388264 12.219422658043849 0.07769539509995005 -0.07280644243876493 -0.9950901998577377
Ni 1.9580481983547415 8.702360489611127 9.304397823242784 -0.08261211567527707 -2.51664179701322 0.20453614157629932
Ni 0.2770467041643761 7.751656605245182 0.6105176954119468 0.564343517055499 -0.22844868652783884 -0.596468936835134
Ni 0.989785041856859 7.378432013049988 7.327043662403581 0.013910953654137331 0.4393606497234949 -0.6869144325119008
Ni 0.7043318707975452 0.5970937658015605 7.655192374533622 -2.2601883977423394 -0.04217277671330801 0.6450877262841019
Ni 3.215942357992566 7.062023350830358 5.700144308524201 -0.93438696844041 -0.25688585882260917 0.7160213771801862
Ni 0.848848098081838 2.928796070372609 12.507554518697198 1.3262685987463352 -0.40631040413674546 0.8759020848306399
Ni 3.730121443998053 3.4264227020590883 2.4230918040310114 2.025697875895795 0.8727206017788647 -0.2718293675063189
Ni 7.123180605320393 9.159899145993762 10.661308358195038 -0.6710221867616766 0.5567919299604862 0.28896834117945075
P 3.180528234187281 4.795464006128057 -0.04327007380434559 1.3523364994779807 -1.5856263161482047 2.071594381317593
Ni 1.8818256241134221 7.563834280399934 3.44206532560219 1.6269485719357595 0.573432880951277 0.5151480291674547
P 0.8817765826810721 2.931964313582106 3.6943997327324865 -0.7071418153023693 1.2471608966798908 -0.3097801357184794
Ni 0.19841423297449165 0.9821369212228537 1.7265890963365853 -0.37062092115493595 -0.6793859853453396 -0.6827695571055918
P 5.085316693924057 0.03284073442287764 11.734953010694417 1.9635777095262827 -0.8608217934587498 1.1065315810598815
P 0.677304816479792 6.1587692197215205 2.161619370640785 -0.3627659438868914 -0.6566630898265272 -0.08291139208325075
P 3.7929228596871867 2.3501529337575526 6.592389949087618 0.32359467300406847 -0.7468391338919913 -0.9016069457959118
Ni 4.3668829079430145 8.393248947320076 9.835617069810604 -0.5004873418314865 0.17301313126735363 -0.41649505797923114
Ni 7.83904654403543 0.3156558580750996 6.344408874390663 -0.22329619579262186 -1.0658842398521644 0.20446286513620274
Ni 0.31111778842837634 4.417057535097503 8.631783484610756 -0.2846946535047613 2.1898219322036354 -1.481354970331939
Ni 7.623328899969534 3.5843637826398345 13.341384405017164 0.5344899240291763 -0.04405970932337573 -1.2750846196733525
Ni 3.743884366394995 6.147768118664636 10.711707441063787 -1.1190605667648275 -0.5631230143848367 -0.6221676271528187
Ni 5.531900433553154 2.449384527925572 11.846823401315952 -0.026073814268916383 -1.176478185452348 -1.3430298773650742
Ni 2.7206711257767044 1.5489661130421453 9.303316186858433 -0.4034474807666536 0.9848227564934587 -0.6586027300514012
Ni 4.241714209016195 6.702386180679392 12.974855613120992 -1.255646822663715 1.3388508062867202 0.6833583397295263
Ni 8.74945000530214 3.561474841901833 1.8823696752068315 -1.2316676861402982 -1.4050202030249417 1.9571306683493583
Ni 8.570051697387102 3.420991427985664 10.987996722653296 -1.6089634482122483 1.111535719142692 -1.2196074125416543
Ni 1.758485823599082 2.77828142576981 1.6711476112285815 -1.700270263448046 0.4362226183151455 -0.2298496806404235
Ni 0.8213564296724296 0.8755555570204409 10.8357178376627 0.23361300433759766 -0.6354879984108087 1.2183434582275663
Ni 3.362910048098435 1.0958519129200033 11.5608409581403 -0.855907643986584 1.1461049724771293 -0.7373777313687752
Ni 8.624318253817997 6.795576867969827 9.576550838624678 0.09699358120792972 -0.24056629572697924 0.8959420342006505
Ni 0.7923748556370972 4.693239669103253 0.5133570054059376 1.3950188688378555 1.1625942283814041 0.35662794930995356
Ni 5.741244643757378 7.074326849241584 6.479897917743055 -0.06989723921176995 -0.7871864273607861 0.38772544204570647
Ni 8.127051859697612 0.8635226986268192 3.8984022664117766 -0.40810709102585196 -0.230888406317583 0.1698938689120816
Ni 7.8594138218107705 2.976643008638488 4.770518016519049 -0.025530797281252803 0.8331461819203523 -0.03746045883930323
Ni 2.906396683250069 5.875890361730682 2.304313165315067 0.8379716283334536 -0.4001119886355174 -2.6550527648256725
Ni 5.274820127411078 3.3437989833740906 7.697398361988888 1.3778233308951755 0.6033764625882447 1.5385350190873568
Ni 2.607242476760296 0.28891329906595425 6.778466507266407 1.4799681172867414 -0.2046850084493378 -0.8731049817014771
Ni 4.845731001889236 5.961562244436479 4.356361199954855 0.5101768012051086 0.22548266192097943 -0.9912181184968415
Ni 0.49079320216348793 8.462072796165456 5.41021403109858 0.39973120825733094 0.4512329756810487 -0.6494861124621137
Ni 6.743896632526276 2.251096839942247 9.644632967558326 0.0795473607070243 0.2534071562453894 -0.5082021939772409
Ni 5.236080733764922 1.4816848199285038 3.658154291466983 -0.6545007920678858 -1.7636926935687496 -0.5703365014141403
P 8.175573088792335 0.7706710041229398 8.862932228110429 -0.6703038205384133 -0.3304482055907922 -0.20839793852455077
Ni 7.136066025953772 1.6860780728140965 1.3206872621523562 -0.5689491341483104 0.6855682028966515 0.5493678695822731
P 0.690490435084916 7.821117797476728 11.0806830773512 1.6897935322864381 0.138664992804787 -0.5043748498113506
Ni 1.5560323114539978 4.375898083956045 10.576584177393888 0.8199278834578654 -0.21261300504716288 0.8115278323196282
P 8.699995853279841 4.5578827128584285 6.580696083480552 -0.7067180975013894 -0.052849025480231564 0.342782558786429
P 3.4478799293933813 7.598629534540391 7.87712180739948 -0.007344356180213157 0.11486917593676992 -0.267198810712843
P 7.93836126994947 0.07130671699323024 0.2663735116612442 0.18569998270640278 -1.602412534467608 -0.27315399985501343
Ni 1.4805302123448678 4.842812153917804 6.18139583361652 0.7558377378461757 0.27132928794144884 1.8043099528694795
Ni 6.868095461082842 5.055767976643643 5.683732254487364 -0.8030038540090171 0.2516845171273278 0.7866647505293614
Ni 3.99163544326129 4.755265188496183 6.3494928425029284 -0.33066392114602405 0.3772821352251954 -0.42450944364327536
Ni 3.381937981076758 8.940837758365657 4.220967296267355 -0.21136627712425535 1.5718829984201832 0.6098548712237368
Ni 5.288924813652778 3.561068420032393 4.652307444734253 -0.4621231402309912 0.6855003257731936 0.3321677593850602
Ni 1.9816299036429246 6.018553674764756 12.390627870545405 -1.5942258848917576 0.9290979521273289 -0.8717160717737504
Ni 1.90515793416354 2.781966933176776 7.39864041682182 -1.132001957416844 -0.365544535073293 -0.7363744869152415
Ni 2.616063678699276 8.095027663757882 1.2716293714527598 0.3318846809270026 -0.3575764292661519 -0.9556348220755928
Ni 7.734217412301943 5.699817323656514 0.8948384273532303 0.5234853453885565 0.18182584446297717 1.0029287220655503
Ni 7.143926594383166 4.768557030999001 8.391901289348457 0.047036789673828676 -0.08578717096914902 0.737709403676581
Ni 2.562388281351202 4.839025041043478 4.16307896676811 0.4579371271741017 -1.1609878031262328 0.9751389535467916
Ni 6.235647611070345 7.358240235627361 0.32647591666286996 0.6669634433112707 1.7706745242032216 -0.029896787559432387
Ni 0.6059814731373575 1.8308473900807223 5.566048183760707 -0.6280798788721956 0.6064707852428524 1.80162752094131
Ni 4.736338860985221 9.00646565341953 6.000470672632881 1.1420860811257234 0.7150638983629233 0.6793471616876042
Ni 4.694939251466366 0.2582718611683866 0.6255977941403008 0.20067383040741568 0.11759068863299103 -1.2505665799273302
Ni 2.9457549465610553 0.9094160408611859 2.1943224758396935 1.1731295806950892 0.17513352004446614 -0.3310326173393525
Ni 5.8506460215220635 7.08805282419585 11.084874764722832 1.3220149656763038 -0.32632621300261866 0.44041094536488024
Ni 7.59559060738026 7.297267718350707 4.817077336407657 -0.5512422037868506 0.008301577887159897 0.17439021412053837
Ni 8.175203614365572 1.4432225321024188 12.130142857560706 -0.6089945801059706 0.051368584279963145 1.0767561495696616
Ni 7.985007416328368 6.719733005015941 7.314659803304533 -0.21156528050893883 0.12179341386042894 -1.0809581034661513
Ni 8.091185129719541 2.536820651019165 7.281484694525435 -0.5306322408459829 0.4963422093148614 -0.17485764067526013
Ni 6.611412339949538 8.640113285562139 8.516140760091966 -0.51372312379547 -1.1616089816499995 -1.5391122317470656
Ni 4.8098550350504965 8.090409233423337 2.7103858814216744 -1.4547954746758558 -0.5804057127246843 -0.5532561488930859
Ni 5.479222617157341 3.1344455363091974 0.41880388116681205 -0.9111956179256113 -0.09951789029168022 2.198557769414736
Ni 2.6416035984493056 8.26247347396712 12.259519870208361 -0.1478893396165324 -1.036833345232795 -1.5264996851893775
P 7.053857965998883 5.0900552034472994 10.91239763650714 2.088999978388551 0.8367930346443202 -0.3833849056888236
Ni 0.5961035743378341 6.1030709498869165 4.536664720215465 -0.8738781124220757 0.15758496963774152 0.5104028011729854
P 6.437436069247255 6.649902338357631 2.6883772135054365 -0.029640962794884432 -2.1961571303930434 -0.23751645315706194
Ni 9.016570778991515 7.935414711396031 2.9897852139984673 -0.022965607657237867 0.3539498882571581 0.10136317103053512
P 3.3650991840770095 3.0937571650618625 10.61167962950609 0.7622323285186099 0.7143252204246859 0.3943393478177982
P 6.233190606132368 8.96967523737455 4.432189360245605 0.2191477208418871 0.2811778986007545 1.219732368155293
P 6.065162873700977 3.1607059311914165 2.7014501424103976 0.8144051538674233 1.1314088039175354 -1.234766636780596
Ni 3.1961385287180404 4.164457106379937 8.66481080361915 0.41311097199834657 -0.0891530021175884 0.9269158568743456
