# total energy = -381173.65378566383 ev
CRYSTAL
PRIMVEC
9.14421080750607 0.00000000000000 0.00000000000000

0.00000000000000 9.14421080750607 0.00000000000000

0.00000000000000 0.00000000000000 13.38347682778770

PRIMCOORD
 96 1
Ni 5.541711753342335 7.3547892812173 9.92130496709934 -0.5152542157280158 -0.46601450486559737 0.20884968134998871
Ni 7.08292275182771 0.48746873012107644 5.103869569306161 0.938497648174674 -2.8250129681993155 -0.02296329366439271
Ni 9.130704736661494 0.7290441470268643 10.030193314121583 0.11386027505628134 -0.6444616626643288 1.318330574846181
Ni 0.48991937859830254 2.9851641715835204 6.857412798763857 0.32341700977562365 -0.1335281857988539 0.8882966018402509
Ni 1.933113582205367 6.721964177238065 6.160454772788256 0.5086138275933628 -0.16050728549085908 -1.3908703938871207
Ni 1.8666168817337683 2.5392010139927774 13.145250999208825 -0.48852682703550065 2.267695247642346 -0.6205329197628733
Ni 7.035601461269332 5.328962546360456 5.22300857656337 1.0861465896456262 -0.7598260330699623 -0.47900397514672993
Ni 3.5880236969811516 6.95842432265818 8.415972193857415 1.867961982502486 -1.169222275220883 1.2555385792206248
Ni 0.32359715836482916 0.9984289376227273 5.595470568258799 -0.9072888266720375 -0.5945269826174148 0.5430671241752261
Ni 3.700378614293381 8.979185164767324 2.266785831959031 -0.7071189324842339 0.6005608475163206 -1.575439348312874
Ni 4.823900354783473 0.9208585979499312 6.667032160084182 1.520902393607258 0.5527570977694803 -1.7492047843652196
Ni 8.642998257061285 1.7774699712692992 13.459227533458394 0.2501462261059305 0.9469318949849562 -0.8703793552401977
Ni 7.177464746626371 1.8612949510854637 11.381777156891923 0.3765519419273902 -0.6995220939735823 -0.18307282949620082
Ni 7.177748217159184 0.6615763313751108 1.5417367906026895 0.329746037317445 -0.8238516439923037 -0.8252215277566369
Ni 2.786396462816861 7.594504765659403 4.080100194892057 -0.6551957612523812 0.29461628349384744 1.8090438680100394
Ni 6.9039065382506335 4.149341073005505 10.688338737628577 0.4858204838479311 0.9117512333187652 -0.7098571573510033
Ni 4.8663477810196065 4.795525868869919 9.494907677220242 0.16862400106072248 0.37936267190330797 -1.4716045758133944
Ni 5.290556861269599 1.6305590815860336 2.376878471535195 0.2851849628776185 0.4777960708815578 0.3707021680148325
Ni 1.2658513805946623 0.47251154462033457 3.353524984763891 1.8002308977040995 -0.7792437754749418 0.7282935096793199
Ni 3.696885525792261 3.452524782296312 4.406510112479255 -0.3056748553008542 0.4969659589417893 -0.2818864946320048
Ni 3.142499461505733 4.796586597315285 6.558117294850804 0.168321125108323 -0.589596892305649 0.4859852915605694
Ni 5.1337062145163905 0.1304001027784914 11.342189125352911 3.2944472973797394 -1.7930942866593182 4.0270517757295865
Ni 4.616527943714315 3.843695829157431 1.3432726696324628 -1.6205118151714801 -1.2243151024299688 1.1332000914900031
Ni 6.151456869424113 5.257948605785314 0.48998247365238035 1.6558804244787613 -0.052126545491910224 -0.41185524521437455
P 3.419861661547611 7.7086428040651365 10.816673163201825 0.23546034195898158 0.056795668832805415 -1.5555886321355337
Ni 0.2893603189484769 8.661350688008271 1.5409467307951064 0.18980552023434408 0.06595213852109287 -0.650238417247106
P 5.91138476076331 2.9759285187402424 8.392979075961948 0.6937646226645149 -0.10880368646898035 1.4077394017283174
Ni 3.851578138811793 0.14434136646647266 8.366292611350245 0.11477404511980234 0.11287914208993462 1.3980301448603536
P 1.0029370335155352 6.609517817818476 0.551273374952021 -0.2703437840997279 -0.48636015840148494 -0.34496851069415424
P 8.155959304844796 3.4369247587808354 5.100041802692107 -0.721557476507067 -2.432227080911566 1.8347914092877886
P 0.5264239822771626 8.350017745082456 7.123904361082875 -1.2578607995958981 -0.24302632723169762 -0.02202226990736207
Ni 1.0059911999013318 7.276679433111085 11.050924067308143 0.6756308891782816 0.5110805439663004 -0.1688551432349221
Ni 5.551642366201543 5.7442194442999845 7.183220112863558 -0.9463747369299056 0.5510342015411026 0.19604455916552044
Ni 1.3480212582676254 2.7093473431560122 4.395254503484413 -0.25932814971551466 1.2166748122758917 -0.476942721742327
Ni -0.09479163175175138 4.697627948731176 0.9273665327306843 -0.1252302074561198 0.6364187377551943 -0.5690447791859102
Ni 3.8429094270341424 1.479487576017925 13.39699386403188 1.0271045479808052 -1.9835148147698423 0.17719425922823678
Ni 3.474809223859745 0.9877484994831746 10.706219327301593 -5.091083278643729 0.5970674896510815 -2.2454762883431454
Ni 7.912247800311097 7.124282016986268 0.7905353065416214 -0.4134418729752041 -1.1659901414368308 0.06554898954540324
Ni 1.7911131336872894 1.5481605986446725 8.422958370859657 -1.0612043178779917 0.6025863625867816 -0.011499515999167292
Ni 2.6197157895225396 3.232816830944399 10.428137477874799 -0.9991779967738663 -0.225845701687353 0.6081538293722301
Ni 1.897899226661345 8.45524017802067 8.97457099602998 -0.7531169964809029 0.565865095906348 1.4784838194317311
Ni 3.739863316251077 2.7766578783831077 8.285148714121851 0.2992267856826653 0.3444864288514132 0.517015935614129
Ni 7.5795539811061765 8.28692269100462 3.146950863291978 0.7911454120085343 0.03608568997896366 0.8481699090226941
Ni 6.378489333575496 7.977610618651442 7.756393872528103 -0.6568317541939075 1.4358780689460624 0.5354474028464392
Ni 3.4199165268120266 5.3804627412251484 0.19686388409144104 -1.7490541177199683 -0.385651076015181 -0.24169423868383533
Ni 5.9254485568751525 0.8410607285418652 9.360992539834863 0.9038232367209401 0.7916704312740688 -1.962334324037485
Ni 8.838602068913314 7.569605079825497 9.082656481349611 -1.6023369440346662 0.5643450597173958 -0.04906127630302518
Ni 7.571735680926966 3.164098087263972 1.8002646597917966 -1.742089256366361 0.4629104120189769 0.2597474966411204
Ni 8.898258899754447 4.4196988076236705 3.5138586613864113 0.400247228661801 -0.29008317151018426 -1.6434599393272213
Ni 6.203825764308718 7.21584299908502 12.303390152227568 1.0120540814055858 1.0898325231376456 0.44413107452894474
Ni 4.0182222352631705 7.68038719289115 6.37515261107796 3.102693909390405 -0.676801255337299 -1.014883066213949
Ni 0.19549408132320042 4.836802836131853 9.611089446725455 0.3367605209620652 -0.11030263961201003 0.1740433723040809
Ni 2.692009919600711 5.55424846626128 10.351342567272408 -0.20150609650072393 0.9203235483688086 -0.37584026057234626
Ni 5.7263516565220005 3.8893528733618723 3.2930177423243188 1.5096545886075807 1.1848247576448305 0.5894205146287849
Ni 4.904936350325182 5.6660638751400905 4.89705404067082 -2.10648579387814 0.535539191229297 -0.5637182247666743
Ni 8.498528871644508 1.6083752263406952 3.280945555310759 -2.2584207643189558 -0.3058836288775506 2.2253391512736385
P 1.8812567631219737 4.189228120235581 8.3076992522177 0.27636299371061435 -1.1372691193530542 0.4568207541814713
Ni 8.300840179744688 2.8150361308417575 8.983792932557154 -0.4573362603653091 -0.9025387135815618 0.7189064120374652
P 5.503040886140136 9.09443879688284 0.39129632254820135 -0.17121335905445353 0.6261374104338442 -0.4841263839749597
Ni 2.287561478751038 9.00670923908244 6.263426815464361 0.4169401159364497 1.6546097852964534 -0.4726173548940958
P 1.9367255454460548 0.7461904565777849 0.9584733088121316 -0.06633600422307284 -0.037276367852955156 0.039150444947216444
P 4.973408200315739 5.918654408298365 2.6609698962576354 0.006245466689079567 -0.15862832330059135 -0.7486147377351752
P 3.731039152890916 0.9643027431562796 4.282552106164218 0.027041834609140527 -0.06001828953516115 0.4758181212195805
Ni 0.4163057389109383 7.767476655940037 4.802459923870965 -1.3801440086085521 0.5144463751147398 -0.24824746642132084
Ni 5.690378331486897 2.0649548125958392 4.683172780399835 -0.851934518271449 -0.15114975553535903 -0.6716040274070757
Ni 5.220567072296879 3.4521590138668756 6.428471589458026 -0.7903833370315292 1.0656230157709776 -0.38782340107615143
Ni 8.123707673579212 6.645436277589163 6.768037283030989 0.6652086654036931 1.4862506078613436 0.8632260320248681
Ni 6.037684599447816 2.3664028637161265 13.576867804575986 0.9180758899852124 0.014069847829504802 -1.4536168809867223
Ni 0.28895797367609644 2.7712079287845004 11.189229340267836 0.012985613626390538 0.7218459542817633 0.539664012030948
Ni 7.2806022995167945 6.049864688148059 2.9944994963238196 -1.196088760594424 -0.39124476805287456 -1.1419145885448656
Ni 2.9540555666599255 2.079640415037724 2.4699336176681954 0.2981790611444413 -0.11082740176722848 -0.13386731430582752
Ni 7.445627870667915 4.254801255422852 7.413629534039715 0.6319643015282665 0.7678157361436583 -0.7475734409548545
Ni 1.4742113664232999 6.364562700624693 8.248477685807597 -1.5098775032516643 -2.206001370176975 0.6171858576675112
Ni 7.141491421591268 5.912536931316036 8.850252707811949 0.2711606235740685 -0.07684564550514507 1.5657573451384195
Ni 2.5661672914530014 7.681694815026384 12.740213671187758 0.8215921585341657 -0.6463941038003513 1.9520720228795283
Ni 5.080587494351439 7.900351182143667 3.700972987991216 1.8967907338087207 -0.30002305633171555 1.0253695675675694
Ni 4.970555206566133 2.682125027795183 10.626547648001683 0.34285557811620954 0.6792643721658108 0.7600399488529813
Ni 2.706110292555497 6.884191619903994 2.041529173532563 0.37982778446518456 -1.3822104042192773 -1.85435776145549
Ni 1.4964226543008456 0.4776103565266827 12.032080505271793 -0.48485580594181654 0.5588529262545731 -0.03387968346658036
Ni 8.13863102550023 6.325087142877733 10.977716430577452 -1.4424932602697351 0.027594107568184735 1.3163631667071654
Ni 0.5842867189719074 6.426148959931104 2.760141604951892 -0.22126528140552215 0.5701328700437664 0.3432633550775894
Ni 0.680634695390912 2.634913467765636 1.9121504790932742 1.1056273240780572 -0.587819231579936 -0.6836900120373323
Ni 4.692818093884083 7.162011030482668 0.7851265058913257 0.9168052508029049 0.5395089745103224 0.7011557729222634
Ni 4.767782333497141 5.551441193565353 11.714945560634037 -0.03125407291827521 -0.5653012529830781 -0.3470048243978927
Ni 1.385841713871384 4.829176564378098 12.33371692713324 -0.33762646850678624 0.7141892090674539 -0.41273919048122465
Ni 8.301288246070747 8.79887047326575 12.565773220662937 -0.31488480393489643 -0.3571169731312301 -1.3108653768173875
Ni 2.8040630779586553 2.1422233933143504 6.150042260023267 -0.02443242201075147 -0.02163094800621436 0.26420064731646753
Ni 8.188540127696873 0.6178441435305808 7.991033405590697 0.4181066254407251 -1.1341966510753176 -0.6796960603865907
P 7.6495620585003685 3.8769533236039666 12.620190418752388 0.7728525272366175 -0.6176998211894522 1.1860146641878735
Ni 0.31382839803564744 5.0640639055516345 5.838060078135201 0.7143565878832536 -0.01145246481131576 -0.6270118426189976
P 2.119024530677325 5.092548121994022 4.493595917843848 -0.03760906860202556 0.39345051745494175 -0.40764352112587215
Ni 2.239755545023656 4.196122855130464 2.4025078653858274 -0.21054583810548902 2.595693449030749 0.25022952984835617
P 6.392132495993486 7.548207626703447 5.729292434694671 -0.9046207929215709 -0.14497499418321486 -1.7915837635520628
P 4.1184336407181 3.4719745185316104 12.5904250983859 -0.5593892583740173 0.45216808590080837 -0.9567586512673909
P 7.222838320297998 8.674262313567388 10.57140714284302 1.0859894952424716 -0.4336695128759886 0.3294992114139616
Ni 7.221997052910293 2.125434622403204 6.684323862585804 -0.03816134156106976 -0.028712794553660225 -0.8496431511341109
