# total energy = -381174.72404245305 ev
CRYSTAL
PRIMVEC
9.23373150467846 0.00000000000000 0.00000000000000

0.00000000000000 9.23373150467846 0.00000000000000

0.00000000000000 0.00000000000000 13.51449941698350

PRIMCOORD
 96 1
Ni 6.305789209715313 2.983187850967883 6.655350588571898 1.324256196301997 -0.18869737477182988 0.039392642865009576
Ni 1.1835427872341078 5.415722115330582 3.3629887775862404 -1.356756225812231 -0.3709204546732257 -0.5496501767093824
Ni 8.346296163389496 7.294620297767002 11.780007938385419 0.34838473546455484 0.701086867357541 0.9519311479717606
Ni 7.0156507973307525 8.493888129991278 13.824116970774027 0.19741315737827292 -0.27155965878470006 -0.6297390117421735
Ni 5.158784298597525 6.330175494987792 3.3509470681489666 1.176827598371967 1.0894807962251816 0.4032739313032667
Ni 7.463385211029063 3.9392484254141094 8.789006503700167 1.6696756784906406 -1.1211079362121597 0.825781514025165
Ni 1.7370680643806549 8.859322293544338 4.434756319893469 1.4100253695490168 0.953669470819106 -0.33107915430657175
Ni 4.189482552973436 3.1269478189372983 0.9168033643606737 0.6066253085428455 0.6785133529323992 -0.9639351144111722
Ni 9.154164578677065 7.658669401573425 0.915068346184718 0.9076333544956496 -0.8232613187064726 -0.5738344872650697
Ni 4.773285236181497 2.9496509376359463 3.383206033021338 -0.9876640825969958 0.015601453982682808 -1.2076672094606424
Ni 3.212008954844181 6.941587035812178 11.005275692476427 0.631539555286022 0.15843214812938522 -0.296536897555328
Ni 4.55071536862836 2.5314459977359656 8.294078487568067 0.304042976124386 -0.30554604303247374 0.7964711950968218
Ni 6.749793195829344 3.4024269688120206 11.986766887244098 0.3921659943155633 1.152246309488177 -0.18914243272904846
Ni 2.2723105528715757 8.387820254593713 6.749560505791909 -0.42549700436752524 -0.06820082534595351 -1.2589249791943546
Ni 5.449554508075135 6.080495391327121 5.700429456610573 0.9207513799348466 -1.1916610638403735 0.05423870673890659
Ni 7.688577458369169 1.5647204632406237 13.412262068125798 -0.4290091312858418 0.8998948482008114 1.3579430470314808
Ni 5.580414952937525 0.2119778539840117 8.948895954105769 -1.1201764255368254 1.0188680190036261 0.1371092182818929
Ni 0.5550072910754501 2.1868338990407015 3.570585225905053 0.2432273874989101 -0.6672058983393799 0.3051503502559519
Ni 2.1657071210386447 3.458466486161008 2.4092430996632292 0.5783382886726943 0.10957887407210805 -0.8337434491847189
Ni 1.8258503941401725 4.393908137845611 6.059780437756397 -0.2256659815763791 -1.5498013360297955 -0.794162087347671
Ni 6.812702609521658 0.26499424759266976 6.7742782820304175 -0.364918728563836 0.5489714054748029 0.5196572298917179
Ni 5.995508125273392 8.490499350477837 11.332502521231886 -0.4163140523166766 1.7399886650835903 1.0151005815413938
Ni 8.709015609839145 0.5446470441705953 1.8699876313997144 -0.4364082519633903 -0.1776092352784683 0.7922080489450938
Ni 7.610515491048632 1.217033531907823 11.133353090621238 -0.6800567861601192 0.040847887254297395 -1.0381600344640183
P 2.2706023125173886 3.7363648737265245 13.347379405981108 1.5567062906797449 -1.2842164067712916 -1.1296792228209382
Ni 3.863356385029972 1.1801170727940888 4.765252813024159 -0.9436521957924201 -1.0329316961855435 -0.23091051780477007
P 4.016036137767739 5.668689427456608 8.929611305566741 -0.4297740344763243 0.1285204481716174 -0.21735103395278052
Ni 0.24495520317830624 7.521493084266364 3.393842368502356 -0.04508660792599332 1.0829764194477607 -0.9351678124704927
P 0.40133860567858376 7.651236247599798 8.227370316677305 -1.4686076979685998 0.7734953030269388 -0.3547405024792536
P 1.8013440703563182 9.063951020512686 2.034364675384424 -1.9235458904153777 -0.9481379994779154 0.5796500655055824
P 5.420717564150125 6.841835032859285 0.34234152408394136 0.1179663268048549 -1.7403419346579512 -0.05099603143189282
Ni 0.6152223018739698 6.56812875946026 10.213232046480783 0.3632338846622454 -0.4762891473187282 -0.10430965525336873
Ni 0.6182555827191077 5.243023632388069 7.938552118069293 -1.0810290659134028 2.32030567474921 -0.20047045614735798
Ni 2.8948579740589335 7.880888387324081 0.5175386548093897 -2.532402659391903 -1.082799013329632 -0.6067543779215422
Ni 2.274849829073746 1.6802436798419056 6.4638503812553525 0.0022039496298542688 1.1586645543096947 -0.36948629332986044
Ni -0.02882771019336603 2.712454839158308 10.217975414426437 -0.4268442624240391 0.737003378748492 -0.5301169917724612
Ni 3.2662478945225386 1.291965264200957 2.11431678757254 1.3405950426713364 -0.3513713288967046 1.5774818326641993
Ni 7.7174328697574675 7.236844838868896 7.163333254502648 -0.21216589020741522 -0.9906398773958681 0.1865340485719239
Ni 6.692405553660296 8.049727170439295 4.954145414524368 -1.0838238550497203 1.320028274263578 0.07270025587820382
Ni 2.7815785542472056 7.293715392065866 2.7196442226165254 -0.01350137692054449 0.004641612537069426 1.8931518515045527
Ni 7.62882598089919 6.316398767374563 9.429985376622625 0.21120686872825564 -1.855262789768263 0.532653899261702
Ni 4.70533420501142 8.728591120924968 13.407924060999328 1.1854364230869003 0.016084564266688427 -0.7633595001445176
Ni 3.35653532254007 5.0770934747407965 3.877661282093253 0.5410061278811392 0.02852201869909281 2.261014493188061
Ni 7.550043782510402 8.556566700392485 9.72220897546104 2.2264023024308304 -0.5444112969079462 -1.1048338816424843
Ni 1.3244218309305156 1.5953856860311966 0.8670474013956022 -1.2630598272983344 0.8876425131960197 -0.6346662738404618
Ni 3.9735794396674518 5.3777068421511816 12.681114882324021 -0.06642856393687915 0.49638797495113224 0.610117123746188
Ni 8.945417607395378 3.1856835859264083 1.4298073335595691 -0.9351292459230733 0.6550335246429042 0.7179263075123828
Ni 5.0470284445071 8.826173196941461 3.245399051842974 -0.1021599559002176 0.5134778405538835 -0.4852162746050288
Ni 9.384980168588521 3.304115427995631 12.604865496525253 -0.19565272304374046 0.041690437760250776 -0.2955123129455556
Ni 3.0788954794605923 6.20020148836325 6.547518147057116 0.6621642221504145 -0.8166813514961098 0.7293103809796085
Ni 1.9037092193645357 1.983728737793655 11.488460248703362 -0.5684459692596467 0.05966193463700693 -0.22949306863195315
Ni 4.923074830914612 7.753204346147314 7.322101729886636 -0.5823648933335841 0.6204141347968218 -0.2724957974457242
Ni 5.5436647009933875 4.65260959732272 10.065707486120006 -0.24955435815820246 -0.5759448487398533 1.2964386598690962
Ni 2.951839332035635 0.43952193277390955 8.55132655768437 0.26504499759463385 0.44032069964391907 0.3900764587763863
Ni 6.297312644065887 6.387249190280936 11.817510739458562 -0.983813341392338 -2.39946017089319 0.5441282184498887
Ni 5.8426806328293175 5.067416523977616 7.813840415108811 -1.0720407463718633 1.4003382241682398 -1.0495209680027924
P 8.63694633435573 4.805797205300921 11.061023423905455 -0.27191189991779624 0.32412971957193215 -0.18635972777758875
Ni 9.050737550529757 3.977282166056798 4.90731746786369 -1.0776817467077247 0.9897533610258566 0.4496666596351933
P 7.9732349374982805 0.8417377429586976 3.9262187066909 0.5805517513842453 -1.453634364488219 0.8701399855358821
Ni 5.566896769810334 1.1089342355485223 1.308684782089211 0.8113918209623961 0.8649620408793683 0.6913878949022222
P 4.502413718397259 0.7680848824982928 6.878299039122449 0.23672532471433425 -0.16787092494478184 0.16315397908508678
P 2.0383000918112057 8.61075947141262 11.937654515374632 0.5341757352228672 0.09170919288053882 1.033419948675872
P 2.7635266088826858 3.0851744169786857 4.451527546678931 -0.8012107666643363 -0.9068108585943545 0.872009434644453
Ni -0.0483588993672955 0.24884260420053783 12.405107562999248 1.7325622907125324 -1.2082955870732608 0.9218106744372963
Ni 8.032340053753162 5.415205026358503 13.478010854298722 -0.5462570918674334 -0.3806921893480089 -0.6525914908603149
Ni 7.740840379475656 1.3721879247262498 8.689417937797376 -0.5473765501838572 1.6098345379632921 -0.1459036766450713
Ni 6.100689562433107 5.170474202859152 1.6725953799209687 1.1989393426693415 -0.5830256668460346 -0.2057317045462973
Ni 6.078380866780586 1.4696684296946565 4.775105204688581 0.7223928279241688 -0.3806939891202218 0.6114687526780759
Ni 2.3483780341569536 7.098274228083551 8.748949652454222 1.4513041736931456 -0.08530817445020147 0.001658875759661659
Ni 8.558967470619992 1.9125828354746657 5.907120075855084 -0.6538952972734029 -1.0797705109159532 -0.8034458266424421
Ni 0.8073725638982714 6.447139173725578 5.508306895781204 0.2932983360133723 0.39658752042202666 0.699639079167421
Ni 1.8836166193066357 4.590235740065774 11.249496813989014 0.028560071025879846 -0.2744675764601144 -0.47002208336309376
Ni 6.363546201150132 4.246094561684367 4.388279255035274 -0.24425994252848254 1.0134208798461257 1.36062085097396
Ni 1.3726680787717513 6.525986008235877 12.514061902908807 -0.20136417160622094 0.9466189917302279 0.09851310317624969
Ni 4.092103619053116 3.6840465502301725 6.211534047210246 0.10318016963461583 0.4150462413478465 -0.6683289562002296
Ni 0.9252753131442781 -0.07242292740539005 10.234571200310658 -0.41332823021547527 0.20799658932107404 -1.5619073752647101
Ni 0.227318775737778 3.0532257054895617 7.668600279956822 0.5700444240950182 -0.3915324744966225 0.684593240577892
Ni 7.209448357080389 2.6772096854721843 3.123416839956535 0.8511912123475213 -0.28398811435603993 -2.1178474987478624
Ni 0.5043261081996243 0.7296522446485719 7.668140440120938 0.27694329169411663 -1.625654278604368 0.8467892266250837
Ni 5.469684043059611 7.125846150773299 9.61644488983457 -0.8746815821599775 -0.44790082598402214 -0.6967944106297741
Ni 7.1250520498518926 7.7092056148624355 2.692291139366747 0.06962804471078332 0.17717111929978518 -1.51109312082632
Ni 3.9915298139838846 7.552841603198611 4.882477806367478 -1.472335283331832 1.6713394393463086 0.3204838952892287
Ni 9.06396025424433 8.627574096736812 5.740730078371927 -0.6423178768484487 0.7173529515074162 -0.3652095203313775
Ni 7.83456275566485 6.22762567134669 4.385238587204819 0.24779700914746358 -1.8547557682248572 0.24955255838598958
Ni 2.597661087356922 4.0915034264962395 8.381448979759178 0.27452491206061114 -0.1896329992122218 0.03339400207941346
Ni 4.019591124450777 3.3126566297665674 11.55105940901243 0.3049264071706039 -1.044779596663065 0.11080194784593175
Ni 3.7631057605682887 5.499425892685759 1.7008136638258138 -0.5304388938882542 -0.2611448912092793 -2.177647244514314
Ni 3.7175003599773104 0.43648311168978504 10.855157376896777 0.15566795512068674 -0.5386617960186788 -0.10334652000915105
P 8.46638084342304 5.799078952005143 2.0712866747371446 0.2209544350333227 0.6733580339837049 0.9042297281307395
Ni 3.159275113423837 1.1409106482325795 -0.3106485869613628 0.9354580900174018 -0.13492840858049018 -0.29133658430131115
P 6.68924761743796 3.296460664462543 0.7405434311229715 -0.2744608915918951 -0.5955466821311807 0.0844944202996545
Ni 5.430311411328506 1.337801508083042 12.329305089812062 0.41217894710238046 1.4054909720137732 0.16845842201713568
P 7.544411206207406 4.978975842288936 6.291918298039312 -0.026246592401354796 -0.1715871974541045 0.03644615864217594
P 1.8538008998273343 2.2319960805127557 9.301084329615144 0.30884194017492617 -0.40878997602548955 -0.6479861308778195
P 5.705938300909535 2.052436934958561 10.277263358567875 -0.40730464972921465 0.8378793257299634 -0.30973899806789884
Ni 1.079552501456501 5.1032249352940395 0.8022432259698874 0.10250885459920411 1.1684907963714972 1.344773342418742
