# total energy = -381166.3941177062 ev
CRYSTAL
PRIMVEC
9.26788504930305 0.00000000000000 0.00000000000000
0.00000000000000 9.26788504930305 0.00000000000000
0.00000000000000 0.00000000000000 13.56448658182969
PRIMCOORD
 96 1
Ni 5.639628347572191 3.640768038111292 11.344834393996749 -1.35315873826896 0.31617832593533934 -1.194309042986182
Ni 0.9043694609391122 1.5733439173343837 1.3793995272959303 0.19081930621083912 -1.418101461688932 -0.9028521310569225
Ni 8.014653562912274 3.729582177587005 9.192747219319749 0.01089299276341995 -0.05774646278184893 0.32481928943978894
Ni 6.5061014278041975 5.617533710348973 8.691376897739731 0.781509431580667 -0.9753315291735718 -0.7454008587835679
Ni 6.386026713096139 6.134023659095918 1.6142282640820784 -1.8043467196446863 -0.6741015970179487 0.8972237291265516
Ni 6.587065668904043 3.5825101146275884 2.0979645813648573 -0.8759774181532656 0.976995032918924 -0.2539015793833047
Ni 3.191739022396143 4.061224165169066 10.91816322343147 0.3611278940628361 0.02035722350011333 -0.044254598943001204
Ni 2.11425474237461 8.239483178851053 2.0336556559335706 1.0383297272726633 0.0830350621453086 -0.27001236890223823
Ni 5.657283668004334 0.8433163434174379 8.11043715171343 2.2311495873078284 2.6228453268551926 6.113047420074176
Ni 6.918457423598091 1.2027304744152278 2.9745693131960347 -0.32680880906599197 0.4113600507455109 0.84129580761068
Ni 3.263889505107029 5.658803601101904 8.501175806348282 -0.78389875774845 0.004940631834726975 1.0238731855277012
Ni 6.799346568903125 6.631996374129783 11.80663733525081 1.549655040259918 1.9793403716771782 -0.49434317660696153
Ni 4.086581097821217 7.003953660336425 0.8675110833230307 -0.3585585906737631 0.24477004939568167 -0.29017341723114537
Ni 5.3701553308346535 3.624864347895251 4.059877541516158 1.8741454856053787 0.13434631082477508 1.3001235649198513
Ni 8.401708233362465 1.433000338697139 10.337697993103923 -1.234088636876965 -0.8784827010736226 -1.284508998311046
Ni 6.434052891825466 1.6613332150681221 12.335272846951206 1.9451400716463858 -0.8589536299017593 -1.225185420850064
Ni 5.959861569037734 2.3162946297345743 6.124664022295698 -0.77279390608454 -0.5368370841051142 -0.9439157338664518
Ni 2.5623013623071835 6.567510432099938 10.695990710048019 0.8396274187693218 -0.3402759903144914 1.9136396870452588
Ni 3.942104042589359 2.2537364077309157 9.200750037793847 0.09292635311709158 0.47877154742094963 0.04185190303877953
Ni 5.068856397895551 6.362059963155182 10.350964043322595 -0.11912075212427227 -0.20109214889175692 -1.002924351190176
Ni 9.058263724204417 6.03924100184682 4.400210951408595 1.0615920402347134 -1.504316721334435 -0.31643595047210016
Ni 2.1201954564937724 5.822659803327784 2.1848593419106503 -0.2613536647859757 -0.15012902758032853 1.5571243520537699
Ni 1.3624346642770122 1.9974515909802235 10.482892382614756 1.3913761298789455 0.6423803546552678 0.5430524688872067
Ni 7.909666964563023 3.5685990196309234 11.58586149209787 0.33541583400871267 -0.6766511029126798 0.8843774692915027
P 0.2747343949051635 8.180715521706578 2.8675864124735115 0.26512393046168536 -0.47522548194090414 0.9007952485278938
Ni 5.994115671041515 8.68684397531277 10.540066890372204 0.16149793153890252 0.23921312413319448 0.5739972380951792
P 8.366527342884556 5.428385450664133 10.654238889288541 0.38697673680514 0.9242465375722986 -0.7196959978182961
Ni 6.560151731615359 4.987299012172263 13.129988402785358 -0.4391549614705921 -2.16231087126756 1.8362255706311537
P 1.8446612431354361 2.4021708497473 12.901888150321382 0.27755187181239294 0.23363717270731374 -0.1015421198105606
P 4.197981072411435 4.897020546907428 5.391245329351917 0.027961003989300234 -0.33118894041155866 0.12479080592585602
P 0.3378968829939537 2.139750693297879 8.437842789180253 0.9368783674036962 0.14426099883532575 0.4407886404192732
Ni 2.580809328135525 0.7867572232068116 3.625122921879533 -2.3347300777046565 1.3571632314426625 0.31861830283539966
Ni 9.177152149665593 1.422351539129405 12.537857685933957 -0.1882327764305855 0.8057641903629735 -0.17341910845652067
Ni 8.85272984429699 8.448325693611118 7.994379138252243 0.6496933433769133 0.3538390737109068 -0.2532166375011381
Ni 8.113189713481592 7.07335158127915 0.6235692354707791 0.9877319597204537 1.3248110403642022 -1.6873553551585907
Ni 2.109926640200431 4.057544814926778 6.263238361735831 0.43679905964390575 0.8940916112554731 0.14261806391526405
Ni 8.129056332158669 2.9690873593715663 0.4649679238932074 -0.1565074203028466 -0.04351849210792505 -0.039055828350881124
Ni 8.992934404663115 4.0797970061905975 7.092327575286926 0.3732290482017443 -0.6824988199427084 -0.7943973432869286
Ni 3.6958192734745117 0.9100293581506136 10.932040027254594 -0.4109592157626665 -1.8573057883402206 -0.010523782349459295
Ni 0.9397635127660711 6.546907924320066 9.270865293015547 -1.8726933265398844 -1.2531063156300484 -1.4042578709376203
Ni 8.02893537329859 0.48724050450345807 1.0400234898972678 0.08320681183648251 -0.6026786651902718 -0.9583910446644914
Ni 0.6477917790305957 8.672228521075768 13.274056744300124 0.839246124170503 -0.7706760884105889 1.1681246712813302
Ni 1.251970746045663 3.983985613735216 3.358932589917358 -0.4498180976113931 -0.4808819088957331 1.300333624048128
Ni 2.340316986983979 6.091465532363949 4.600083080527574 -0.14568024778035554 -1.1430525588040505 -1.2447196342282498
Ni 1.6604342302482178 6.508511077836932 0.24611424003560822 0.09393371133568339 1.1135640624266308 -2.3639123556955677
Ni 4.397833738972456 0.6150640976437038 2.471463116803975 1.2008085346675963 -1.164431281590143 0.08215163109909078
Ni 3.0358068616240605 1.8217695678244679 6.54672256662524 0.3503338887711257 0.05532834025865955 -0.33256628037505953
Ni 4.709095648008438 9.398191200745186 6.60464313910436 -2.788317155440178 -3.2782143804606445 -4.304349622549645
Ni 8.049537881078463 0.8311828287141506 5.18787364695463 -1.1227002203999437 1.819128505939551 1.36008888972989
Ni 7.746626336194376 7.438978902207496 9.564441297599739 -0.2564546848224616 -1.2160328078165186 1.1027286623740236
Ni 2.881311222986877 4.399168314375201 13.404954494809054 0.7479675910694795 0.068585719489198 -0.2560268532564236
Ni 5.684818553570685 6.985732998935063 6.093696312221176 1.0211408741982027 -0.8493994105544209 -0.11830699797372529
Ni 1.4699977345843398 4.0160524949400545 9.004051232410285 -0.0902385218722833 -0.2718460796768673 -0.34684258778841554
Ni 2.928086237276131 0.48529888265015936 0.3549896428223015 -0.1616246869247539 -0.12272183921196927 -0.46667862081215755
Ni 9.079060857563857 5.239153780016622 13.299164370852735 -1.3724042167621333 -0.3620357505890862 -0.10290583292730664
Ni 8.37312607682035 7.917535398708372 5.237546728802483 -2.385699369663672 0.2577613194490271 0.3079482247160632
P 6.178296344505027 1.4991174284414501 10.223648330266172 -1.0762619835420624 1.3953212305696228 -1.0414821568587163
Ni 3.4900258927943284 8.342699611214718 4.7143774155224945 0.6346991839609263 -0.5922204459714252 1.2119956616326675
P 4.925148577097222 3.4311655568024415 0.7861891018721711 -0.477704539609016 0.8265950110653957 -0.7938820942134069
Ni 1.0132300351102193 3.778655627292097 1.09460391671563 0.2772718786781289 0.902483177753278 -1.1916458943317219
P 7.941224112107091 8.719633751527429 12.146333114673045 -0.04084043105512966 -0.06816405857074713 0.09634797720413084
P 8.398900064285856 2.9766962927441596 2.986384012664222 1.6427971089322417 -0.7292180783761183 -0.4187010644916144
P 4.511402398592135 1.1482167763670026 4.7172532401577145 -0.1478875398443195 1.2049577809492797 -0.7013038684643536
Ni 3.0165667329011576 2.686268588606582 1.6713480913195522 0.6373075681180509 -0.4466193881684373 0.4334717950428857
Ni 7.530805104224125 7.973624637162614 2.6602805130035505 -0.9850531273367099 0.21215097780907977 1.8990877573730134
Ni 3.414557507346063 6.586314970239999 6.493278382476158 1.5477506241483538 1.1701591852128557 0.05205841125813615
Ni 4.08133547505765 2.213967914306071 12.670993630607908 -0.1553437390120486 1.098613354654069 0.8347806321999817
Ni 8.458409152209633 6.315155198479549 6.922106189820735 -1.7899601119057107 -0.5642717832772991 0.3770998440110603
Ni 1.0021827164986103 0.591367043148718 6.759060927509718 -0.06715798590373595 0.10001617008433743 0.746658642450069
Ni 0.9982160618293413 2.2506780057662925 5.103733301753946 0.058613438767834536 1.1100833029668817 0.8453146989620861
Ni 5.743335977827145 1.3174761553970495 0.7936404812041623 -0.32752357574482954 0.23861431420693097 0.7234680632662186
Ni 3.8696940591057176 8.059408178327928 9.452425935462701 -3.1508270174522055 1.5832824985063763 0.8364220244581466
Ni 0.4627269493627652 7.840426597660899 11.045602199354953 -0.4038588572724593 0.4426812294562957 0.9605209465233007
Ni 4.813285208269938 8.68987457362317 12.671752670368218 0.11380679611052658 -0.11318150382170185 0.5970538628043266
Ni 3.255464997877203 3.0963539526388604 4.066822894341275 -1.2508278040085168 -0.27419606796628265 1.1775565061181914
Ni 1.5156049953961923 -0.17414540786565116 9.31797487794396 0.3884654055355245 0.4367298969688672 -0.35262165636403786
Ni 4.384580663792422 7.1016093618553215 3.1086274124017415 0.5687660716032269 -0.2940871504632548 0.11750070002234603
Ni 1.2734907744149215 8.210604449997215 4.908716617450927 0.08074498055955127 0.655235099130749 -0.6946043449569909
Ni 8.742062032601332 5.027271399061416 2.234044006232638 -1.373887486175879 1.1403112486134876 -0.4422816800250318
Ni 6.63580547475845 6.253180853214591 4.0360989296354495 -0.024230847522906655 -1.2824577722089718 0.33790183365536
Ni 5.853345769706172 8.613034541233194 4.5115479043825735 1.1357758226369796 0.9327046956419808 -0.8498974332367621
Ni 0.9034834511578456 4.3426527532228585 11.571930934543246 1.0103656379595696 -0.18322863834777478 -0.8308854109106335
Ni 5.498052140264355 7.710388906855961 8.235610129817669 2.7345911266716327 -0.461998698837985 -0.7816235885610281
Ni 7.762196382559732 3.5295626891006404 4.925183795059238 1.3414129105869415 -0.47848049854309205 -0.5667917214856755
Ni 6.653812974810762 4.585684494793516 6.488829797800343 -1.2650094948255375 1.0217563962950142 0.5347064109153565
Ni 7.7028263129070735 1.6919265025990964 7.555175007151328 1.5395128096195938 0.4189139518333689 -0.0723816961965205
Ni 4.400447282469498 6.031826694053795 12.388350022864532 -0.5425323347176785 -0.4217413939798349 0.7968545465781696
Ni 1.295594679522881 6.965000740768813 7.06959345401656 0.5657262563356386 0.6507379825913439 -0.6784961265412186
P 2.8346196196602946 8.681088618888433 7.535885758639297 -0.5878523988107166 0.05498201266283434 -0.10448269049612327
Ni 4.391438898500971 3.6627051212939086 7.448679597166197 0.2108623409046433 0.8511765570595019 -1.871942307306473
P 7.132860669202926 8.863156214630934 6.920004233561411 -1.2192510576435003 -0.5755247304832992 -0.89436543374215
Ni 0.1979861145741269 1.0246480691114797 3.4801314990445347 -0.6294294509215547 -0.8137358957145404 -1.2954189603553303
P 5.860519112495924 8.400392193729203 1.342573587276443 -0.9249019117681103 0.05892402802971788 -0.34821247155274865
P 2.693664360630125 8.030427502741937 12.337225590266195 -0.09977474349749269 -0.10355940735090552 0.4641250011523684
P 4.7713572977003755 4.439140701264353 9.36105571337534 0.4771509810983912 -0.9070862237429281 0.8994418198237929
Ni 4.111400493158372 4.813507637503729 2.3876749512234596 1.0960286246460285 -0.36422890158566307 -0.46460348345068375
