# total energy = -381174.56849306705 ev
CRYSTAL
PRIMVEC
9.17557717388348 0.00000000000000 0.00000000000000
0.00000000000000 9.17557717388348 0.00000000000000
0.00000000000000 0.00000000000000 13.42938467553254
PRIMCOORD
 96 1
Ni 3.62436216395491 6.817325390943829 13.46739010292604 -1.1230033534626596 1.3333170209526843 -0.9589998818930838
Ni 5.637061721961511 3.113410972788323 2.2941420370256136 0.2661225469295288 2.1078091406752537 1.1025322300925011
Ni 2.4188106042486215 2.938423540278572 11.243725674264295 -0.4345508870396774 -0.5426547192281557 -0.5343631686433249
Ni 6.178099630720227 6.194578967345864 3.013889909958345 0.052096206474607054 -0.02404007166833924 0.20576075801201985
Ni 8.68953768665916 3.9366988113583985 10.53200826648455 0.11837358954560258 0.0030513852318140994 -0.5655581061888905
Ni 5.710842538112258 4.8731031654746015 8.76214953427644 0.19439648203913618 -1.8548169604800957 0.8553792822869397
Ni 4.878929656987563 1.2664957433741493 3.2379593399501974 -1.9834333107996291 -1.1844648032022504 1.1972578412018606
Ni 4.465395568802258 2.9717217098857187 5.926991609877358 -0.10721268783277664 -0.8561254164243448 -1.282916199902629
Ni 9.35633605632599 1.967023534775856 11.951400322735998 -2.090681479856032 -1.4017590157751665 -1.7685741900307668
Ni 2.475634953760073 1.9709139795026207 5.172918820250393 -0.20745460077467498 0.2010625812054021 -0.459151459197177
Ni 5.92133027875374 2.397036959586798 7.525128497496128 1.3826359217924706 -0.41723784968252664 0.7764531001036821
Ni 1.217333000812813 7.893877510995427 2.486745660174317 0.15972849834330552 -0.40509170123829585 -0.043344685534222126
Ni 7.079838654228604 5.943094747838377 10.349382165967647 0.7356581775745072 0.3977542870366182 -0.007876831644915466
Ni 1.2068544916666677 8.659882221194763 13.134341425141121 0.5400748743161216 -1.0660770725892608 -0.8660159360651796
Ni 7.196634576226225 4.183237394762755 5.7589904618368495 0.76753934255382 -0.5119372355396409 -0.16016764276325318
Ni 0.46023502338770067 0.9075214722508479 1.4083263101654147 -1.4758147572400004 -0.6138192551881234 1.3275929739847137
Ni 5.1267986990838565 8.003966086070252 1.7454572022402806 -2.3415895238286515 0.04441117912552352 0.8867842789607825
Ni 2.926449412051147 9.499199793108371 11.38666740345276 -0.38821472297729914 0.18902621886615834 1.51783866708027
Ni 1.2117083719979382 5.832776783333908 0.784818313661031 0.5599554152901325 0.36111735253987487 -0.7027465144481511
Ni 7.495969430757482 8.497942459443172 2.044341535931716 0.7779715936307375 -0.9570792678316032 -0.3873230644009652
Ni 2.5040884186131342 5.630895734092676 7.3610086186052 0.015182364167393205 0.38222945192814173 1.37162208718047
Ni 8.216857827934405 7.611609230029696 9.043643396527694 1.0664761077998923 -0.3698809576651178 -0.9050738212985897
Ni 4.3404700854180485 6.63225399910692 4.75671463910403 0.554313900733639 -0.7464634957201273 -1.5529213697160158
Ni 5.27553480526513 6.17239242171068 11.90958079459643 1.6527506206005278 -1.3075985331406577 0.6267022817983786
P 8.73323178521778 7.518119274083922 0.410206106340028 0.44417863993742857 -0.6666456549605357 0.16936807831559866
Ni 1.672790301159885 7.0440080253181865 5.080134466190205 0.025638526503710686 -0.34820758645674227 -0.4033312669037635
P 1.0211591605811274 3.704235563357007 4.463443923534845 0.6534165578647715 -0.3039856405238893 -0.21279683892319481
Ni 2.9294590013680786 4.6455121489588524 5.3308883097537025 -0.0978772693644637 0.05744435816039784 -0.6317259602652152
P 3.110529841551992 1.6739464238852917 9.407901882552277 -0.20270140236040574 0.20047405569178375 0.5736480822858765
P 3.1585272858107363 6.656018744018055 2.2060987036973105 -1.1293434367480744 1.337904897433683 0.9321359676227043
P 0.4123036432846942 3.6738827540264913 13.107683620743313 0.3916489454698287 1.405003233744077 0.40173409761997264
Ni 4.710539464474379 2.9149340626830105 10.295490330924766 0.15806910836301166 -0.224782036309529 -0.5124658543496012
Ni 2.4842232940059503 0.9821170796556915 7.495986864354135 -0.39939567929478315 0.35055397520173176 -0.9019735851067111
Ni 5.7676301853149665 3.029316807880774 13.578854097021011 2.3530569010383027 3.198846225643962 -2.531236921218576
Ni 4.466909539037909 5.264927838038384 1.3989121679728183 1.562197395701303 -2.2174839168952776 0.9441844141468062
Ni 0.48973175136678393 1.9836313294820929 9.381714785264101 0.645191855962134 -1.1583184838241858 -0.14302429821474721
Ni 7.1391220584258415 1.4356016309078237 2.8078422311170566 1.205852010628775 -0.4697950549539522 1.756737088186523
Ni 1.7359733256610723 8.958758296866732 9.623846338946136 -1.428165273682837 1.0780450435844144 -0.8814404981503658
Ni 4.122706112068255 7.397653121211995 10.587605841326264 -0.6507906902061502 0.479202207200465 -2.267185654995779
Ni 3.4207010527396395 7.662882355343758 6.570930864101287 1.0070663983830075 -0.5449702547352099 -1.0970879191484784
Ni 3.840125861478207 3.5122641374764023 8.026917874842727 0.14841435888206694 0.0801608259213071 1.1895576443441256
Ni 6.302245190043646 8.254789664020363 7.446150634427363 -1.0942411937283025 -0.3396679244168473 0.6216598342784649
Ni 8.64911926915586 6.243218702007611 4.111473370477439 -0.8963678088841593 0.6986805719088934 0.70094879911778
Ni 1.2981698358194147 3.483021572985365 1.7036385916584316 -1.1145817050578677 -0.5300236607277066 -0.7215209668421767
Ni 4.818701168340193 0.29036022248585885 5.9703691510230685 0.2509828630746129 1.4498561283927096 0.20793051196982898
Ni 1.5710515013241073 5.416251456986043 3.253214654579253 -0.051110959743202296 0.5257995953440299 -0.3871304887741849
Ni 5.7661162150793155 0.9813555067492729 0.912958919291133 0.023448717941243487 -1.5270696987602346 0.0026834603694340887
Ni 8.594286019893719 9.076040524455198 4.098823002211423 -1.0987524513350948 -1.333837926453161 -1.5364724801313732
Ni 6.625372316217595 1.6436394924407054 11.79937935992222 0.2073363300292558 -0.6208005716019631 -0.8452810175106733
Ni 6.572282426620751 3.971428371006524 11.446683936267137 -1.1976494202133245 0.6260301954320187 1.1231079973613238
Ni 0.4936387121324832 5.090279901884506 6.064683073800124 -0.766553324491467 0.10002285495255676 0.5777189099211406
Ni 7.407241599371122 0.7359427666656093 8.97707366648724 -0.6368028605674904 0.7650415158326309 0.21060857302262437
Ni 1.4114056338689578 7.990285300486274 7.337815512152738 -1.5645149880908862 -0.9575258684507186 2.047406728327797
Ni 5.393129002477912 4.305804754810223 4.205801056620273 -0.9756498317449391 0.6249763002462075 0.0594063669827751
Ni 4.974952072236609 0.3809250044248103 10.306193641711964 0.8667664410779589 1.9112614166210697 -1.1249383657018435
Ni 4.987889636068539 8.706998810043673 12.384766503450619 0.7825165326889427 -0.23138180101423378 1.6888465949921363
P 8.80039701021759 0.05136029329732737 10.610623694254476 0.35405221816297733 1.682871608355624 0.12938459594412557
Ni 3.1102086963504907 3.4973997024354606 3.1150396377387963 1.3361732594545568 -0.7907263221932447 0.12928740824462895
P 6.692225571593089 6.48314169426103 5.217637830780662 0.29613811945501256 0.38353634366502337 -0.5516312116951533
Ni 7.803424671098142 0.1454760236071704 13.141861728202574 0.6661180645918399 0.4180228074776672 -0.5079620529419768
P 2.359352864084855 7.127881976373277 11.71609081069158 -0.6774203769785365 0.1631120701035578 0.8252690931651206
P 6.277663818762978 2.3570589697884134 4.745138730926466 0.045273012905186545 0.15597931571351845 -0.4416497028679877
P -0.33084103391402303 0.6361308380388423 7.3300805005851375 1.316756288380526 0.3495823553170818 0.10865456248562577
Ni 8.147591395759054 5.987412785645629 1.8301028193366942 1.79197379990163 -0.02147051116895012 0.24744425379373516
Ni 7.275517013292259 0.7863625633013955 5.848833125851281 -1.8256339111582365 -0.6517836502470389 0.0012616403212429887
Ni 3.754591130952493 5.046897772950203 10.134820469055686 -0.193544418451486 0.7238856104196114 0.5448458133422035
Ni 7.957693650322432 3.7467735391902197 3.375905884918728 -0.44284063785229544 1.2884520421191938 0.3824446532627413
Ni 1.002798830632409 9.257423334263429 5.5108690913679474 1.6034492032622385 1.570954830178959 0.24444711883862422
Ni 9.318807945636204 7.2591386080156655 11.265400222692515 -0.893069854859178 -0.11808742576375146 1.0712709580853745
Ni 3.9490950161363685 4.242585028000293 12.6596530325704 -0.8015938610353679 1.0571075221007988 -0.5440806530414048
Ni 6.522715958663241 7.205369725707074 0.21653261089146392 0.5494290618375118 -1.1822562255867057 -0.9397770291077299
Ni 6.0512197493954485 8.474535562042282 3.891271446269388 0.2697166920386903 -0.17475531076944098 1.6931215682184069
Ni 1.743295436255314 6.755472825134577 9.65489465702733 0.657108662004378 -1.7870928176602447 -1.8811733389864373
Ni 7.248173793278675 5.893271363719666 7.410563158312368 2.457262426613639 0.836608943657972 0.8314788215202583
Ni -0.34743414769676295 2.439730920232169 5.725376652374512 1.1595960649850288 0.3873696013681845 0.9169587456616336
Ni 5.302006345446066 5.320687820596286 6.4450969985756865 -2.5379338736227774 -0.35433118285597687 0.2506897573142263
Ni 3.467725885816692 8.676719405330644 4.328022497407837 -0.34470342995822567 -0.25991950344261044 -0.03882982838300409
Ni 3.9597845635577866 -0.4832996717595617 8.433263815860704 0.825349568694069 -0.18040839529016028 1.1221165799823318
Ni 1.8458783891921822 3.2254080679177872 7.120313042752738 -1.7180833803700668 0.1651221585550511 -0.7132965220498555
Ni 0.21121169368143797 1.9619953184780559 3.5202046819729644 1.4896928007736732 -0.5377680805598158 -1.036497302049615
Ni 1.3564163997946597 5.112365516170645 11.432542536708436 0.5760312378060725 0.14752090053352016 1.8977739236575963
Ni 4.290472365332807 1.989054095598881 12.402909372220035 -0.9362451046950714 -2.498253010093388 -0.4979337221716973
Ni 8.227519848624265 5.467570460186035 12.689492927136232 -0.15729520631146457 -0.2677428561417712 0.061491274536261846
Ni 8.342306319218203 7.858643294602084 6.328597447721166 0.14389873039990056 -1.20489401759088 -0.7893520675535374
Ni 8.449266022472681 3.4155443783612385 7.929178709102226 -0.41571447105946474 0.9723459641826868 0.36351567756872233
Ni 2.4050655896243436 0.8680380460627765 3.047435820149507 -0.9136026847052072 1.0978078280336383 -1.5563591917529713
Ni 3.331367633259018 0.2423425919573062 0.5099079280405656 1.198764250544058 -0.5981689502453762 1.6134590220897564
Ni 1.816663351432702 1.7112176184138745 13.347438699934234 2.1752982846661633 2.6966293027158783 0.1431896201480179
P 3.881847210941887 2.6458877884419683 1.0615711551803984 -2.1232745833007045 -0.30216478526506674 0.8143902414690877
Ni 7.876278753953128 2.7841362098999105 1.139183692363922 1.4727865119366377 0.6672542350788121 -1.1791449336512339
P 0.2064816836421754 5.696418530776234 8.275911842701996 0.25637446640382944 -0.20948268694829728 -0.07086551666231021
Ni 1.7676657692607094 4.171731220971805 9.314056831769415 -1.2888713890447996 0.173271784245379 -1.082269108968091
P 6.691170380216726 4.855586988626974 0.941398620778416 -0.9584614928911107 -0.4482039590467378 -0.2738839360425025
P 6.7808891739391495 2.970914259093371 9.542141494337757 1.0467534325599845 -0.608909476591332 -0.4354379176303211
P 4.780879439180463 6.641814950534489 8.192716884358653 -0.8884364698522247 1.252843548886965 0.10251271125394604
Ni 6.923927246688063 8.249412775789503 11.025927751278916 -0.6838743601339964 -0.16939867444321793 0.3621745901597956
