# total energy = -340892.5984419976 ev
CRYSTAL
PRIMVEC
9.08031747349086 0.00000000000000 0.00000000000000
0.00000000000000 9.08031747349086 0.00000000000000
0.00000000000000 0.00000000000000 13.28996247501197
PRIMCOORD
 96 1
Ni 6.669738262587568 2.1589725745491593 11.340032414031807 -1.4519484921453638 -2.142369909369259 1.576651109232788
Ni 4.5351190991727295 0.16647763027425025 5.704543205709843 -1.1505406396509799 1.26687020218336 0.9810658605541878
Ni 2.7077052323635478 1.7180051230517468 4.8571888752813255 -0.3148814615007867 -1.6933213429340386 -0.2768910982999425
Ni 3.5877786703014993 3.9758169519622375 4.8025671342904985 -0.5778976015908498 1.1607898281828137 0.20860439810840203
Ni 5.264014333540465 4.35564662673803 2.813299334801994 0.07311471770780312 -0.008818883843210619 -0.6053497842645316
Ni 7.139453998816994 6.094572800965569 2.656929005770702 0.24688272486331028 0.10931970687345043 0.19809501393664594
Ni 5.241476985876265 4.4837063423336065 11.693651752775079 -0.1703013887631454 0.4789854632039686 -0.17300413240628917
Ni 5.599096204412477 8.092233537781237 12.444122729199586 0.014977190135122592 -0.30521025695960985 -0.14494285539369878
Ni 1.6986004848735048 6.713814123007402 0.3858980508612008 1.0193215616012767 -0.39675978433383285 0.15991130377807297
Ni 2.842103009469847 1.6871683653290934 0.35743852022093575 -0.48668745983391665 0.02925092644531737 0.7005019413883484
Ni 0.5474759418930648 -0.1408638710916647 4.757979143972089 0.2852132450123927 -0.12497463980188799 -0.36897952889677105
Ni 8.69944343933352 2.7094123320254617 1.3769202543792498 0.2666370246721021 -1.6605125239341338 0.3107638397879874
Ni 6.845433323004417 0.7652646294521116 4.7260700007703305 0.09966418606155739 -0.03912473391560358 -0.25581422302498524
Ni 0.6609172545859034 7.4794392410583335 2.5083078195664155 -0.06184865787568057 0.14806803128624177 0.4269712749202066
Ni 7.79823102260336 3.6534747663331237 3.9181996142774462 -0.013949520201556622 0.3072026047992903 -0.5208214254031482
Ni 7.728648550745677 3.887774194930775 12.693283005173237 0.39401873125358594 0.21523578738199062 0.15117495234633965
Ni 8.01238122700002 8.83987054716062 6.612846442259089 -0.11639641121457373 0.8865130275772669 1.3451446097152315
Ni 6.997855530051665 0.8322328779445558 0.39130992000216114 -0.9923280637315685 -0.6673305968427024 0.02805664902690007
Ni 1.7164433084674426 6.652313133591758 9.073190209516142 1.3573172405220237 -0.2879553265339041 0.7757822992889026
Ni -0.06061656650569627 5.133484771625524 1.450824957295821 0.39727760451051586 -0.5151125479438291 -1.4040323851903753
Ni 6.322379802657538 2.047411795579631 6.902247960635415 -0.2346296185275701 -1.1425139126917614 1.4012599646515609
Ni 3.3454250002138615 4.399840531283422 0.3835644093020954 -0.27848698203215266 0.15552603022618375 0.34524644694588924
Ni 6.086909013121659 5.563891814044183 4.8084548120606305 -0.7156238846314514 -0.20806755176832556 0.5186930662062357
Ni 5.48035289441862 2.7441354655741734 9.299651508176751 0.002366186239331409 0.544128732670521 -0.1997412912908173
P 0.18995479078423852 5.654586023742022 12.580863228182341 0.2908732715116475 -0.2185553386735268 -1.0107790713479046
P 3.9045546213946922 6.251199194946148 12.717337673866723 0.46987013116626175 0.04394478101206625 -0.8708645224067324
P 2.3308448213614037 8.529922994715083 1.5848813144697376 1.0682308857074698 0.8345813717049819 0.0691197376157971
P 6.181789249118126 8.080329241734594 5.986277304115318 1.2749941168420753 -2.5280346122311945 0.31671003006909326
P 4.747852774062696 1.1711157696595311 12.668656276486663 0.9872696753720545 -0.4437189266921906 -0.0078002127707091475
P 3.8260825188507672 6.0184343399807485 8.202444981592466 0.1951351599773736 -0.08471270695804765 1.0422043797367213
P 4.690047473808747 1.1098145472255991 3.724764337852721 0.6392222686422604 0.9237202327551833 -0.43830495476547093
P 0.2436975570555271 5.555810331602144 3.4661950370403734 -0.432608675711642 0.1273685939553613 2.8401313118979927
Ni 1.4661262000633248 1.4003574614928955 2.5607493763613625 0.6274828687181451 -2.1669008046310876 -0.3154782145445212
Ni 1.760373883809668 6.656844211949709 4.72900748343325 0.7484378458376787 -0.30915278654712564 0.14573964026338124
Ni 5.822353967111793 5.481433452183342 9.289404370046594 0.724019050673682 -0.9663678922223807 0.6982062033756362
Ni 8.70875076461789 2.3981662941987865 10.150022320029139 0.6286018128139367 -0.08625562596513532 0.30450603180373365
Ni 2.5131594331268436 5.046259243155615 6.773123123814612 -0.9725279982865058 1.2547639058381292 0.6452160243318501
Ni 0.7419254897658526 8.974658777912996 9.0855766704141 -0.7936234412353815 -0.056279648428335334 0.590648473498615
Ni 1.5112826182478818 1.127757254310394 11.658114114760018 -0.6382912721875588 0.5964447684654179 -0.861872089100135
Ni 4.022344498066736 7.0362561921273725 1.550048309081083 0.3679660000305921 -0.5662798148462634 -0.0462348625978236
Ni 5.391284061526539 7.573438686271792 8.332474218021389 1.2216632666294187 1.0326126222832281 -1.1690824072089092
Ni 5.648020954297534 2.8687900621632743 4.789795667936873 -0.9838508794984927 0.11152031406919502 -0.48085388387127503
Ni 0.7587640302608137 7.494467166273584 6.880704907721105 0.6712656702310503 0.24432242033530183 -0.24019965641617985
Ni 4.963855363198878 4.52896264400902 6.875362957023745 0.6742566345385743 -0.25899904851087 0.45992767524156913
Ni 8.249159582234386 6.974746122394378 9.212495898150442 -0.38679110315689513 1.0281990665965646 0.23307307267372762
Ni 4.33658704061911 0.5962554067005129 10.518779455827604 1.2417757211085776 -1.377338677949273 0.09484593873730762
Ni 8.035672241004322 6.902085422954839 4.847633657333284 0.3676831786828506 0.9255233474021931 -0.05883172542622771
Ni 7.19720481716684 5.884436096837877 7.266951642768569 -0.309221435001532 1.41074373577228 -1.5867609439732802
Ni 2.2384525923190015 5.434161320056094 2.500719398356515 0.6357592497943243 -0.5267403619907445 0.4447602234725114
Ni 2.2540071759405875 5.243765225848616 11.460000658836263 0.24002713539405757 0.5832722356392019 0.35584453417670975
Ni 1.1264587689292573 3.304763339117854 3.8521884312337553 -0.3762624357114294 1.2701658422154964 0.8907682033091949
Ni 3.459855159466181 2.8214180465451695 2.7076171532852467 0.8309376043048077 -0.4575900282473281 -0.34144635647350874
Ni 1.1401518874939693 3.5423770835484762 8.263353026285117 -0.021545587381259668 -0.16958790763588857 -0.20940503963282647
Ni 3.6098620020981698 2.5385207594870822 6.93949996256627 0.6701230719861749 -0.3522658156865159 0.7815963348675184
Ni 4.1611008275013255 6.753476949194844 6.145331774955449 0.25744018866418245 1.0208770790138548 -0.9555255501912383
Ni 0.8473733990949539 7.534157233413077 11.5362716924544 -0.6147553938491477 0.01931232717536674 -0.5618752580206646
P 0.2945200932668612 5.711120079566886 7.799028274466744 -0.7793018824063869 -1.9039983073007534 0.8703369320380366
P 8.745208238780567 1.6189842623434034 8.115635331657217 -1.1368669988186293 -0.31522701776566353 -0.20621995703662552
P 1.7384267567732565 3.232729181575508 10.494458733835744 0.46340843470131804 0.15120272026048154 0.1005347615919688
P 4.010294916942484 5.878252400722115 3.826459352020817 -0.16176018406135367 1.3765796882960615 0.07202302730552111
P 7.057522295362489 3.9989536005715784 10.513490170970877 0.31377845824459505 1.7642035717668971 -1.368970765600552
P 6.398790673162876 7.804051506025098 10.270509050954312 -0.5060941464953026 -0.8950825144138326 0.6077126280697533
P 2.4548183941492088 8.544978160882383 5.875213218504867 0.31968402509575267 -0.7761983037803987 -0.7802992133226497
P 7.078842880501708 4.058438759535389 1.6347713020891643 -1.6458459230608944 -0.17368316075118476 -0.09051028747643122
Ni 5.0730734202919505 2.87579098684059 0.712917507957611 1.0883456541794738 0.11610664788829682 -0.32466476613979567
Ni 1.418127642548029 0.9244217078783045 7.045540816618367 0.7267760445935291 1.130594021325724 -0.5660137056690704
Ni 6.978786863615396 0.44899081990840695 8.970272984632652 -0.7638816911965748 0.7789954069095617 -1.0266561475894769
Ni 2.6177102071017053 1.6954496147528448 9.157980396872617 -0.1570956887061488 0.12823145617628884 0.4662127369193325
Ni 6.512430844805693 1.9584882477651597 2.528575087892965 0.10833600280394244 0.20266617824709615 0.4408626881903181
Ni 3.968407413004144 6.769376584875753 10.39797309773169 0.26965215734934206 0.7849056017464096 0.6033643784033867
Ni 8.062731586709123 7.363547150712566 0.4368704123088199 0.28334405301413784 0.10775699037202087 -0.33280693563095587
Ni 7.773114864811588 3.85810879814635 8.184650283680487 0.015205246985528652 -1.203780987032359 0.9872120826612417
Ni 3.06126554904404 8.455191982919604 12.532447884100652 0.7863773011959296 -0.26394405122097125 0.4976401021906784
Ni 0.2648828454662227 4.932019770567659 10.127509489221785 -0.9818009389479995 -0.3217128826003234 0.3262547363347349
Ni 8.69300549433194 2.1493565184748693 5.917236019171731 -0.001386595934881483 0.7383187551258059 -0.2581724388445166
Ni 3.741245113844068 2.678212361608784 11.421686259775386 -0.6071930081208575 0.6885419408129948 0.6159923515800424
Ni 1.2296747362535803 3.4557599363410585 12.713948899431479 -0.9102201413862194 -0.2776961106997411 0.25377122445302747
Ni 3.2422271935242404 8.500393802690915 8.357764717906294 -1.0922647867282222 -0.4040172372271945 -0.9045056074999456
Ni 5.646704308281697 7.893628836688812 3.719847346007368 0.007693511989515783 -0.8659832830550311 0.11604159897831627
Ni 3.370495756418881 8.424827401699183 3.619866695755066 -1.9314672021449832 -0.17343222108264325 0.05296652489470232
Ni 3.6054580481831264 4.196695671515696 9.573078932269892 -0.47079984206938275 0.5499088296874077 -0.9744236726473219
Ni 7.472828770027093 6.144278458142779 11.48865450826783 -0.6399277793497172 0.012331267871843278 -0.6068387101052323
Ni 0.6086055463290703 9.224421986958726 0.5360783275545858 -0.5684012320646405 -0.0632499090985814 -0.2534472654547054
Ni 4.673012798459011 0.41398528849009103 1.5834856696929496 -0.10865713358878706 -0.3156363373889403 -0.06887985369084912
Ni 6.221334031180009 5.635172305246429 0.3379594234404187 -1.2119270131782611 0.6726880044998736 0.5159360722863888
Ni 8.000041075720548 9.075141569714786 10.975820885099058 1.0333294458445945 -0.05645628321551567 1.7829330298556003
Ni 9.144605997446911 4.761219001202784 5.774528843657893 0.0267124762941798 0.11866001043776983 -0.023168467696663326
Ni 7.737302093180803 8.710421543010401 2.6351598529543625 0.4638349807157754 0.6852624987307746 0.1625572260413523
P 8.727737708198003 1.445041703175221 3.6218870663655753 -1.7352339240074244 0.9827823290246622 0.11265159946016083
P 1.666410759865611 3.390726703476028 1.720863606953717 0.9278589375139051 0.672652523276248 -1.93388018246185
P 4.643774176590064 1.0272290609218502 8.324048591551763 1.2310488216093767 0.48960026260533746 -1.1678269375352532
P 8.602556453202569 1.632677380908115 12.592970015305902 0.35639783557701843 0.6514625194621941 -1.1690584959495092
P 6.168886118162917 7.757614763094106 1.465045642298603 0.24155102823775174 -0.08177804980975593 -0.592388081897541
P 1.6981918705927272 3.2479114721857183 6.114286169933731 0.16239833186598482 -1.7525924698905302 -1.0649054208786628
P 7.005537478530277 3.935109889279477 6.104172512468629 0.14738514628660423 0.6532553496965589 -0.3614749929896097
P 2.4231553275476503 8.600513381798683 10.420553122887439 -0.45781731376678575 -0.580647139311529 -0.44622086717843795
