# total energy = -340858.42849855893 ev
CRYSTAL
PRIMVEC
9.41500564300289 0.00000000000000 0.00000000000000

0.00000000000000 9.41500564300289 0.00000000000000

0.00000000000000 0.00000000000000 13.77981244189242

PRIMCOORD
 96 1
Ni 8.736908587079164 6.805250732419125 2.2088629209908985 1.4023377710967722 0.9150972669728626 0.5945262112864664
Ni 1.8933858571789828 3.3423646233122706 11.1962219531852 -0.9149532851958307 2.65004939807381 0.6861405304603538
Ni 6.766573889700264 0.4460810790289989 5.940201907287558 -0.1757683254149876 -1.1974833269491054 -1.422418086786415
Ni 5.50109358135437 0.6582058611315585 11.383778278356193 0.3546068051148667 -0.21732223759737412 -0.7163759323061275
Ni 5.913131883386567 5.5248099802854345 4.586720483749618 -0.2255312557707277 0.2688777410771627 -0.47139273845837526
Ni 5.56382576320339 2.6203749242139462 9.491203994653931 1.6399107885233821 0.25382881716384026 -1.0596919949985233
Ni 1.244550751051826 6.204733434673955 5.53740349168289 -0.508958355416975 1.0685221916956438 0.2676898914166487
Ni 9.38336169680713 3.384863958276473 7.060417153804439 -0.11952055866585223 -0.2579582659511816 -0.25283071491662906
Ni 0.3710208889384795 3.8585517165216956 9.301704412341461 1.0031439234001498 0.08986339792105168 -0.21748473131716742
Ni 8.190329856017623 8.550858662793031 4.029203399262866 -0.15638657845426618 -0.5069834910787914 0.1735252950170818
Ni 9.073777484956688 0.9132687174560369 6.045864631354073 -0.7770071728349393 3.3268331699096123 -0.6593190393921354
Ni 1.308412733564494 1.3505354683074802 11.862613220124883 -0.5743096271292755 -2.121102001129418 0.5687766131261882
Ni 2.915733062707962 7.841456826088845 4.740255686436531 0.684341272468086 0.34695674476877664 -0.16367565591651168
Ni 3.6228847130903836 0.12753943091693995 0.7824603966189438 0.4386265997709478 1.1114981810365374 1.264109094498455
Ni 4.337380067786514 4.071556801641347 0.1371154330419045 0.33258582075908527 0.2810917666448514 -1.1210873673868693
Ni 4.123763007307386 2.598936956621238 2.116565738775332 1.0913438175758496 -1.0266672033330706 -0.37495117309917364
Ni 1.8340336623153741 0.7326587833653676 4.431821988261904 0.12871070980555252 1.2655594537917365 -0.4947869490125995
Ni 8.02638636471686 7.101729256571257 0.049866576791735985 -1.8112010235623581 -0.8513110257548371 0.3493175316914694
Ni 5.205622462793991 7.423910745821367 6.848263185184734 -0.9485663452645858 0.6009902217442553 -0.6044005329773849
Ni 5.235722235474663 2.8359597208489267 4.88444743763508 -0.823746228762691 1.8728005415417102 0.8715119261827441
Ni 4.031185257927014 2.4761182094772374 11.03363328118026 -0.9796491827123193 0.3707093671036842 1.0468503631491648
Ni 4.56815126834202 9.326344423315058 3.055659816401242 -1.1603974778404016 0.33714078711961937 -1.1168486467151733
Ni 2.1179431540844287 5.923996799768643 3.248301186059203 -0.34185233366267576 -0.9664653370321936 0.18957592072204127
Ni 3.141165955127734 7.253621540793116 9.385637303643826 0.5913791810170524 -0.38528855046943966 -0.5500139878067044
P 9.01205270869942 9.111917672360317 7.780853376990247 -0.8306768944442533 -0.5867221418610153 0.8304917750166407
P 5.613584067431527 2.135539799420737 0.13657312872335373 0.47665707218110814 0.5767935698933938 0.32873996465043387
P 6.7385830782584 7.557914519535476 11.497710201780054 0.8962446530427339 1.1876452578127612 -1.6981910123215143
P 4.578357134336968 4.700959336353769 10.69444358443949 -0.614158126584781 -1.750445084530224 0.9721932406549062
P 3.5298832884611437 0.7502497796983572 12.408804052958569 0.5705373045710368 -2.108872806053078 -1.191226547406116
P 3.3766069984263165 5.304432945835483 5.184240985234464 1.9345787511907715 1.1672132152106542 -3.0318417624645333
P 6.067811009245424 3.625257294484043 2.9937194365173276 0.8723133390381171 0.5596468829107781 0.1911908306176449
P 1.9950114268740642 1.9258205512311928 9.651904016549475 0.15987787943697626 0.22845639983732272 0.817435970273947
Ni 7.4054667499873235 3.8850549570897566 5.658844823517794 0.33211813709404736 -0.2773055601295418 0.17436681708177065
Ni 8.548561401443616 0.6180593360494022 2.1114251457557365 1.4300123541939052 -4.9115958525059416 -2.509303868590911
Ni 7.337198544886431 9.409008171871925 9.68279841569691 -1.1157317595019107 -0.3506012834998994 -1.728114539353824
Ni 2.8463538869544824 2.289296254737614 13.495466102766228 -0.8718073459359759 1.593040606334405 1.3089481051900167
Ni 3.7628199402886415 0.2833831929599057 9.542367959207755 -0.2508201122445035 0.5685477849448337 1.3113050354579676
Ni 4.110243059365739 7.913952368672885 11.671446240332982 2.134242652276434 0.49953063434517186 -0.9147344843168053
Ni 6.447734727413444 2.8693547454652366 12.03855425297303 -0.13877863556451583 -0.46685319871680886 -1.8773501085856055
Ni 3.8483176055101564 2.2706639587929627 8.000848162215663 -0.6580062341179829 -0.13348781947922173 -0.9290776404123547
Ni 8.563766635375202 7.480683229169647 10.370107941924028 -1.3283941297297703 0.8114748675945057 -0.9859661260692825
Ni 0.5219330710846245 4.177729819007609 4.780162128877662 -0.6763279152453061 -0.024462761028054645 1.5846426120786967
Ni 7.3280189144942955 7.652337609999805 7.361120190938058 1.5921216940645613 0.3712405570168058 0.7668096634766471
Ni 7.064982489986126 4.146104815431013 13.71772048931894 0.6852954088512391 0.92754449159728 1.2294408536923085
Ni 1.0227708807778466 7.631605767821876 8.491120452702676 0.1297890304713958 -0.16859134805057419 -0.45411569654548245
Ni 5.26641515350375 6.568952923617276 10.086960124102381 0.7263492414687555 1.115774439814388 0.17400146332255195
Ni 2.2942014726189495 4.172005495645129 1.5254662710622153 -0.7425137670437599 -0.3279177258594546 -0.43003165901308515
Ni 5.675949064064862 0.29156577426637187 8.007228711463613 -0.9699386402927747 0.04715686019146072 0.24297079140341382
Ni 0.2769951117075329 3.040500715996753 2.9868022319541465 1.1643286945740077 -1.0034946218713492 -1.556768511376248
Ni 4.322334888948943 0.7949512844561186 5.109085703588088 -0.7058727187819585 -0.896045135437418 1.6716834529492888
Ni 0.3321745761200706 0.21613934046072006 9.810620296779764 1.0706952880875624 0.33789514878714066 -0.2707047669835725
Ni 1.330189641356297 6.338144063039649 0.6868397174511484 0.6423793262140033 -4.303126805886137 -1.3398054568905053
Ni 9.351981483374324 8.138302535456662 12.434351670465295 2.4019543980699534 0.1657461652922952 -0.00761560756372882
Ni 0.5649050393264524 5.851247052035282 10.571472314205899 1.5030052016118631 -0.4796266963323933 -0.4185372852202405
Ni 1.246979822478668 8.245859558635892 1.2470909195439264 -1.1900888342572473 5.194883598360847 2.2643589841802614
Ni 5.084649056733948 4.4380076468953735 6.531162974419378 0.3216282933063171 0.29726966195629445 0.9534121033926614
P 6.271655293984001 2.1923216977745477 7.0030383441 -0.6467003221868605 1.7362276553792615 0.30973976939884723
P 1.76620796247441 5.385383163385818 8.477133520486722 -0.4360840358547522 0.5028314165836307 -0.09020021243518014
P 2.538511451127164 1.2265775054943024 2.4457651731477976 -0.05376896619133966 -0.23187982369657484 0.005958017355647804
P 1.978337452079735 7.658400873561379 11.096965198881565 -1.777977742732854 -0.26862345897451156 -0.039504485852525514
P 3.403138484010969 8.956899606302368 7.624632073225513 0.6201701371068159 -1.623938581464842 -1.0725945619928043
P 8.55014312237272 5.883597011037718 5.403477862514683 -1.4444709528213961 -0.5383514638671115 0.47846481481380815
P 3.6209640519621833 6.209902272710141 0.4061473330718294 -0.38399014337299026 -0.5106365144503463 0.08220202472105198
P 5.442541661960845 8.22004361347155 4.714845528010548 0.07430950934685267 -0.361861429794751 0.5152511304042223
Ni 1.7155928927430075 0.9582686778891117 7.840933351781355 -0.7742756328363891 -0.7262721083739169 -1.4135639788298946
Ni 9.209108774450582 5.271574576534405 12.763358097224389 0.26356661327689446 -0.17605500341747096 -0.8847214828944828
Ni 4.200297587263965 4.845790366427832 2.862080712192454 -1.898217181842602 -2.8535334442365112 2.3804139528950166
Ni 6.271231618735134 0.4299804780714708 1.4259072950810554 -0.6599307048342054 0.434510006499413 -0.3526373400933217
Ni 2.661537328392833 3.387434254786271 4.022919824571881 -0.09190536805174494 -0.9272986941350612 0.6033075570235222
Ni 8.027365525292021 2.531139501796865 1.5424434090346233 -3.062479541955048 3.0405200069648215 -0.5864532044703449
Ni 6.326573021242793 1.4131358400790752 3.684598191341015 1.8812070204378506 -0.753470780275896 -1.4545129104384305
Ni 8.004995472151803 2.480675072153949 9.62067915070792 -0.6405618133892904 -0.8147512243529323 0.7045799681124639
Ni 6.4985757572775755 8.848551722658584 13.066197399112855 0.8118829016662018 0.8793890149379758 0.32561118921346505
Ni 3.066994541559284 6.5888562453085315 6.921558061738304 -0.34446200337138094 0.7479079414761377 1.2387454189226859
Ni 0.20862334154580592 2.8435105552843027 13.698014882743824 0.6205977115625377 0.1628703864063969 -0.7669320479871243
Ni 4.3100200617151865 6.963140375163846 2.96657315107154 0.9755562435898683 1.9932847496724124 0.04727744492972503
Ni 8.955694485594478 5.8937275569884235 7.779131372478737 -0.07615299031349466 -0.8097432296153796 -0.37174834989115974
Ni 8.29327352648696 0.5898529209808926 11.545801108528757 -0.502905721464992 1.5205280409869748 2.3409305500884137
Ni 5.891194920500747 5.951441540889744 12.39287386360114 -1.1284674619010244 -1.7647262770395866 1.0955133755725068
Ni 7.983802294702884 4.973062411187708 3.282434347109096 -0.5267141367384994 -1.5078468459748806 0.45483303432748123
Ni 7.3955998241914696 5.120181287605657 10.208291300372577 -0.5839674619340136 0.6051314976061385 -0.7679795154150322
Ni 2.4767301848367134 4.206436170869783 6.61052017303397 -1.3056712342109578 -1.5094828389164066 1.2549276851095033
Ni 0.8899694032699689 8.646317403865705 5.840821816411476 0.9956278175287627 -3.3020333372571136 0.5744422960523978
Ni 5.194286796135396 7.740377326714526 0.8050978359162251 -1.3759731650603142 -0.6614237444399641 -0.7306224149228128
Ni 2.7399737394665515 5.619016525622564 11.789897366411433 0.8277972589036131 0.3151717390476959 0.9078562691397333
Ni 5.642111534188623 5.442033251662203 1.492353696611817 3.21262296771308 1.3008535011073403 -1.2618598934529623
Ni 2.5575580073151527 8.172535495565178 13.146133620567566 -1.6703773325433555 -0.6592791872931355 0.3104938739560524
Ni 3.9017948369227984 4.72984457332102 8.477078913454646 0.2964512798200572 0.6505225241464281 1.988847539836665
P 8.689984199515674 3.8262205875303197 11.24549820913018 0.5136362205086186 -1.1318533476541217 0.5403317275219339
P 1.6201435666758655 2.3047086187908703 6.072294434878997 -0.10010564447435018 -0.18486360284803646 -0.9252289560902259
P 6.825831934508567 7.722178121024274 2.106519927874401 0.2547515860884258 0.3254327546540718 0.19203389534423057
P 9.005481034839205 4.885728819887767 1.0526729383423803 0.08875268135537619 -1.129162945306152 1.0838516229638624
P 5.9828311693280805 5.82757772813187 8.313622177939804 1.1230136378753046 -0.5597348146388941 -2.482970372902704
P 8.542403987826736 1.3757017780902254 3.899769669233211 -0.12054077240025049 1.601403119366487 3.4237048808276973
P 0.965311102025847 7.650840624120472 3.493692007202306 -0.33746834566236716 1.7048260011395282 0.9564285216214818
P 9.225067208824601 0.5486698037898396 13.776367500268321 0.28307254452030606 0.39546497678180925 -0.8795687350489498
