# total energy = -340888.73444902647 ev
CRYSTAL
PRIMVEC
9.11447784068126 0.00000000000000 0.00000000000000

0.00000000000000 9.11447784068126 0.00000000000000

0.00000000000000 0.00000000000000 13.33995962537984

PRIMCOORD
 96 1
Ni 6.651089696985397 2.406440901482295 11.264328888437479 0.38194791613198087 -0.8128113270177422 0.6181703330679675
Ni 4.903862520924307 0.7108672943273677 5.604917168391784 -1.393046832713149 -0.5550055274840248 1.5027624894734377
Ni 2.599257680528359 1.7916602556096386 4.689422554612402 1.799405830699643 0.08204081655283936 -0.7709385980433561
Ni 3.6220752710634683 4.687949654990854 5.053630709608165 -0.16357024068689896 -1.0168551023386552 0.08333202456043712
Ni 3.9430507232443324 2.8439084951421356 2.2076432020670502 0.06167613685355829 -0.20383165931010702 0.5021624155410642
Ni 5.4220297015221695 4.613365882694284 2.509926683060599 0.0027063431875695328 0.27476273910303 0.13056344674357515
Ni 5.774887597243716 3.0557654184296186 0.34652515650711935 -1.4071531902075443 0.5899594178513904 0.10006759214756314
Ni 6.005602375215497 7.959062841726848 12.506825447156189 -0.6779528524432388 0.3516937452331298 0.8796440683715754
Ni 1.8804534988838884 6.757492111477656 0.30288868232319427 1.1104599695800104 0.22849522349505813 -0.6902892625214047
Ni 0.8437727875296317 9.173266238284612 0.15378311617947563 -0.36477063302174595 0.11842321183661542 0.2715069511698937
Ni 8.130250964820355 0.19389411032865633 6.817586598326364 0.0503663682676939 -0.6251009987495298 -0.11068804797588679
Ni 8.852764738952263 2.5048316899390315 1.3704538018928887 -0.0635558703747744 0.46215065103481695 -0.3306479803064241
Ni 6.843642156173633 0.9389735087367287 4.330791548616793 1.7446063663612599 -0.307711940335541 1.2397126679319619
Ni 1.0912855481902277 7.681408502796087 2.537353969825213 -0.04704090343888673 -0.8370249481494682 -0.2100629849317995
Ni 7.794728805981136 3.882512361324032 3.6780135560097884 1.8330633708530881 -0.12752671679978037 0.43846513449241903
Ni 7.6600168232677905 3.947708221428806 12.681846208188192 1.580128526258427 0.9019309047942337 0.16959999182074662
Ni 8.19085312808565 7.584120566159939 8.905143820295773 -0.23801216184655782 0.08685649277392783 0.20543345657958811
Ni 7.079716247124807 0.9966043522209291 0.14011595663423468 0.5316493692565877 -0.43223817974610074 -0.005851830795086696
Ni 1.9863819605276298 6.787879780649935 9.258518506911761 1.050945616264461 0.23890176354036272 0.1119687144605233
Ni 0.6416647097570466 4.985819905806473 1.52663858298745 -1.732102320356978 1.007129904631091 0.2365036956218314
Ni 6.7066606684741155 2.155674272227067 6.753100756046581 -1.7248806057975583 -0.19901161221364436 0.8764587286650583
Ni 3.564772548782088 4.311312086542709 13.237455663818965 -0.1207606017205404 0.19311067334817708 1.2002806871885845
Ni 6.274944310341483 5.600491177944856 4.565320735571357 0.12907529223382286 1.1305487699100851 0.3644957820938045
Ni 5.642609180117953 3.031839914057323 9.325752364265162 -0.6034965331058768 0.37488586707887694 -1.337839077192754
P 0.5830659087245269 5.7795359809503335 11.975148787479997 -0.3315262691463194 0.4340711191897815 1.517457115371135
P 4.199504786681775 6.545143006385942 12.751227436524493 0.31990771107078453 -0.6960549613605883 0.5567911586295379
P 2.774775180603521 8.734413243990641 1.3713215001847905 -1.081399304768628 -0.3762626928217455 -0.880620830462548
P 6.535992070618406 8.290984781812902 5.776816220758069 0.35729617902157174 -0.7476492884981124 -0.5654760879980454
P 5.048290537032269 1.369951594163017 12.449837174360844 -0.48029878269875353 -0.7935781898197429 0.05522729590442102
P 4.3782852698294255 6.3514603519435475 8.009925273955098 0.02493198735498932 1.7656847842981138 0.22749712124784693
P 4.7503017980045215 1.276692256739272 3.5063551258589047 0.22974477963144302 0.17225774115856785 -0.1855554867087385
P 0.5367962618879709 5.699538208807232 3.761281602807663 -0.34424423093362 0.7845561888267908 -0.5119408350840667
Ni 0.7835807757678636 0.06748541694222954 4.493338235254922 -0.17808257537046104 -0.006067546350318582 -0.2997811155242386
Ni 2.191995466483676 6.731816627356987 4.846380243429161 -0.4008398679404774 -0.3114112435639992 -0.320418589268932
Ni 6.354459015158209 6.072210979387968 9.015717931302774 -1.0149715121626972 -0.7421545839321283 0.9605553993056619
Ni 9.021482838546767 2.657973146877437 10.190808369036601 0.22317715371625435 0.9826175213120238 -0.056204057995393526
Ni 2.555827193543982 5.498172049532134 7.166720318395902 0.24689326638627154 0.3275174050972424 -0.7535867370284699
Ni 0.80504719401458 -0.05472605939145739 8.856826150284949 0.9922429602169299 0.8895379304465196 0.7257954258478145
Ni 1.7673337142116738 1.1883638518356838 11.399409096056212 -0.07479596206496796 1.5812150744543865 -0.1703309564495002
Ni 4.6434163161858875 7.348566000446564 1.7465208040272404 -1.3506146316908676 -1.6616358389052996 -2.8113372704844357
Ni 5.780729977549484 8.275016216608993 8.110068776503566 -0.41301635540201126 0.23714672852246904 -0.8807635266879993
Ni 5.494252824054007 3.1232763559098453 4.634395717451692 -0.4522855853152791 -0.2108803386267723 0.2621563631929292
Ni 1.0407639974337952 7.967666908823017 6.776366372222094 1.5724355284895435 -1.1391953898414897 1.2999502725667804
Ni 5.379455975456267 4.69278944273245 6.990645923723732 1.404797031270542 1.202350939454052 -0.4174463661489069
Ni 0.8258783331547257 7.795220987785366 11.25824588591631 0.5682605927217181 -0.6239781979989963 0.2522920688043397
Ni 4.622143124869721 0.5924966589622467 10.071096082531062 0.2284114055320002 0.341178961744735 0.36577310614433134
Ni 8.761164236498331 7.21190351947201 5.309917978100841 -1.745890375280006 0.11460512364210586 -2.7969223806106864
Ni 7.226076532538265 6.402975380786296 6.873587773169891 -0.12835049825265635 0.18607947753300855 -0.4613916613816054
Ni 3.0442994052866292 5.301107923805122 2.18751296627404 -0.5259214656338749 0.4982566527287548 0.23869093308113729
Ni 2.912203277717988 5.627451803443238 11.317421633397123 -1.8410088509524098 -0.5978244224217639 -0.11248782018878692
Ni 1.5712448376152655 3.599434908068884 3.45665023231838 -1.132833195068888 0.7126473185016308 1.9601853960152824
Ni 1.7342025872047042 1.3186188548773903 2.304237526938347 -0.3726549208658292 -0.20373858537566847 0.8553106338325334
Ni 1.102642187598944 3.84948149357348 8.167097153001476 0.09598493743775728 -1.153896186386774 -0.18009472070448337
Ni 3.9223426295552444 3.1465547323543572 7.127020387198033 -2.0674024547234326 -0.6094872034716728 -0.6814750066638844
Ni 4.567438028777332 7.095356691125898 5.660958446937878 0.006238267600227966 0.8107243625817263 1.3152452510526382
Ni 8.432532622918332 6.990303219356342 0.2869228514626417 0.3946931316127912 0.18156307771989377 -0.7236678379818505
P 0.4729247354156901 6.106773079418348 7.864319667308127 -0.5007051142692474 0.870299651042198 1.133711483908783
P 8.860594075430665 1.706439887654985 8.209318148774347 0.03285998395281438 1.4238815587058187 -1.0130912644208487
P 2.05449445354636 3.5931276893924546 10.121921145400101 0.601481559558377 -0.36988275743733073 0.8687176512670587
P 4.314283406323802 6.143814317425589 3.7195947154371605 0.09860489155910761 1.3478578948813367 -1.1377602000568598
P 7.077173307802953 4.450553964750543 10.225946504067487 0.7146520076364854 -0.9446029897414635 0.6224275656824249
P 6.518474044178957 8.139092008340786 10.376594239864461 0.7937013456611686 1.0918397833756615 -1.227726956324995
P 2.7962671193882347 8.789947757567935 5.5918178408169785 -0.41026296102659016 -0.026425798291696424 1.1755631298372464
P 7.372992801100946 4.348408011417088 1.6324904830172005 0.514988620771455 -0.26598704979292903 -1.4829547107188912
Ni 2.845576444589804 1.8167432986696608 13.543527121809513 0.4061671936906618 -0.23479725445368596 -0.9672297260020438
Ni 1.4460574842615577 1.1176719615836739 6.575199820012045 -0.14379048695681043 1.6775720505195817 2.186880333076808
Ni 7.068778873697473 0.9918739382136067 9.227276811164364 -0.572609099498401 -0.1936644889691181 -0.8810185801215987
Ni 2.692753994376363 1.8050311946245559 8.77734699193186 -0.017095779140022173 0.05285956700319284 1.002574681160241
Ni 6.555141588594098 2.215501704874591 2.4561403263361066 -0.17138382319404677 0.05424256339364852 -0.8745124035719649
Ni 4.571120277831202 7.221911216158021 10.506565782644842 -0.7308245036312897 -0.1927203798882939 -0.29627258815034785
Ni 7.4460909135069695 6.41602731307625 11.306723059289618 0.458955541136287 -0.6683022167273522 0.5702071749251276
Ni 7.785049230497944 4.027304956546238 7.916346018358603 -0.02549685871952383 0.15110604678161718 1.1712992123545698
Ni 3.460840157788835 8.685805733583992 12.414713622494528 0.09142251487805546 0.11306554706912786 0.1514045518586425
Ni 0.005200721064697897 5.372793292143449 9.907547714776545 0.05736491107271411 -0.9283739294771108 -0.16430634752197512
Ni 8.710961692466864 2.5144474640772305 5.747094819917072 1.595241984861098 0.4280660506462821 -0.590488550881983
Ni 3.9917493784295424 2.885990039403808 11.257484827015325 -1.399386658888248 -0.7822540230561754 -0.5417003257346864
Ni 1.0746607405806783 3.725396992040362 12.629353195871483 0.7214479475123962 -0.20434819393520934 -0.580289241751478
Ni 3.2825974288346957 8.598780699013828 7.969412331332463 0.3651431858698163 -0.15290530477388503 -0.5237159733421239
Ni 5.916490125216282 7.956465215537855 3.411081488828959 0.8951151674239811 0.7447341717338464 2.379306578763451
Ni 3.3682188338150176 8.438885413984043 3.542145857504288 0.5709954751543779 0.6933414190841672 -0.4394629796293141
Ni 3.9006866301691208 4.676456298414296 9.271458331124085 -0.43503168333083786 0.03799036320084425 0.1790012305299885
Ni 5.342551454616867 4.691230867019054 11.651828180146754 0.8260779622196612 1.004100116665832 -0.9499642540533769
Ni 8.261034607577717 9.166339235113965 2.455633561367307 0.40092111480037407 0.3256302153768585 -0.2978355617620935
Ni 4.747458080913414 0.6403403761245535 1.3368906486355394 0.6839345239479705 -0.21184295965035774 -0.24622632222623406
Ni 6.116981294617193 5.653564782500999 0.4078610352398297 -0.1616010327756701 1.039336571270623 -0.43801801965267145
Ni 8.414285438250396 9.501387441104669 11.03981742409457 -1.0652903150219073 -1.3510915713272862 -0.364880676237049
Ni 0.1517897798723438 5.104581552271621 6.126430273810625 0.6455672370236818 -2.065276409519366 -2.060735327115902
Ni 7.701013744664585 6.5241705928390274 2.529709657247291 0.7287105426120805 -1.1850034493145398 0.6988451225112158
P 8.973540685023613 1.8494916176066734 3.609406146843472 -0.34902853969614084 -0.04848277809173585 -0.36287007356492346
P 2.013543104538846 3.4149487617833074 1.432511547271803 0.6052744509419059 -0.7354334631582108 -2.012631015409508
P 4.924133119676302 1.532198414479679 7.917532723375469 0.1294216198296481 -2.4959266759530565 0.9208133435210336
P 8.946306625189548 1.8601099843090447 12.333606618396338 -0.38379525375336476 1.007515055884652 2.0876138966743016
P 6.757009044151283 8.155899105507457 1.303519810860954 -0.36180280864267367 -0.0021275878659640776 -0.3094402358805574
P 1.9988687951905044 3.4549704340494984 6.074390251043364 -0.4530687433382068 -0.38214152020002573 -0.35752140765850043
P 7.179565352038522 4.136286768271778 5.795652200695512 -0.069641414447222 0.008756920257023628 0.6897974104866508
P 2.5602203718706282 8.786684774495447 10.205456246399159 0.8441996115210363 -0.9025731663639229 -0.9757465052238034
