# total energy = -340871.38706337445 ev
CRYSTAL
PRIMVEC
9.20942318425515 0.00000000000000 0.00000000000000
0.00000000000000 9.20942318425515 0.00000000000000
0.00000000000000 0.00000000000000 13.47892173291841
PRIMCOORD
 96 1
Ni 4.431620567954904 7.924183864159395 6.343329245988386 -0.6102698472739683 -0.12815663707429542 -0.4646338224679869
Ni 6.173242247836983 0.9484600930009864 11.400269660088153 0.5871566582952727 0.5964704794970308 0.24413755801800538
Ni 6.544013632311095 9.023098306592908 6.76749686710385 0.4045864794671032 0.057010870167405046 0.1717556047111687
Ni 7.333390146191221 3.132631403025115 9.460599330848998 -0.1330954691368095 -0.5909850309024275 1.1176287194143075
Ni 3.6491971687115865 3.121101204978379 7.858400032156489 0.9094508673203628 -0.7928991614748474 -0.16635885917562962
Ni 8.33389269059964 5.579059462072324 12.533981908687473 -0.48603362830000163 -0.48427010864167563 0.4833961906771546
Ni 6.5636849606080805 5.002835051859691 7.171123790357142 0.08256377893584489 -0.6798012185058873 -1.745884204632419
Ni 1.7100978237207556 1.5743048762773686 11.5691069394896 -0.24832408529552716 -0.37791668348540075 2.622764337105612
Ni 7.3286841308542545 4.593264366769847 1.4622740829874863 1.0232399228190765 -0.4668020337638993 -0.8132525283202187
Ni 1.5113032110715217 2.0649645340521245 7.219943864530905 -0.07619669906723651 0.011629870929444487 -0.6436494511756786
Ni 8.697563609663181 0.5751128328130801 11.066572651234445 0.22764213146614343 1.3697737211178216 0.4160073197095352
Ni 0.12713701042731113 2.2146176636523305 4.771215291528365 -0.08104631385005397 1.9535630056027582 1.1844923140060761
Ni 8.375058813018896 4.820322699710959 4.822326670234099 -0.46974851798673295 -0.19402135808790458 -0.05576697045797492
Ni 5.217110705177107 1.645806839244507 9.453792646043615 -0.5768732740913936 1.5253038651090634 -0.987454280579035
Ni 3.3017164159149477 6.400263743084656 4.5564147010794285 -1.2303440822328684 -0.11752795371585564 -1.6190365161775342
Ni 3.893992851044084 0.6052497498163858 7.97678532756478 -0.7034810786213304 0.16663859519957752 -0.8367606387444879
Ni 4.45740695336294 1.2284541914154523 5.608512118919981 -0.44415164335423507 -1.3982404610989467 0.10186813569141166
Ni 6.01825686211133 6.50478148879744 0.4608459915313868 0.7551306844768221 0.37515943245523775 0.5941559724312412
Ni 3.5606301442583446 8.849951938001311 10.32190236211316 0.5709070292056296 1.7095069515549657 -0.5326143042730181
Ni 0.4366951997120895 6.1201867598599495 3.1313420837547135 -0.44186233309942613 -0.7564715147754326 -1.7120988806518578
Ni 9.086873563360998 6.310425818207732 8.553440738790663 0.9962194283661746 -0.4352376286940569 0.032334193356331406
Ni 7.877667066767971 8.075476271117683 12.732971761111939 0.27094362246725595 0.10790534302442707 0.8506605366550317
Ni 3.6562976341221565 5.400396648888079 6.605305107598986 1.50690582221785 -1.7744599593875827 1.0311689478581658
Ni 5.185678943249384 3.4327757197512887 5.476930640779129 2.315182237479716 -0.22391840275765304 2.564116702665732
P 3.9613137358057764 1.6564529326486817 11.451962153407901 -0.4856916715795506 -2.3182248809607815 -0.07301727289799038
P 2.6501773414641305 8.434671410428258 4.942478333042841 0.46575790877010104 0.7799641985807341 0.2460502016596859
P 5.207321088145413 5.5174484197938405 5.018000209306624 0.2018825060035362 1.5635834774155524 0.7528094925428133
P 8.70335633695663 7.47051846002181 4.381687074496916 -1.0704518046181888 0.5873029540651499 0.39786381603128895
P 2.3495633441465964 5.207781559313413 2.7174448115703354 1.2479319705179606 0.14889541228354358 -0.17776067325466807
P 6.102836206249686 6.83832838405038 7.988579836061947 -0.2996373908575226 -0.3036133447861352 -1.0303983882407286
P 6.732594994454074 4.633914761480943 11.410770244603237 0.39816129266704975 0.10208153725379839 0.0769060664294353
P 8.99507403130839 0.6905658478235432 6.6022586303514945 0.27281255735519466 -0.10101941453787118 0.42397208308256656
Ni 3.9182688910210772 3.7298348796518574 3.732326949613077 -1.9783263285903672 1.756461465927633 -0.7801675728407919
Ni -0.03874956972958937 8.825077285505916 8.8722709755143 1.4002394938068465 -1.4155766383845494 -0.7490145442767552
Ni 1.8996830130099767 8.887784249164243 7.331737975640435 -0.42573174608615066 -0.037953853535953985 -0.8925168105691855
Ni 3.908000383974663 0.34334756359266494 2.7447268073320368 -1.5984296385604602 -1.6452075181459473 0.6342950065439721
Ni 1.991344403712183 7.949804479946951 2.5236859116143564 0.7441214778505121 -0.25942045231900485 0.808516299186814
Ni 5.510311116689831 4.149628024671316 13.397279701051415 0.45599388740480173 0.07348392812176377 0.1006129231280719
Ni 1.8233368933554714 4.53728949158769 8.07543759153957 -1.4857088764252606 -0.8140739957802495 -1.0556229671354722
Ni 2.331678643981452 1.7790487764171705 4.066226565780705 0.5605696518353636 -0.6766724430689185 0.05380881829033959
Ni 2.7965242880780923 2.689768652488825 1.9742848678800955 -0.29749514770353924 0.7245391848432102 -1.456129620106247
Ni 5.4467292578123025 6.677108218709997 10.473594458045275 -0.1368418235531192 0.17790645480391296 1.5361899158939478
Ni 6.144711454267664 4.683682485318451 3.363274043537945 0.2574551010625179 -0.6831675638749589 0.1289847894025456
Ni 8.738499496498436 7.629206033938188 6.654800232505038 0.1824169410797568 0.7420363131867092 -0.7610143969511087
Ni 8.715172027127524 3.444002006827144 6.959369677155698 0.3914651115937968 1.319807930722656 1.0446356148860332
Ni 5.0063622610065766 3.3558770346951827 11.10920583479495 2.111069813704397 2.070491892282034 -0.7319940984593586
Ni 5.560235400724459 8.528064172722146 8.925445265052678 0.8861741561806094 1.1385436151901036 1.3493128821603084
Ni 1.4586713565690492 5.237970049087535 12.238658725090266 1.8522687401369453 -0.2871343732945055 -0.9222912136181407
Ni 6.704460206089235 7.095096316750893 5.36761662738045 -0.49788487121163283 -0.6285406205586982 0.7809101074337712
Ni 2.894779625906067 7.605777260910316 12.03090794822342 0.6848423804742206 -0.7474762532553578 1.35631862405418
Ni 7.645350153088291 2.087840741678396 1.8006900003708644 -0.3750545314462573 -0.3693780498867703 0.21853579828950107
Ni 4.315102943604024 1.3476241296940161 0.6712435566719006 3.373137195182475 1.4357857663425724 -1.0303335964410643
Ni 7.220372102717146 1.9221447965850478 6.084520505071294 -0.9152510189419076 0.33974171507757617 1.0071849262387427
Ni 0.7139623878696555 9.279599166015982 4.377428637135246 0.5647600357676273 -1.449915520875735 0.22371759960075668
Ni 7.699575237832046 0.7026071688667599 4.096365324668683 -1.4421204503113485 -1.8300243269164482 -1.282658061145236
Ni 1.1337813192745216 7.059372963537404 0.308549757426857 -0.8013444640287232 0.5131813923593871 0.4254226994861642
P 8.296972112349348 6.465337528546505 1.0979548205194003 -0.0613020413435912 1.0875912925119529 0.31610813481903627
P 0.41202868018463157 5.482793359690112 6.487823256622312 -3.67321604445279 -3.4062722871735467 -0.617815263721394
P 0.09744306668762222 2.3923226968071356 9.775588317089177 0.8406121512800943 -0.02333713206404368 -0.10912815968793464
P 7.420502081753582 8.140356658688974 10.437200658811177 -1.2576931636697823 -0.05278217679803812 -0.3444524902896842
P 7.24543094367974 2.785703215630077 4.134146984003134 0.559456621276843 1.9307290384273779 -1.2663341271742319
P 3.0254060868444874 2.934619591361482 5.768520324146186 -0.1346378739232649 0.15414380516667647 0.8783207215744616
P 4.971734829172928 3.3977707015598804 1.8603339098196505 0.010921532008510223 1.2168882138382784 -2.4855000813030936
P 4.17433690754623 8.181927995736071 0.6194414712141652 -0.27830314815612067 -0.841251584636306 1.521557510692754
Ni 8.802256334419804 8.67537810878891 2.012631985808852 0.13065163558200724 -0.37704147996929904 0.1408550584775703
Ni 6.880065490717956 6.998821004945321 3.0888295436402227 1.712299169588122 -0.33668184520532984 -1.5920872412822
Ni 3.765825306142787 7.1402317006383145 8.655934253248915 0.07938769520070844 -0.5954456377769423 -1.1472542555902243
Ni 6.3021833843005215 9.090391563084522 1.93410415376036 -0.46686219757787334 -0.02717501775289513 -0.19586458194423043
Ni 5.332256125447344 1.9301109477914586 3.218793847039058 2.4244464085248825 -0.06324091023751689 1.5207273014819744
Ni 1.1657748560272059 4.60272244456058 0.9959438798452119 0.3537164320901134 0.7077439676627424 -1.3304857221514763
Ni 7.386721916869055 0.8259784460821618 8.976652421761356 -1.022329238079349 1.0307262038937925 -0.37583717524855276
Ni 2.647525027536447 3.2361176933215776 10.286210320939096 -0.10147218580457364 0.037880062875225086 -0.8604088742910472
Ni 2.451714268055857 0.31595597569297923 0.5704270782075057 -2.414899902487028 -1.4906855037042457 -0.653855702284719
Ni 3.429395861378164 3.3065237349088745 12.708399177702752 -2.4942760277235108 0.5377955913636415 1.6308702755876687
Ni 7.586216445693649 2.908952928457127 12.677222516802102 0.5489994304992609 -0.009146442385958442 0.1330479037283257
Ni 0.2536330449887654 7.422482107775984 10.939155674336988 -0.1732735840175919 -2.5816158878917608 -1.0503969428498425
Ni 1.8401901381042947 6.65700404751509 6.826628732613819 3.1471976482297346 2.8143061233047724 0.6958778123527758
Ni 0.22523210428882226 3.5150158703562018 2.5977655921799623 -0.5928660499752241 -1.3180559810285557 1.909500468065905
Ni 1.7363170520267117 4.271496323994364 4.6727914212529 -1.0900166141239938 0.6016641078828283 0.4703331868456094
Ni 7.173035666646681 5.331068109833904 9.419515172297647 0.48291770837883924 1.9712287983136374 0.3819258046447938
Ni 1.8211082129023486 1.1440037792041358 9.392032411106698 0.2848566330039223 -0.2617205612070912 -1.7441335404898992
Ni 4.845676242221074 4.700471264103755 9.199633742980991 -0.258580987136845 0.2087717769242017 -0.8575927449984907
Ni 4.60995184189819 7.2521538227325495 2.5986285151487953 -0.49427684214540035 -0.32799151652018355 -0.33798333762557276
Ni 3.6818537839461913 5.663436198896761 0.6466322936846027 -0.9453843479921784 0.19038633243847855 -0.006368365420189033
Ni 2.6124094962647186 5.467643858262892 9.86264867988072 -0.040893395780252154 1.9089700494837316 1.831421207263975
Ni 9.39305926181134 4.708907095901527 10.322576491903115 -0.1410175521973636 -1.1624175935942238 -0.30092885597543656
Ni 5.478833307645307 8.317582801829056 12.495998562981438 -0.43689341912992496 -0.27133468725808757 -0.49775065962661375
Ni 9.293137018355202 1.1015391280911173 0.07160234568176263 -0.4938037591637237 0.2790227999309647 -0.3525769191690315
P 1.1402371250498906 8.724611686071539 12.253310917656046 -0.6163163105783643 1.7783428393817569 1.745766448107632
P 5.612581763102771 9.086311788536035 4.333405751589713 0.126454309671208 -1.4160036986196387 -0.30656265722244624
P 6.099465557299921 2.936599617383885 7.7194187823458655 -1.1616665743608123 -0.7018242597441978 0.022528520119819265
P 1.8138051401778583 7.614664354452729 9.352997349252947 -0.2989030837946594 0.3532608326099336 -0.46606695537008763
P 6.908375258126636 0.8138109559389131 0.04642286127315194 0.524010107543775 0.3143469291535554 -0.2597829778647462
P 0.6554650516291908 3.2112246219794636 12.687291179361605 0.15051135062041174 0.8456972791124855 0.4461460480764446
P 1.1409002035318114 1.2852210770065704 2.049281807012359 -1.2867540855914807 -0.18049067059132143 1.1570180198452074
P 3.755031861964852 5.6484340482433 11.833940485168812 0.16960693379928207 -1.883643654903801 -0.1029413141509324
