# total energy = -340893.91027111246 ev
CRYSTAL
PRIMVEC
9.02379033642690 0.00000000000000 0.00000000000000

0.00000000000000 9.02379033642690 0.00000000000000

0.00000000000000 0.00000000000000 13.20722929607293

PRIMCOORD
 96 1
Ni 6.0262133698759355 2.0569819798276003 11.306589732275242 2.033788880434046 -0.0770068536733577 0.1035097850598927
Ni 4.597666181030404 0.38122715848396654 6.13124487250591 -0.108501067626897 -0.5989392527524976 -0.37692809431988633
Ni 2.834543926201096 1.6638605635969659 4.765339932239088 -0.5754349989829702 0.23544851488443969 0.7447909931137108
Ni 3.3191665741677263 4.486899157405222 4.69419276147979 1.4807780147825464 0.2324866040426383 0.365070680760668
Ni 5.192947567140871 4.413256006300936 2.695225630661448 1.0219065487196337 0.7872067390757603 -0.010051213588414949
Ni 6.95780238967169 6.0842995068270795 2.525922182958532 0.66739384598047 0.37386076824847225 -0.1756225438657427
Ni 4.899656340919637 4.352173971032598 11.73619433192882 0.10096567848180031 -0.35580673896023884 -1.0186124513493942
Ni 5.645346260617439 7.587708058442021 12.374434373246622 -0.8839753487570777 1.2678251098974616 0.7641724829641162
Ni 1.7874413691812319 6.724961533410951 0.039177687150394214 0.49739224784593056 -1.3849393731146666 1.155065524104527
Ni 2.9056604160740136 1.789805602190584 0.17980352987727563 -0.376573539193945 -0.518691523544339 0.6437931758423945
Ni 0.6236305251264243 8.85129134024951 4.758656913282118 -0.2396296428453228 0.46863240210441875 -0.47345759140720406
Ni 8.693230632647174 2.3286161097799605 1.3217000996450154 0.10723017133427339 0.00698851550269119 0.9681743493035003
Ni 6.981562029036668 0.6880044390276318 4.763741819010247 -1.0019558166293197 -0.45120983575259704 0.26427289531529974
Ni 0.8568142854114199 7.158392220072029 2.3979576201378414 -0.9235613385798158 0.7370887393734467 0.050763603706112576
Ni 7.678225697055804 4.05251194899227 3.7284667436902215 0.7246057764150876 -0.19284764949477756 0.030222546329967306
Ni 7.620762201622391 3.640160836032896 12.537054801992568 0.5081646558710861 -0.19343463234649913 0.5840656780747748
Ni 8.076057531724919 8.805315129628713 6.85444660486552 -1.0169664311055386 0.8332942774624422 0.44050890439532525
Ni 6.7250156761516235 0.8001015693153269 0.612459975346741 0.2913700086424079 -0.24545833371195788 -0.7240918128931466
Ni 1.9182502306452345 6.463605500396194 9.12741029388755 -1.3956883841010546 -0.28282134774144835 -0.23506156385866614
Ni 0.12169393107184018 4.800394649687295 1.4568367708467485 -0.07393258562340815 -0.10953645086994683 0.10059106875120095
Ni 6.239806481827711 2.1112691011415796 6.915358090500741 1.0638618101054969 -0.9879651587771823 0.5175126727448893
Ni 3.3644389291597863 4.507617779502446 0.6207239623313391 0.6981784354614944 -0.6979102694017723 -0.8338123547494415
Ni 5.934928709102628 5.752215006914223 4.9622065468392025 -0.4395462833717398 0.024406196758506353 -1.4722108419388258
Ni 5.4445398592544105 2.997549670784826 9.068136626157663 -0.28933086672519204 0.09903426578704234 0.5523542059041069
P 0.1690886814982499 5.496489818929374 12.332593765634167 1.0188109405134453 -0.835090964351549 -0.5560044010621844
P 3.991854031859196 6.174853240601311 12.484159149113863 -0.9552815525012323 -0.4146806304783116 -0.11090453486206706
P 2.447062378790481 8.30642586949496 1.4496123244830563 -0.7646581643512831 1.1072975126916285 -0.0954195518525905
P 6.298379903444905 7.927598136801784 5.877309102100276 -0.4894904765003505 -0.9585576521493427 0.3072905365274063
P 4.654768724859337 0.9879516128355006 12.44651911579856 0.8655832194031351 0.5580021482185035 1.0600421792490906
P 4.097017281824807 5.938231416283632 8.170572709358334 -0.06764135329805769 1.3676880422333866 0.47074250646888605
P 4.730153467455245 1.131132090543098 3.9002797074232936 0.6751560064243921 -0.3961581461940919 -1.0078058476521934
P 0.378043565332442 5.5266924444343415 3.7854952924402356 -1.4293772917130674 0.15093378286981102 -1.089393635828014
Ni 1.655179677509192 1.1864840190902968 2.5434481881141187 -0.18447485205005004 -0.5894912199657202 0.017552664171782674
Ni 1.8722830438145481 6.64343158974875 4.696252892762366 0.5178890822477016 -0.23655897433979903 0.8052268298022649
Ni 6.061568579534873 5.464365126130542 9.272399139133599 -0.8093611636856126 1.4515882805924678 -0.7066098540582992
Ni 8.431883623422529 2.4161468738666625 10.158115721894843 0.11370215221186224 0.6444881450268901 0.6283734988532146
Ni 2.385204297572508 5.108602200963717 7.058101816766915 -0.6854021096324325 0.745359206912355 -0.9061431431033685
Ni 0.4603351168800984 0.20508277549711956 9.135229408019626 -0.2689970402638464 -0.5134698701340834 0.06333424128227157
Ni 1.3098121585514257 1.0404790950776337 11.430565779866415 0.43966532544810727 -0.14243654403207728 0.08949444461740716
Ni 4.199013181461094 6.879511986659708 1.4598480096071331 0.144477485721506 0.071646874913025 -0.8651497314101423
Ni 5.701690806076961 7.987696578947911 8.253593383147042 -0.7170315636122554 -0.8219587978449652 -0.7785228381485172
Ni 5.242091128090992 2.9274889643550166 4.960701378648516 -0.9207015005335176 0.38741870943856505 -0.8655829622928188
Ni 0.856521012232779 7.459101001765353 6.974605589239303 0.4799270011816315 -0.8723992138837039 0.16992703614286217
Ni 5.2515661077086255 4.53802795217999 6.997519699470784 -0.5734454793567673 0.003649938047761456 0.21108371288683
Ni 8.179858189383612 7.125157601089418 9.07897961235628 0.18721539090966466 0.9522867315389664 0.8078840649194539
Ni 4.603224835739415 0.21256439987900452 10.300172737733492 -0.06982627676451846 -0.13342894121682827 -0.12792498067946356
Ni 7.91549723426155 7.014877862130286 4.699871432597291 1.1956879256115795 0.413293777433114 -0.46040949997399416
Ni 7.316182213971005 6.270397130307496 7.077357682486979 -0.6780004178517226 -0.08364904158022368 -1.011795685537877
Ni 2.3256743542034384 5.331697363903461 2.531600854076033 0.3700285389865756 -0.276236238324763 0.17913467078405923
Ni 2.4875160298627166 5.070043545815008 11.222024185619356 -1.2829933329974679 -0.10573995994199209 1.0501146357227333
Ni 1.3134036270160143 3.556510301694368 3.873007106567702 -1.442105280802697 -1.3810354100745699 -1.3029895736137367
Ni 3.72761038600859 2.8064799389526796 2.6268785419739134 -1.2125826444843892 -1.4498797825417933 0.10621484269588159
Ni 1.1207096129637022 3.322541471669626 8.175380584730023 -1.1987012585166066 0.0043636762853344205 -0.16975682911358506
Ni 3.556988562570306 2.7656021697451787 7.118736272045696 0.5677900808432028 -0.4033335808966086 -0.2734548189248839
Ni 4.011291275760511 6.7014094412185505 5.962747249259998 0.15871085571206858 1.0421370168338957 0.44154171653521374
Ni 0.7311183034248939 7.536886072531061 11.321395064712052 0.050276379657048904 -0.6542907329396087 -1.0129526819604555
P 0.20380951871231195 5.5309336257869965 7.8607977257394515 0.8992718699048318 0.16823859269684574 0.9979945179887264
P 8.414530875037093 1.7517613030782608 7.902849490040527 0.011538853877534967 -0.06146196396022317 0.3305898733749791
P 1.5509007589745605 3.0107244043483914 10.509573396799219 0.9074232953673728 1.061255482830901 -1.6834629620827202
P 4.142118184804739 6.157942657931366 3.4607696933637406 -0.0008240385631921291 0.4166809487377921 2.017992279721421
P 6.808666210490151 4.0510049760435605 10.606963553962325 0.21793698836323758 -1.0395093494030612 -1.2581747312918912
P 6.406232242863901 7.668425860994139 10.338222451119885 -0.24569204698931882 1.1834173357743423 -1.4888695335414293
P 2.5061501564440607 8.48063013760772 5.902905082753053 0.017956584478420686 -0.13429745986471064 -0.3109841833289096
P 7.037383194669691 3.8575800349921736 1.5213144583342442 -0.44612907879558006 0.8639171445546217 0.23231022636577411
Ni 5.354680957318806 2.669146877237678 0.7056369249065405 -1.0781180629141949 0.9543251021252338 -0.6294811300950965
Ni 1.3875791817369096 1.0081468551062263 6.902639058337832 0.1724911973256126 0.9320608914103949 0.1541995981052764
Ni 6.9186030454250265 0.7675671964454099 9.202559515561534 -0.30535423873664186 -0.2164058964306918 0.29664051301272776
Ni 2.5801813305231636 1.5865086347566353 9.026150735524404 0.5094635771881677 -1.0526119482232903 0.7219711670057178
Ni 6.507804024364923 2.077068936616982 2.859893557383814 -0.007877088755231595 -0.29638623091007665 -0.908211338486307
Ni 3.831068139643026 6.857800747650161 10.307224829706044 1.7676395940316398 0.2969888974910821 0.3823744621464383
Ni 8.143474267651904 6.834050132075295 0.3385554598021939 -0.3751020968547411 0.7229281316023485 1.4177713320430227
Ni 7.588393866490534 3.925213341881847 7.90271684032588 0.7448200465794333 -0.49178698584401115 0.5525205562786419
Ni 3.3075078373429823 8.398080505662861 12.482099017831288 -0.7783279485288918 -0.17920871855510426 -0.30523545377059047
Ni 0.11514987848259522 5.052402036145987 10.025792668450043 -0.19949832204207577 -1.1573237240110843 0.873562895174502
Ni 8.580045233271969 2.204412662677965 5.6723066383351535 0.4374310368009499 0.7943037551318579 0.008870048796120208
Ni 3.6576218698996765 2.5085865797743088 11.066839359925723 -0.7894037467270792 -0.18449079288965 -0.032063456193448005
Ni 1.2075726165821135 3.357382325292178 12.625001562803433 -0.8965457292229204 0.7249760152703126 0.2307986748172541
Ni 3.108731788755161 8.19637172528863 8.02229559499546 0.9133440317271819 0.49885700531691507 -0.048271947632510415
Ni 5.515927062830688 8.069876235498178 3.405867149564121 0.6791005928944369 -0.8747029223162162 1.4931401358923253
Ni 3.12823219918726 8.48093694647153 3.7948466461333337 0.2374084668242879 -0.5346984404955566 -0.7934401215799819
Ni 3.2265915114083996 4.178547225487008 9.170082894948335 0.5191617783125381 -0.31814933361878106 0.34777949778038814
Ni 7.190742507623661 6.065313452431367 11.432705320501979 1.090121000912342 -1.4772751438356106 -0.05491490687032478
Ni 0.34369902016605164 8.924826205872453 0.49155291877267 1.2545458762900523 0.1395078004210565 0.6531532769010557
Ni 4.388648130665428 0.30606710826184835 1.716134477336951 0.023026028581528087 1.1934454094343059 -0.7761021445221666
Ni 5.938574320307889 5.441119842801951 0.2713742447971336 0.5804743611790907 -0.18611367320505368 1.5177000846198767
Ni 7.770710521914011 8.557386496300659 11.92579769786776 -0.29980656944553524 1.275361784594139 -1.253575541956983
Ni 0.035538392598212065 4.682625164935177 5.867747494097569 0.11971159163073578 0.19204520819814022 -0.3617061351638093
Ni 8.05336269959316 8.676834406013613 2.7041537685982915 -0.4630366531841961 -0.19244784295319758 -0.4954330672370306
P 8.696912339012883 1.5472551477693002 3.523160178198324 -0.27982524122760194 0.15515476292969407 0.4388585132760959
P 1.8110746754846412 3.12978429108653 1.5898465347190758 0.2510923920692837 1.0593420678582723 -0.08432395616006123
P 4.719911465678089 1.0856612121685734 8.232937927580602 -0.12104239462701734 0.04738851658629258 0.20857123087762144
P 8.533563690404897 1.5383306193485011 12.51643814872361 -0.8897233069844483 -0.01086548195959419 -0.8091230795328775
P 6.351927073969698 7.879699858887123 1.3938516182437826 0.18942088320141573 -0.6731652012466084 -0.23110077943870524
P 1.8725086385673488 3.3278023413049405 5.8961300211369405 -0.3310863533954233 -1.1912363175981289 1.1623340327414822
P 6.9110320855210325 3.968130487654667 5.76842895298752 0.8188994421933511 0.09989584245638924 0.4622658364564426
P 2.3181485132500046 8.52047919474245 10.148646156551276 0.239726059213871 -0.10941612324199866 -0.00908113636566178
