# total energy = -381172.12933346216 ev
CRYSTAL
PRIMVEC
9.24601280564658 0.00000000000000 0.00000000000000
0.00000000000000 9.24601280564658 0.00000000000000
0.00000000000000 0.00000000000000 13.53247434235627
PRIMCOORD
 96 1
Ni -0.1338323367143145 7.625232977075617 11.677780723681728 1.8518828175524364 -0.5070598528426816 -0.2590810667017151
Ni 7.207266968953071 8.015608883036062 4.657011380288584 -0.581540854770392 -0.1386624217016257 0.6184639530489865
Ni 1.2288968057864293 5.549503105965976 12.634756916352794 0.16755442214562757 -0.20110269041471815 0.2862524849101844
Ni 2.9510129177843183 2.2730397840249177 3.250162113961734 0.434386079327039 0.7149091179526139 -0.4767280346283596
Ni 8.371608113447353 7.97976209145347 0.3288104052042293 -0.3863067073213089 1.3191576987331668 0.9604060182119912
Ni 2.3517603369096727 5.595317099335011 8.063893411022294 2.4277212226214124 0.26097314151810536 -0.525473836573495
Ni 2.6038991056631686 1.469357860387536 11.252293084155406 -0.19662665692123557 -0.6469080673222923 0.4926575613744225
Ni 4.094726207746547 5.303975236356549 9.703312260034918 -1.006479672641602 0.3478622873021816 1.660775033566901
Ni 3.1895045716613875 8.233555896496181 9.404921236906194 -0.7402787070656541 -0.01765190875380831 -0.639271376712641
Ni 3.685257285377008 1.9014425300387419 5.937008124955466 -0.5599806121011129 0.1842845904161149 -0.11173345852126564
Ni 8.808399003608113 0.17487446288299413 5.758988168521687 1.2078618419699523 -0.20147832858658202 -1.181345026626346
Ni 1.7386109988132992 5.169288568060539 5.891673999650177 -0.03668321435364651 -0.5397267469480833 -0.010698617364426736
Ni 0.7222541382080346 2.0113868681116363 7.403521911809134 -0.10037998118165938 0.1728087285660314 0.500314563699048
Ni 2.0892567878198114 4.593594827772029 1.283748776656621 -2.232362376669007 0.6019104195656795 1.4423119974968646
Ni 8.300228894716989 6.407117022201053 9.255279142924127 2.0973455221397685 0.9067229268662383 -0.513307119303974
Ni 5.880713776090206 5.112684477766851 12.134529132447343 0.5968060084595787 -1.2013242979617504 -0.14362825034733329
Ni 4.238168850153651 9.134829485120477 4.32465420457853 1.0719124483241154 0.2051814884697821 1.3921772856240024
Ni 4.214009018736237 4.417088443631792 0.9111686715109842 1.7666952278404995 1.3012707911504169 1.0643366928593863
Ni 5.283624762208164 6.8505742875826146 3.934688821585912 -0.8928968196164235 0.4737483831747453 -2.066099162530977
Ni 5.1787379931308015 2.5382061847979838 2.118143180974915 0.2186011043097977 -1.0830520098807026 -0.9380608177475716
Ni 2.5246792680878127 7.656031445675466 0.460432944861995 -0.4019801521925077 -0.9121374130135904 0.7986584325561278
Ni 1.9996536778825127 2.929728596344254 9.579922370164395 0.9644357081966746 1.4482463607034284 -0.9566848606066619
Ni 6.995625736214989 5.33476445894361 4.91082645116071 -0.672322650740655 1.0671404808567686 0.56605690020218
Ni 6.4031967127785565 3.89986648822033 9.849895772986414 -0.8077341696051508 -0.9747915975097018 -1.6883717122382471
P 6.274889793306893 4.502567831865239 1.3578620413686633 1.838155440664015 -1.0723868168573725 0.7912582834373147
Ni 3.7175721000742383 5.6177479263609 12.49194855042301 -1.1100241675941722 0.5315951189798845 -0.14345238689110132
P 0.8333514540757055 7.862716815558695 9.160768249398476 -0.20348944547933986 -0.6569484822774299 0.38103928827478245
Ni 7.660950324479164 3.073125008687414 7.592516885423348 -0.2764121017809949 -1.5808456069301098 0.3107144746072907
P 2.5187155898389677 3.423308497054481 7.417555510020138 0.18278717993498197 0.1078084124352466 -0.9361409750170394
P 7.389542865073586 1.6537048633727653 9.619518419932891 -0.9105129900362899 0.255249865881083 0.22981779896122356
P 5.33933198926133 0.5754163599048434 0.42369206384271485 -0.7259098399384918 1.2087488725605957 1.4138565703696488
Ni 2.005876244489447 0.23761143345956537 6.6819843395922405 -0.9332058036481153 0.15016836545869622 0.19362669375264718
Ni 1.2784646803477604 5.625116998553659 9.941361954500676 -0.8158789101994722 -0.27173423668935137 1.805980141483051
Ni 3.021523011312524 0.8360318731832096 -0.09116938450373942 -0.2302453734169454 1.634221708558405 1.961590761003241
Ni 9.189149810255305 8.362602496990958 3.379654372272935 0.10472257442107126 0.0901611316671286 0.64372041362293
Ni 7.3935278965856055 2.5745337690455994 1.0717802350658103 -0.1460754263362452 0.2725726734302467 -0.9802325660196151
Ni 5.155077446403989 2.8696017751779914 12.967317504344203 0.21479844273425588 -0.9885745102264071 0.6914951099040478
Ni 8.37230156440652 0.5780958544110688 1.804920628731504 0.6231346190517785 -0.012989470281132467 -1.4359284625680238
Ni 8.83514771860642 4.542723265407462 1.5768307392419552 -0.8486753879042028 0.14788316896894532 -1.303501994473781
Ni 5.139377716688425 4.535825739866937 3.596714693106597 -0.5884211268299931 -0.8241205813829743 -1.033038396966737
Ni 4.287329900152271 8.371071844705597 12.766536638227972 2.017272113725945 -1.4257147552598155 -1.4341870543968847
Ni 3.0221794782205365 7.4360503094017885 6.527984599782762 -0.3340253814190892 -0.6183153432862641 -1.096073361841035
Ni 2.8343929584778333 3.3177837530946843 13.087161548310181 -0.7468897846242686 -0.9922144209718395 -2.2012355733572155
Ni 7.996321700358403 0.4945932637118911 7.802933021466901 -0.40158934451199224 0.6771318992038402 1.1731882018471664
Ni 4.5449423084767995 6.7386882868240505 7.8844662114420405 2.231092508817648 -0.4671583886620535 1.039910955716854
Ni 4.32354653224642 3.2164012228643184 10.655713525578035 -0.3418183951009468 -1.0146128432716979 0.399037524624416
Ni 1.0524366517101378 0.735355738329916 9.565673339855412 -0.5228600530997318 -0.9522687338168373 -0.7845435904213004
Ni 6.851129048349949 7.150440974352449 11.778896044142494 -0.6289054600972847 1.828334083698219 1.0798131912284308
Ni 7.121796826732416 1.1988195261841146 3.574372627803482 -0.9257269787725668 0.2747802226045268 0.6596188300207413
Ni 7.714993269230327 6.637915993437751 2.4711106437927217 0.2543342960453491 -1.2379242085729711 1.064941416322921
Ni 1.6818774643405654 0.11878999850804155 2.093433211796561 -0.933396836612999 1.75777529964305 -2.251667504755522
Ni 0.6725845575060257 6.764863749029446 1.6552110388560786 0.24492251581314592 -0.5665415531480823 -0.06808949657906983
Ni 5.530863144183539 1.0387987828465 11.366669036158024 -1.506684450235663 0.8601551064090283 -1.3488721950784641
Ni 0.21068611961698905 1.8742407604137772 3.604767045644456 0.25346294918398926 -1.0980808791893668 -2.945806222930004
Ni 2.7049210413947673 4.660563698402083 3.9536745842466536 2.0860326682301107 0.7190709626397874 -1.3626270827707112
Ni 2.3773070702454224 7.283879430921956 11.366886317458563 -0.13534184196882498 0.062461865979647264 0.3966569402073814
P 1.4507086525923105 7.789571608385651 5.228230974988542 -1.175918456294136 1.053949178977475 0.026580578702005836
Ni 1.4913911088635015 2.7582520431611837 5.258936058859224 1.1418868206307238 0.5149670235049002 1.0541196431170683
P 5.30794177584299 7.465369415955413 5.958348847073543 0.4503505730760954 1.2817476335158249 0.5301126208970871
Ni 4.7996699608111895 4.107097372858105 7.851149128958494 -1.85632491248419 -0.18357548016423222 0.47952436642657414
P 3.542998132606883 6.262148787683779 2.0498992851812705 0.3882581746207249 -1.068400835626431 0.1114678635647048
P 5.099166807069468 2.2753327951965665 4.20188749596998 0.1027263699266489 -0.9866466970760749 0.3163004533355004
P 1.5102344829272942 8.925638445771455 12.505927597158557 -0.8957196337771993 0.49781570853659424 -0.7553517993486927
Ni 6.180830105205342 6.429742015495509 9.752894928216712 -0.31359565280982765 -1.3748267101606968 -1.4860559753520344
Ni 0.40933947819049443 4.361880501269228 7.8857652762388835 0.3505529467604672 0.278609623652946 0.5672658329086167
Ni 5.607984136855814 1.8065229627478216 8.056071284202877 0.24318882095149083 -0.08934017842773 1.4816053957798483
Ni 5.710799799068461 3.0999939218519783 6.06096479540995 1.2862030981840171 1.6004417838944824 -1.0789390161535934
Ni 0.6052809812130133 4.222672532719443 3.48988995974868 -0.709214895781314 -0.15688640090882014 0.8601396797900607
Ni 0.4741605000496853 3.0120088641527385 13.351030733488962 -1.1142433478818423 0.013074059575138772 0.22710657067764758
Ni 2.37766766474419 7.545495362784082 3.240608208946956 0.6792857123220495 -0.54823375597783 0.8382320810836918
Ni 6.355653715017995 8.458992180315313 2.377235875946948 -0.15880830052188133 1.1062631578898432 -0.6376952904747727
Ni 7.365124145298083 3.7563591237237035 3.3861228828200542 0.4323438520860296 -0.8163429943200844 -1.2673401998412432
Ni 6.843852436285079 5.168937219574561 7.7257436082999895 -0.13110826350345162 1.4164518419006509 -0.34026107791615595
Ni 7.2331927888131675 2.8483729298146607 11.844284771186924 -0.19254271665984904 0.12454963644932744 0.2401775449289928
Ni 6.306316990776389 0.8889005743101803 5.811588735277779 -0.06955991047700923 -1.0055880140652682 0.35837784212152474
Ni 7.0029670703693805 0.4923695976361589 12.828799288348472 2.9438994928255946 -0.686528767037708 0.7326852109891123
Ni 8.352727755332404 2.531114492988892 5.300088212580092 -1.4711980844035952 1.5229286800086674 2.1140414947382107
Ni 8.909365463262976 3.168137036106223 9.727169746834134 -0.21356457032715478 -0.43033196386232336 0.18792655804407637
Ni 7.062224766333486 7.5941108980281555 7.549915881498459 -0.8876849363981808 -0.003092008661762417 -0.8250675186772757
Ni 4.068227135093539 9.320073351346231 2.063945827810178 -0.21306346232102016 -0.11210241182491015 -0.5866236686099381
Ni 4.572883759124877 5.412828544920352 5.716955794383314 -0.570099959923302 -0.5369823514337269 0.9308691850951388
Ni 8.977129490992876 1.4315046840297503 11.491154578544032 1.4055827603966309 -0.5726119277118783 0.8252688360548045
Ni 7.940947329765638 4.936751346419526 10.97254941961935 2.180362329452632 1.5599777623421651 1.658883730081459
Ni 6.09683007901812 6.515628228291666 0.790608061553867 -0.8117029244449118 0.5166305272502522 -0.7327898548877767
Ni 9.264874654996454 6.332205826585327 4.72857089626833 -1.0475077942275057 -0.3384849598523397 -0.7563432167276846
Ni 1.9557628551735708 0.5418986389437764 4.299794449992996 -0.23913830503120104 -1.4234323869835421 1.6821200749015806
Ni 0.3851019802656534 6.783263314479371 7.1888294948507125 -0.3307012021418627 1.2684655716949378 -0.05767524322428131
Ni 7.938081065801077 8.90832066381783 10.251945694694134 -0.36253814414680147 -0.10791511321643996 -1.0074777748888133
P 4.031649908500623 1.0457980145277024 9.661428746702446 0.09928006324926128 0.6852154475429232 -0.5687861262078849
Ni 5.606652711014211 8.705777507664033 9.494668584643 0.23253776899554793 0.15471073341374 -0.37869264241947687
P 1.3074047003770395 2.384001183504591 1.6970261316939106 -0.0033108095407878464 -0.033913879138625466 0.27484964238988147
Ni 4.220638409905884 9.311567019580435 7.427474632540077 0.6424608301842161 -0.6929529253964969 -0.12536827569588085
P 8.454563340189427 4.77666588099239 6.264033125090158 0.3886368981163823 -0.1289567643780876 -0.6775926408903428
P 4.630246022467256 7.077785805857217 10.967379973869072 -0.8629740639150622 0.4312516474631154 0.5932589145382686
P 0.999077911905355 3.761786533230792 11.414872199231713 0.2707533608333208 -0.05881552747631161 -0.4993812532515013
Ni 8.24956074463378 5.927840703275265 13.180129282301364 -0.5820460765415847 -2.0490977428769743 0.5077303965471449
