# total energy = -381173.07299132884 ev
CRYSTAL
PRIMVEC
9.18167404132755 0.00000000000000 0.00000000000000
0.00000000000000 9.18167404132755 0.00000000000000
0.00000000000000 0.00000000000000 13.43830805731905
PRIMCOORD
 96 1
Ni 7.0636820425021565 3.0541552582393727 8.300184485219653 -0.6237599113406033 -1.4296179469689636 -0.8261576664176611
Ni 2.5596853954547574 5.35792904052644 11.1564159095724 -1.1702396607418037 1.4444478128929445 -0.045669219902340706
Ni 2.628153137252672 3.2989111376958564 12.260655422509403 1.1063343774474108 -1.1393645684295024 0.10833677413489085
Ni 0.8220600490908029 2.8386613732994443 5.477749884091249 -0.4774176044962165 2.8407954278445526 0.09411137456412824
Ni 0.3035911272326478 0.8109731779333694 4.575219809163611 -1.4251545118809714 -1.5618328132730328 -0.5524578213615066
Ni 0.8091019528055143 4.58399657118381 12.716119698502293 -0.6384403961709134 0.09961250688801554 -1.0247985255554481
Ni 5.732532151377065 8.177905707568843 5.078483879148714 -0.15813827103805023 -1.1870688164840009 -0.1430780342708181
Ni 4.448511792054131 4.416385115300623 10.726094729213065 0.3112983721352187 -0.41446260093023457 -2.2792508136904295
Ni 0.5870385802356531 5.926072654174199 6.249189528987301 1.4831537141035747 -0.7418985020572643 0.4715560035091169
Ni 3.339439046009655 3.255894995772398 2.6277537344407893 -1.9709135810660636 -0.3423429001458491 1.9982734611362554
Ni 0.9155882514577431 7.661693641139671 4.314973527777765 0.6021446470636727 -0.6778304679327616 -0.7721315899101928
Ni 0.6980927616214829 2.8904368320628127 3.209713012710155 0.14284894897914752 -0.053433694339107975 -1.16671673519021
Ni 8.757866135444027 4.369567760408903 8.862079969821751 -0.06446732644545027 -0.14048764783582257 -0.6158784517099973
Ni 8.449637344756622 1.783384054262341 6.771952719698732 -0.6158640535322942 -1.351089771555073 0.7975204622969426
Ni 3.4012317109285184 0.8405611218711162 2.4551786656816534 -0.5517240285192756 -0.7849935334745255 -0.3334150015286
Ni 2.3863445750976675 4.730912534239788 4.3521170711154715 -0.5795456787172342 0.9347078421149386 -0.7713348050405102
Ni 2.569959688477671 5.050701052287201 1.2938043509629842 0.5901049422903192 -0.008821454946371904 -0.6467931390109829
Ni 6.055974975611358 1.975225947399745 6.227594232124126 -0.6368653383743096 -0.037132643186239274 0.9250374089047101
Ni 1.3879752704984714 5.78431679181427 9.188093662730232 0.13161991303254753 1.1910550548252583 -0.4497548484736254
Ni 8.790516167606208 1.9102380599858202 1.2212884091706084 2.4387502267420644 -0.9674567544111855 -0.05229520985929058
Ni 4.655310631871004 5.835881072079401 4.975909891718169 0.4187951668673175 -0.5013386340881882 -1.2284885170813682
Ni 0.9836786264609819 9.068977971716057 13.283848300492647 -1.6134479663461632 0.06488384515757858 -1.4290834146217324
Ni 0.8722452419457096 7.037367365287079 0.6054551816166719 1.9081452395895913 -0.8693432006661995 0.9495235669715324
Ni 1.3132823538394887 3.289995732400728 9.902165291329174 0.5383913159661115 -0.4582870543143527 2.3850650785137826
P 5.045283864723734 6.978035388956368 11.039932604447117 0.9561654977680822 -0.6804033708662605 0.12150416475478429
Ni 3.5761701425331394 7.74690875601515 3.7354198480535312 -0.0859406658278778 0.32837075423647316 -0.7145679325631114
P 7.2910937400817115 0.556092666737505 5.135852813613208 0.3034716770019483 -1.5670727215157334 0.22409015244882696
Ni 9.065957201023888 5.186149104721536 4.033306401331634 -0.16037950166374315 -0.32822677245944115 -0.18217345761038303
P 3.940820318945123 2.006333458357413 10.848167837369939 0.6208489083413953 0.6119472349763911 -0.5627185798575663
P 3.6345472247848676 9.099608035634235 5.6265251360990955 -0.9955180314237759 -0.574308855798327 1.0254950374018403
P 5.5714580472653825 7.03122482549054 2.980428253667978 0.23877963614020167 -0.28763059620463366 -0.17689986791626955
Ni 8.185287773333295 6.29763663098498 10.34282044559136 1.1125430773612839 -0.7867912488048966 -0.623543681564739
Ni 3.4203938642250513 7.468777492163411 12.36235623275811 -0.973673938965491 0.7136384787703064 0.945735817794326
Ni -0.04630685382641823 8.339852070694981 6.440510821218181 -0.8435300962578376 -0.9139346141233292 -0.8155135564402536
Ni 0.32258158322844055 0.2948446647361086 10.923301474373067 -0.5605979339701377 0.6832593522578169 -0.43879217881453464
Ni 2.38009185521509 1.6136608133967858 4.5023173189027235 1.4357783101434047 -1.502550630572948 -0.4644307053182453
Ni 4.145773642320883 5.3493441754894215 13.093762861560144 1.5142938871518052 -0.9534694389931581 -0.694840886447829
Ni 4.167497482617767 8.932051669794067 10.593135828555775 1.7504180879470306 0.1837243470372707 -2.2331496484569926
Ni 6.24754141853367 7.977800307978693 9.396602130215442 -0.45707760738728376 -1.4008349612990005 0.13828138421312314
Ni 7.764666113214717 7.31839085639728 3.8243002871244944 -0.4366375943653771 0.886485516773441 0.21792259018553437
Ni 2.4390841096138565 0.7003624713938369 11.731575240198541 1.050081211381637 1.1462713228516646 0.752499417501562
Ni 1.256934421505601 2.909084811624508 7.674255089115229 0.12487719499207524 0.8093616779062448 0.8275859142237555
Ni 7.649335108155899 2.4979386389050764 4.401435513960224 0.9245463282009044 0.026453309095522185 -0.16017612740368542
Ni 4.92651891365011 2.043721234219168 8.74204886592609 -0.19686731217713194 -0.16110943785123222 0.9971792211762828
Ni 5.493432183003793 2.4836335910679903 2.7335798707441823 0.527141454083905 -0.2441416717830634 -0.509821988968851
Ni 1.5005242283848643 0.7020739353969389 6.9099238961033045 -0.5903970196094412 -1.271047216379185 -0.27157945627904195
Ni 3.965436386500468 6.822369290734316 9.128857175807418 0.7554250757887893 -1.5446236484835978 0.8801253788833682
Ni 6.247091516515687 4.201074863837423 4.284091885996471 -0.6168480147121183 1.1820780481376287 -0.0669273579501686
Ni 4.046694199952466 3.072637967672013 4.994589088970908 1.2199817651619376 2.1466004025108383 0.48453158983317834
Ni 7.599799977808607 0.6571002606115637 2.6763064256875873 -0.2505262351531686 0.20319428283642427 1.9911551049239191
Ni 6.827749751602437 8.501192443347918 7.1382675335772525 1.2106180645588505 0.3124581967712748 -0.34825823718901955
Ni 7.515466303621422 6.339606062091091 5.865311091227162 -1.4582975742918434 0.4979640611890005 0.6481486245976128
Ni 3.3600335404246637 1.806108697007391 6.933924791511612 2.123553033773072 0.95429347755635 -0.5172126250059673
Ni 3.9399572416045032 6.9451833599697865 1.3153307852723861 0.1665223813366874 2.0656970419965526 0.8849834783066178
Ni 4.861420846150148 1.0418720752359827 4.337146351925248 0.5648402541862595 -0.45742573475532183 -0.47023908446990625
Ni 9.205638005096795 8.2904454837814 8.828820274516836 -0.7456672250710771 -0.9534259873497323 0.17340059651375941
P 1.660450623266998 3.0965195013204476 1.2112656940108115 -0.3254957466815233 -0.9831230001935326 -1.2253679691745154
Ni 3.2665365557487673 4.277273575005572 8.708869969350934 -0.279935284442905 -0.16328510534631235 -1.1954560121064313
P 8.39010337160151 6.301272573824188 7.932861523553897 -0.14626645930112875 0.9466899541774793 0.35785385129725467
Ni 5.504174741392362 9.067316088751673 1.7519652845616194 -0.9069640963427671 -1.556530941444145 0.6253437108879553
P 7.913657134557717 -0.005291398631908003 13.440054281136279 -0.682208028175167 0.8465048626154454 -0.9118615336443845
P 2.9604103683698937 9.156763955265724 0.48221232821304255 1.9084915671854163 -0.08844774852044766 0.7070585115599436
P 0.34438163141816663 1.344169504625084 9.012159019514364 -0.20049770984086762 0.15650999140600785 -0.618305058873619
Ni 5.09706850516094 3.1803114567512867 12.444814090980522 1.6725823106144744 -0.8567067428491116 0.6272234444091714
Ni 6.374175064085075 5.259574950391096 11.567251741716163 0.9415374634422624 0.5474963635911733 0.6999265285008526
Ni 0.5591198646013608 1.9748678621201259 12.585042122814079 0.06528802257453273 2.0530212463010966 -1.0051334430263528
Ni 6.484492875229227 5.157171742093908 8.73522229142874 -0.5380017938371767 1.7190904814783425 0.6284945978121111
Ni 4.944147727415966 4.755657145228843 2.072428655636006 1.0285379379932222 1.2049811779880473 0.18266659519671766
Ni 5.185074848882678 4.004348320219063 7.1212814369799435 -0.7257321767100469 0.49984019516579076 -0.8577907199419097
Ni 0.28325371968505764 4.865818867917776 1.5060442506952985 -0.6828975980430239 -0.5324392121477346 1.1646873634650072
Ni 7.317950136053134 0.7955654110685337 9.022385567833329 0.44785531745806745 1.0267865025197542 0.5431833380381161
Ni 3.9922101474073637 2.3616366908039583 0.7046925487750755 -0.8390640900666839 -1.2746465036946693 0.13191507567546315
Ni 2.295932632830796 7.792468221591286 8.073090473554837 -0.8390800309062839 0.7339406806627683 -1.861581532897439
Ni 7.420445161088686 5.606293317800623 2.1469847653548264 -1.8201330359446652 1.33279997210695 -0.017645738106221224
Ni 2.0403515599212154 7.988496957998081 10.341637846001234 -0.10129246569359975 -0.6660147062447562 -0.18705521118271656
Ni 4.929374414213225 0.5814818312298736 12.640461787923106 -0.36353933171780617 0.16718289773882175 0.5907587738242343
Ni 6.51028419703563 1.6551527974634046 0.7695564835922092 -0.6936250117628571 -0.2790724222219774 -0.7227160155915424
Ni 7.675080521593119 4.140273819692889 6.207637864040746 0.6349226128256421 -0.8423725856146267 0.48205433193727953
Ni 7.2907907448451095 1.2172053188155683 11.573124340301915 0.09954360132329308 0.0023026799912476475 1.3713891452340574
Ni 8.290142488544799 6.238396471392632 -0.3921300080368971 -1.8832685309525696 -0.614929714643483 -0.791508708885224
Ni 6.51708781734839 2.969720585639987 10.586228455328662 0.19646724852523584 1.1704702886953713 -1.3403579869598656
Ni 7.653705584902018 3.154409954858848 13.055517517362071 0.33858934664068785 2.6383655339779786 -1.4889862616249518
Ni 7.597394379263475 3.453199984842451 2.2702000737369468 -0.6368645670433613 -0.5641280586105833 0.38833582193619576
Ni 7.615317006592097 8.242214151118876 11.343557703872959 -0.037258370130826154 -0.9288755517038778 0.4353312168491277
Ni 5.274109540074092 6.530456334454165 7.0246333018434 0.18976978190040222 0.02948566816394277 0.8052761949829615
Ni 2.6210097950079656 1.019799331333316 9.12736607197639 -0.12143165964563603 0.11443594505409324 0.3819052358195036
Ni 4.611945586341763 8.756139980762788 7.711935760372364 -1.1361779431714045 1.0003175096949481 -0.26942307205767146
Ni 7.850891212212196 7.836870796264039 1.5931113091835751 -0.07436581650608484 -0.4152164483771236 -0.9304112716221138
P 8.604568909071764 3.9193994738848392 11.01749075725623 -0.5777353649813727 0.026786781175540963 0.4337998678062658
Ni 6.092967939498148 7.517982082252591 12.997128498934355 -0.693564847948883 -0.3470372202977249 0.46069900618995496
P 6.312657849381305 4.815099301645592 0.3435626261119612 0.11666611993619264 0.35257949027219276 -0.3071637811415549
Ni 0.8848489256209137 -0.06781676112291463 2.1186161477025514 0.21517588067833263 -0.20285772543261194 1.8189415867397254
P 2.4769860592104487 4.177514688773262 6.37210918747189 0.8663735765149144 0.14800606770005478 0.9800888413528992
P 1.583737738364011 6.402537254565665 2.5860138451805885 -0.3225988847497025 0.8901588518599702 1.567455558776449
P 0.9488800826210874 6.777654539151127 11.642197154405645 -1.2697626932398067 -0.5956078743864193 0.8268636913457502
Ni 2.775720999151033 6.992643432030055 5.791212228865393 -0.19757539398775006 0.27003859415448334 1.0655985902909453
