# total energy = -340887.33060937905 ev
CRYSTAL
PRIMVEC
9.14888080178651 0.00000000000000 0.00000000000000

0.00000000000000 9.14888080178651 0.00000000000000

0.00000000000000 0.00000000000000 13.39031183645636

PRIMCOORD
 96 1
Ni 6.645682916316691 2.256580579648246 11.301235425437547 -0.41867303946715634 0.035642946014590234 0.6193116457612624
Ni 5.093794874494792 0.3015846190997918 6.101000642814496 -0.42999206402440143 0.06298894212771089 -0.5187979672152162
Ni 3.1642593341153336 1.5573865191374936 4.741415669611009 -1.0518987242063498 -0.7227826071634198 1.776575720179005
Ni 3.5470942480438437 4.245885757802705 4.374788912774523 -0.7609938281258185 1.0033418983435687 0.5894860777593978
Ni 3.6126185317947335 2.526344476699173 2.749432614068406 0.786989995079264 1.9766224585253829 -1.1686157519851357
Ni 5.079312196307462 4.530635521480826 2.3149440344558485 0.6135593166585175 -0.3548441179366534 -0.4101827426079581
Ni 5.0014918168624645 5.176491607366098 11.056273229143432 0.9935339111142115 -0.7952591770665915 0.047665167286446944
Ni 5.745442201878851 7.92079901845248 12.788912962780637 0.515562490997054 1.167742605351563 -0.8120250836710209
Ni 2.1512220692216544 6.680576747401011 0.07042167960286576 -0.4801540295907731 0.5635765569824874 0.7211640977233903
Ni 3.2355931571264605 2.080894623090254 -0.11932061730068147 -0.9789840383244947 -1.0427581953576621 0.8856442518190683
Ni 8.225840999578168 8.993075286039124 7.120605889180496 -0.012767069857681237 -0.23394596219698416 -0.3640031587281022
Ni 8.782111245406373 2.3345656389462888 1.3349955264794886 0.6353643283487509 -0.04673417083174532 -1.216021752072925
Ni 7.255894962898212 0.7736119712142028 4.946301193890216 -1.8285757673953797 0.9218093888857156 -0.8316428579019485
Ni 1.1918795853017214 7.900104250253023 2.7099314066510867 -1.0490255164236126 -2.046760095882733 -0.2067143801745408
Ni 8.00736572787037 4.08752778133745 3.671530004557751 0.7350174586667149 -0.5486492462486938 -0.7504759593136301
Ni 7.866637644561771 4.099403028518219 12.488139849401133 0.8646578793753883 -0.19962559164855942 0.7675871650726199
Ni 8.379231133809865 7.679945584491866 9.34908842634679 -0.05028332163558436 -0.6321663902367435 -0.9218757233472769
Ni 6.721801603946878 0.7127737441705464 0.5352552668033805 0.9109156247913474 0.19529662525590236 -1.3585138319332861
Ni 1.9006159284084214 6.648628855910071 9.192958202338021 0.45083548313231386 1.0919714238575193 -0.8185893671520998
Ni 0.22524910299642684 4.70831593403682 1.263276535589849 0.15326525921646508 0.537474460578797 -0.018720716337954853
Ni 6.4867943047694 2.0828524835653575 7.033984286478258 0.4090437439075084 -0.15782073979763142 0.8407828725300036
Ni 3.755633835284528 4.60477805087446 13.272838434277626 -0.8405633003200297 -0.8686346046349491 0.6170447041039567
Ni 6.2457304465521135 5.5063362041366695 4.334002287615372 -0.9888557889122518 0.7107835258200146 0.7410436102561366
Ni 5.254732835324435 3.19109300128112 9.22695544311131 0.863075622489933 -0.28807642549280066 -0.7941507744937614
P 0.31493375096532145 5.8910557874944836 12.566740628371953 -0.3665416088792397 -0.40876169389071537 -0.23653711996292812
P 4.157800334184502 6.606095709420559 12.529019793143675 -1.2229254211712939 -0.8842157469026579 -1.2945632972232544
P 2.6907315655620585 8.694519861347308 1.47017572851658 0.6685994362527969 -0.4606912928804711 -1.9985462551816677
P 6.823409073276309 7.923809000210934 5.618614927943486 -0.4561473822635305 -0.6244132286538859 0.9726562963342539
P 5.051463003381224 1.1318995232700495 12.540803551517195 -0.12896267791535854 -0.31694451467740253 -0.5914308601905943
P 4.2548882564358905 6.237240285239516 8.021921597103498 -0.387770436351029 0.188537709265514 -0.4484613264731825
P 5.058132537429591 1.0424326186624047 3.8151271768616417 0.3230146321308824 0.5184171868370298 0.424136890795205
P 0.6388965323179304 5.816483260706784 3.2393570066566357 -0.19638857276850047 -1.1703183364985392 -0.5214474890229213
Ni 0.14280304945697986 9.005892867934545 4.512093484915909 2.009698929364377 0.8017108462292063 0.8781787966799586
Ni 2.207862789788781 6.317485118076581 4.708756910087754 -0.003787492066890251 0.3382905844533464 -0.8702261174917851
Ni 6.3656082306889346 5.936900828806367 9.084094755705765 -1.4255278360599901 0.8267878438024922 0.8762214158432716
Ni 8.910900039369132 2.7387906360093397 10.471558198253808 -0.4051924884822183 0.3153028653089215 -0.37986069458564903
Ni 2.1938101089955153 5.276580362495214 7.033301779976189 1.229254191602799 0.913048097753318 0.06896778541896509
Ni 0.5872995896943765 0.5963048329917795 9.413991501096469 -0.3028188739092978 -0.8662272807450372 0.014994930746935467
Ni 1.4674164260899858 1.2636159590647382 11.538993793048968 0.581962772799159 0.4131379685815401 0.152401368554273
Ni 4.3734760483905175 6.9646220472633225 1.310601865803002 0.2072802799803398 0.9757843004402743 0.8550103289832952
Ni 5.972462528183596 7.941127831422947 8.01703426502032 -1.0918019881591907 1.238019596500255 -1.1252278719178042
Ni 5.232976796960903 2.945518744866517 5.048294745986233 0.7558665342015821 -1.7522029477615952 -1.4609985181627743
Ni 0.8837708993570874 7.403146198163581 6.42874191190644 -0.3271857327894365 0.011329051859574038 0.43489567197360585
Ni 5.339460619716642 4.589499420064074 6.6662733872758855 -0.8522299380246806 1.135471146912367 1.5910667704374857
Ni 0.7021244470068999 7.739861604358464 11.14304212882534 1.0930769982168722 -0.121053707480927 1.3762696132548105
Ni 4.965737990990015 0.6318528090479205 10.372992731765367 -0.6887270602406075 -0.607632152540805 0.18923319267064184
Ni 8.486199847244018 6.852447620696768 4.5753891013222425 -0.7194165189046643 -0.31334034226591195 0.3665125554135172
Ni 7.361555386388721 6.189949720773117 6.8835172196381285 0.6980465378693204 0.23146613319792392 -0.6797793641290164
Ni 2.6093431226343964 5.302974883386211 2.172966214040244 -0.9550506674373488 -0.387316636643062 0.12877987248059114
Ni 2.550076673299258 5.553471237630746 11.225714159718688 -0.7757661013389866 -0.3742592892384716 0.5987718739366978
Ni 1.286222843335675 3.0338694860257385 3.8935815737408666 -1.1134383354820439 0.19786052932833664 -1.872503064905949
Ni 1.7972427250991077 1.0518193702860312 2.7154344584070427 -1.4795210024469938 0.7850855789676996 -0.613312233644718
Ni 0.7265290863402564 3.56426669716426 8.046706829875005 0.601053470882023 0.7537500020792115 0.5722398890844402
Ni 3.6390130526857303 2.7306115366413843 6.9298745982706 0.008498267278998268 0.6393605939923376 0.1846694845593594
Ni 4.4111785858573445 7.085039615362905 5.762038271513606 0.2549202504558061 -0.5053840078021554 0.21737211699870307
Ni 0.8991108276683297 9.179163519981193 0.3410190396878203 0.5286321796968185 0.8190189984903506 -0.0949994335960364
P 0.15414766155570975 6.050639713976859 8.059320391730262 -0.2795424198798605 -1.1408408958647125 -0.432606618829113
P 8.704995329777184 1.796126561650684 8.008906399384422 -1.370236776797169 0.8879659579737094 -0.38851399938527287
P 1.7899419182807312 3.459393077416082 10.565584905014683 1.0301998990766774 0.26406540729018396 -0.612034909594191
P 4.192190976828959 6.158843526308858 3.4150521120953523 0.2661081487518256 1.1462936914491677 1.9723914511631708
P 7.135852498908346 4.354007230208181 10.372470330675982 -0.6077427099767405 -0.9347073278943063 1.0366623668725694
P 6.383293017129939 8.011793786141164 10.146201127478742 0.18009086404974145 0.0007538474468890244 1.0925496649584925
P 2.3132030024539225 8.932656077732663 5.84049266839283 0.3644451313615272 -0.6716114836062433 -1.3800185387742814
P 6.990915930466347 3.8676618797594857 1.331420143892244 1.6969663958857935 1.8555512675429593 -0.03924583287450015
Ni 5.392917529791545 2.7682225853009634 0.5200699545763872 -0.3677623686602182 1.120353317434322 -0.46830870021641285
Ni 1.5024108948622776 1.3103667395683751 7.160776794666869 0.45814178698573993 0.23690607326657265 -0.7127799874247531
Ni 7.185320496987242 0.9068946953889744 9.24168514107821 -0.7173218411591646 -0.03622890042504729 0.1393401644949407
Ni 2.966021386570754 1.951575194045458 9.153790929067156 -1.1219417449673648 -0.8285493065782893 0.8498017881991623
Ni 6.666277046828175 2.1154499455877565 2.568314967024111 -0.9003000540590301 -0.2413659088101391 0.9680581354406103
Ni 4.1581388427713195 7.2295187397686655 10.189759863497502 0.09943638632146747 1.1982687989648781 -0.47639893342371503
Ni 8.411224769704429 7.608071977517977 0.10308958800684544 -0.9035031343773602 -1.0002380626072644 -0.07110334370472915
Ni 7.367355776768234 4.138038751818973 8.244816693089438 1.7612871694510506 -1.6429467471362287 -1.1252052462099846
Ni 3.148843470094076 8.7526244028304 12.325366623098098 0.7308242465209737 -0.23887219585400796 0.0683913440902048
Ni 0.10366962704479663 5.308802720407898 10.370474959789906 0.4754946764418908 -0.7180558911117118 -0.5791487003891317
Ni 8.711710608229174 2.48153325890919 5.829391416521379 1.3542329451697452 -0.9963896353954517 -0.1267949808400784
Ni 3.9716663558388094 3.009963460691883 11.202870319436979 -0.6250436631490333 -0.18777614850914112 0.5036274301223649
Ni 1.3812431185432625 3.455971396025013 12.819000886820227 -0.9259990014870311 0.662976947859697 -0.7804712201241397
Ni 3.321812209076808 8.683220993652203 7.736011755349476 -0.20493183435282125 -0.8364415648421724 1.14387479759503
Ni 5.842310550992845 8.193591195023311 3.661232939302008 0.3486873543066382 -1.2898388951643915 -0.5026671230916246
Ni 3.4012427915293664 8.512310752832548 3.524129642536568 0.5336589434874487 -0.9085412110218999 1.1831990491159494
Ni 3.220927501324635 4.488870880972195 9.097980011981766 0.06752693920738048 -0.0033779153332974083 0.04121915455078707
Ni 7.409843178854122 6.3999988733333915 11.456871609887179 -0.47780918350768037 0.3336775111613673 0.019124893754908997
Ni 8.207140687376713 8.959837402365991 2.112804089282149 0.9048704470385319 -0.12266810315589842 1.2216452689072896
Ni 4.569399329111727 0.7708087541601295 1.6555375413291018 0.16103770407303233 -1.9399616127692396 -0.4428936025774179
Ni 5.982379914889259 5.479319559356388 13.377523587082875 0.9395919096801174 0.17231456253843225 0.9276740751966087
Ni 7.908996962317512 9.102285475250849 11.527812945915214 -0.6312068545369516 -0.42826145448653985 -0.3929890044374909
Ni 0.20862009739106277 4.775285740942225 5.720501438135022 -1.2716956485964614 1.4286632963651782 -0.16161388829147652
Ni 7.700164610893634 6.178943617261204 2.2655739294007065 -0.5350285701414657 0.010596030348291428 -0.12670113557469145
P 8.64074274044704 1.590853124828747 3.3163119019850686 0.9648686819690351 0.2960725563243998 2.2356204785949885
P 1.9647953266927682 3.1331165441281756 1.5112569476350695 -0.06963832912342846 0.2218635771111534 -0.15722192987136796
P 4.774325108466123 1.1534542862576362 8.237518630935279 1.2596196912685338 0.6261939747033924 -1.1323793953609207
P 8.655692011551332 1.6223161256412728 12.548301974159227 -0.07595835780418532 1.1829036293627178 0.27101921290019776
P 6.507059075574792 7.821808129010337 1.4820665287945796 -0.3300036618542059 -0.1388035752651803 -0.7054500294222431
P 1.9036350590475994 3.5461427644484664 5.75222335227206 1.2998242885118776 -0.9892972473250445 2.1814527343033334
P 7.070831403597318 3.766209941402377 5.7008313445767405 0.46252294677257116 1.8722120160280917 -0.1499917306715159
P 2.4250572181951098 8.899162025399237 10.13054739255864 0.9544701123435304 -0.8616694861710257 -0.021573098185085425
