# total energy = -340874.49442408886 ev
CRYSTAL
PRIMVEC
9.18718049142599 0.00000000000000 0.00000000000000
0.00000000000000 9.18718049142599 0.00000000000000
0.00000000000000 0.00000000000000 13.44636730363522
PRIMCOORD
 96 1
Ni 0.08459004531597109 7.886992302144388 9.15013223051349 -0.710118638542506 0.27474551271184944 -0.09985444769549254
Ni 1.0742478233541701 0.6529898754140175 7.902322031450623 0.5829107385347251 -0.7798749813010376 -0.3787317231875284
Ni 0.22161041076723723 4.723202969057852 3.2194103609936486 -0.1521026063669316 -0.3016793609882159 -0.09971355124225406
Ni 7.978946791312617 6.297656019433044 4.861467278742646 0.810309900752127 0.38901844982551714 -0.5629826321522303
Ni 2.3639809642666196 6.626878631016969 6.381336533884029 -0.0012395288340559297 0.7005060551534065 0.23226548917076775
Ni 2.8296423927790455 1.5957581218489783 6.051282482468981 0.41870980624236276 0.858416783561683 1.2108764604265598
Ni 3.938709630055444 5.297622239789631 8.764194397830332 -0.26588317722521304 -1.7858286062358404 -1.2552477874530834
Ni 4.517924608984426 4.182528212135137 1.1788117176960824 0.8591428630944301 1.4626152278305908 -0.0030364728334786417
Ni 7.691976022638542 8.859859589184099 2.9929867863863437 0.27690601069827797 1.5149844854609262 -0.771676247540329
Ni 8.475017787129154 5.775502618306427 10.036288152270307 0.30448546297844337 -1.4049368992825157 -0.14202079665089734
Ni 1.648814088973219 4.933451593757116 9.501001676684105 0.7868760952092191 -0.15384992807534148 0.5253046579854824
Ni 4.386584677208125 5.5575735107472735 5.7078482214401225 0.131414996110593 1.3130960659201194 0.4051096989604249
Ni 3.3440877495044097 0.9228798381872456 11.353412871707592 0.2560124550787204 0.5722087787361888 -0.7920370705848682
Ni 1.0851070706512873 8.097691098685917 0.6313421221092819 0.12891974049256508 -0.045621140273224656 0.23550996424999443
Ni 7.071345234221062 2.982645696066856 0.7051326368010894 -0.5703048768452565 0.23308644241016632 0.024360945342867722
Ni 7.016451831005939 2.364706751522518 5.496874728203006 -0.204179529567829 0.4720414277859677 -0.39630109952985937
Ni 8.973220208811114 2.835696744698504 12.444774574812243 0.3832938886369141 -0.06539703734857125 -0.43070220271754855
Ni 1.1738276722995629 3.0098213758510117 4.566601047186048 0.8301968694840413 -1.0679688902953348 0.6314804199133125
Ni 7.753603629126752 4.594839683748781 6.940302048373438 -0.49922647284119187 0.3885052576345245 -1.123062231725053
Ni 5.180549999259034 3.6982076201197955 6.549967231124797 0.3074172919132577 -2.2716411196639714 1.0177457324737247
Ni 3.319502854608398 8.118950234257431 12.971549127707432 0.6279826911726991 1.4312773369492577 1.2876701696478468
Ni 8.891279746338196 3.7726789048832754 8.768537178031135 1.5146795526259977 0.03782118461283163 -0.37461204459220004
Ni 6.451844468999473 4.192248249055907 9.233969845750245 -0.7928233139315893 -0.4804661615145532 0.42623671074702724
Ni 2.409999551162779 7.128976417211601 8.718907110498344 -0.7810247786347646 -0.2646660169886603 -0.9265173358843461
P 1.918310840422998 -0.38277284901661235 9.993743238303962 -1.23951752120202 2.274883794970985 0.33709810680714203
P 4.057692804120559 5.357862582029223 10.892498459335961 0.21284594699357537 -1.3115050672839155 0.8884125585928249
P 7.635134937167083 4.274795065438815 4.539385862525938 -0.07653814156705528 -1.9326128857136524 0.333468994694987
P 6.7029944210817884 5.388997936589233 0.08581010288031728 0.47392578929287416 -1.1960121417202176 0.4478676587532416
P 6.121280529069206 7.1229680011944145 4.136909267588744 -0.3150107879897994 0.5788463386573643 -0.21755440821283822
P 0.5078131311553227 5.847199374572674 8.021820606339231 -0.6802272502997123 0.5170722427733611 -0.8005199112448987
P 7.8327971246437995 2.8794277236615144 10.30712439463034 0.5590840684287726 -1.029443223416311 1.6400079762228785
P 1.9846514704843212 2.832784408494455 11.654437270322783 0.09331998901108443 0.4456989332366969 0.7350526827800244
Ni 4.574627886749069 7.967876238865048 5.507605354973761 -0.44964737636148366 0.5679991115302153 -1.1015711517308124
Ni 9.223653560817985 7.545743671345636 6.606738494024803 0.3620524627596345 -0.999301409725608 -0.18955715166896386
Ni 8.981415173776451 1.2417301230381366 0.936528313470323 0.06808126904895373 -0.6917126252314927 -0.07532175266145093
Ni 1.0235988975089858 1.865778542584659 10.02268010058123 -0.783778944341134 -0.5270488943700988 0.21481849733891392
Ni 6.5001047279265105 9.246897127367651 4.995607463121454 1.6691460312394157 -0.6460626886028615 0.19976623099148177
Ni 2.1634891252099435 3.555062161459572 0.2273542359873368 -0.6197510472915262 0.8747641145714549 0.6689866443888866
Ni 6.049225472765237 9.002417068295241 0.44831695053253784 -1.560919557430144 0.21203167862239614 1.098946569623772
Ni 0.5560504221312231 5.64706583555372 0.7511916472912483 -0.17642729915522518 -1.4521305262491828 -1.1228146344906211
Ni 2.3471776112154963 5.523489071261398 4.320021717379805 0.7148970337677559 -0.4766843258746177 -0.5595777202357395
Ni 1.3550999298456046 2.452508635125352 2.3551851576995637 0.2629413209880697 -0.028112699075816098 -0.8134337910930893
Ni 7.995189726356021 0.6894253143781779 10.271652690895847 2.271627492817217 -0.2954909727893169 -0.8539636328863357
Ni 1.1277264007793135 8.908818073825673 2.9294390591831627 -1.049951884892624 0.582938506448867 -0.6735274696820336
Ni 4.207508155790688 9.183128907833563 9.469980243161732 -0.32174450716920716 0.3979388922435986 -2.442192933875026
Ni 6.598710735743736 8.702253508488628 8.980707760881462 -0.010252016745311378 -0.19560310075272763 -1.8702199252987275
Ni 6.810383373413433 6.933482404322127 1.6582998527924016 -1.7820799378266858 1.1937338872090024 -1.3353613050762227
Ni 3.7330913443052056 2.1151553688392717 1.809518086917919 0.7726954328334628 -0.35196242551348417 -1.5489616137373197
Ni 2.8031098156266983 1.326077626790111 3.6503387350801173 1.3971251165475809 -1.5611375869782211 2.0426118780423144
Ni 0.8567514319944193 4.868571725388045 11.678667540053254 0.5277945142868716 0.35481300758840184 1.0057404804827326
Ni 7.450408299770182 2.068842792168571 8.155800015060086 -1.3346182562626112 -1.19251004210423 -0.5758790284989243
Ni 2.2859266791259185 1.2601136711274188 -0.1780778749020421 -0.20991668916192235 -0.152285411801699 2.5283004642980713
Ni 5.295610247270114 6.5841582419039435 12.437298047358441 0.04052547091787214 -0.62485725816984 -0.27302441625568463
Ni 5.8450771358877045 1.660665551759413 10.040456376042474 -0.5123267576685757 0.8810494333595342 1.4848586126098233
Ni 5.527981602503606 0.6548530356101726 6.996911616897445 -0.4442521734878414 1.4051467013004768 1.432771404996281
Ni 5.197647342084698 8.884122932764207 2.9981362010310426 -0.9211416733947297 0.4331267529986411 -0.5655941016331485
P 0.8022402154861995 7.051583609063617 4.2656988380709 0.7947781236651151 0.5758849420361952 0.8673693647692805
P 9.169476757678305 1.0995952542278982 4.386298955895993 0.4850900334398097 -0.2598601109595847 0.39649007561221394
P 2.965970963542094 8.605631931649556 7.232128241917669 -0.7432655576081199 1.466776558297132 -1.1506421982258506
P 3.21741490539895 9.133095523078826 1.6637193705424604 -0.6540901868930284 -0.9789837812141784 0.16062967000133624
P 2.9966285847184735 4.259553533064944 2.7644657784812967 0.29604067464519984 -0.9859779531438245 -1.2377154349962747
P 7.295530811669671 7.373364604479467 10.52963514908211 0.8238899534294069 1.5036094108547655 1.0773989253599832
P 4.719105486575184 1.2660302153400615 5.017417829520232 0.038448790894501525 0.2733548030119099 -0.5979817739352347
P 6.293834152364008 1.5106848308411052 2.183138666765844 -0.7595288135445177 -0.9535437438745191 -0.5385088153805823
Ni 5.522800032727316 6.631812146920989 9.698245847450146 0.3194690808714692 -0.18481192367449462 1.1857768371454547
Ni -0.06378108158672348 2.4015197836033546 6.582521086346967 0.5608164777388471 -0.49976563317411354 -0.49002243774442056
Ni 5.223408196078875 2.8657571991453463 3.551709759311756 0.4814421522745774 0.43068291944383885 0.4473290126409522
Ni 6.773469282347598 7.168720159857395 6.650439155292314 0.23603575484647737 0.8447053475128613 -0.17412976137030012
Ni 8.045627347050754 2.3615922973484715 3.0399544090234443 0.10420783956818182 0.9843049363167756 0.4757978095046063
Ni 8.796651787657732 6.869162953960774 2.467085934352371 2.0404706633295957 0.45283605850211045 0.4450211904433819
Ni 3.020478505178132 5.7437884713777905 13.088183139730354 0.5107370445839526 -0.7921463424692229 -0.20445078095134467
Ni 8.461512631861165 6.7333764268445355 12.436612683696541 -0.45372206065148957 0.2751401770471068 -0.16928451746285683
Ni 7.393107855276002 0.9328295546193759 12.357695722311172 0.0399243469987635 0.9112498682023144 1.2752005764259264
Ni 0.6717409107214763 0.16178900395636617 12.105119001104288 -0.6277132395613964 -0.5495884702335115 -1.7589855179010676
Ni 3.0876643558412615 3.067810858879273 9.760449490152846 1.899861402314244 -0.12127019436710729 0.7935478508024397
Ni 1.5875172209813693 8.957941927715423 5.367265661224316 -0.5943914854808151 -0.20858100106963431 0.23844050763322808
Ni 3.010703345174636 7.85458911668167 3.7633024685115 0.8094802057619801 -0.37510903883327656 -0.3871572282470623
Ni 0.8508054888043227 4.753070492715152 5.9660190168257 -1.2236026497439765 0.8711005496769385 1.655809976252142
Ni 4.768541704600386 7.624202192426331 7.71965332247551 -0.7132137325280621 -1.1976453064482666 0.770420520756357
Ni 4.305443499434741 3.329213704348713 12.354790735851486 -1.162827427438133 0.276008438584673 -0.6019883239914664
Ni 6.9142168869092195 4.862930796589034 2.4894870364543684 1.051181129314035 -1.6293731222168517 0.0917863259753774
Ni 3.388967126024222 7.421817794196046 10.751688381947249 0.626018882578109 -0.6261363819925797 1.3844583197131899
Ni 2.36835406216292 6.423483642936699 1.9554647168986938 -0.6090105209455706 -0.9785590349719341 0.6186279894306765
Ni 4.464703272612007 7.069930408431082 1.416978346360219 0.22336073048197017 0.4371376739302471 -0.19736739174200205
Ni 1.880909828793079 3.0492619415418107 7.843427611147602 -0.10372704327702136 0.395930346454002 -0.6102863023342007
Ni 6.5752283025022535 3.7490494767545224 11.889775166125006 0.3634521713206386 0.6394562390299374 -0.11143212523076293
Ni 4.925761923716771 5.42695936622687 3.4068123053388755 -1.4642941581949103 0.6126041518340998 -0.42254949170342715
Ni 5.63091477231486 8.659569868097421 11.364237207718983 0.0063719649646148315 0.26187508450708447 -0.04033726616646601
P 4.810435247472514 2.52551915819658 8.436560249746977 -0.20843059153469912 -0.2192276821502031 -0.5784213353048039
P 2.923526189842702 3.942145635545395 6.122587864847868 -0.4712916941041367 0.03411391096457351 -0.3204535562719255
P 1.6286482278757803 7.017085746457293 12.096983752811903 -1.7032627704174663 -0.13149084365385097 0.3278007406656161
P 5.88370004251806 5.51600151919105 7.698180125599409 -0.5229202169137058 0.9861818416245145 -1.1672600092881897
P 8.123066091101009 8.469762719909228 0.37783198336822854 0.38467817057895043 -0.04327783685202869 0.29114735110864054
P 5.208635209908176 1.4056202351644271 12.477663762121 0.5700547085076634 -0.430753110560142 -0.26457937081212496
P 9.145636024399101 3.562742644319462 1.2714965877104376 -0.41871854799311115 0.7545462727282618 -1.1117532344701369
P 8.184611012965128 9.286218259712543 7.14179620881769 -1.412114647977878 1.0966387474262016 0.9525564402605854
