# total energy = -340856.29613234085 ev
CRYSTAL
PRIMVEC
9.44272875458208 0.00000000000000 0.00000000000000

0.00000000000000 9.44272875458208 0.00000000000000

0.00000000000000 0.00000000000000 13.82038801797749

PRIMCOORD
 96 1
Ni 3.321583653363209 6.606727817077684 3.967985639345107 -1.2081747452246805 -0.6724337223972225 -0.31861007530528357
Ni 5.3430357773727755 7.182989215054709 4.653435196613724 0.7517206303540086 0.22578913741780468 0.5979126112601961
Ni 4.606578488778806 1.1153751016606794 12.621137820475125 -0.053657637424455985 -0.05414948945920998 0.7392582362209398
Ni 6.192635839993991 5.51976588575985 6.454135211525564 0.1117699681861559 0.2646343924197765 0.505043336633285
Ni 4.207783732019277 7.414024455592568 7.699807692252323 -0.20870210002853087 -1.6795780252060173 -0.24622812199844693
Ni 3.3715356876316225 8.80726128889452 11.788292935473168 -0.7570937217404639 -1.2812069305210063 -0.39522920662191935
Ni 2.5497066898087817 5.552229986670021 8.296336962886006 1.8188423421576998 -1.5471885809972967 -1.7233924512878063
Ni 1.2268653981837714 0.8498625704761611 6.879747317495356 -0.8481583390584684 -1.01438555775224 2.655303704494214
Ni 8.134665173789639 3.869035286396392 13.171230584696374 -0.07188290218323105 -1.5991264075171685 -0.7318146354587008
Ni 7.64755257647955 0.20347191576857707 10.305545644999084 -1.466696854099132 1.0186769860387423 -0.1314031690360511
Ni 3.3193646121433455 5.083965075635877 0.6497390462674288 0.4244662491101658 -0.17956430212231012 -0.18878916315468777
Ni 8.452214693716382 8.003458459959846 6.1368604750009395 2.273321592690188 -0.45854159352731994 -0.35909929366858157
Ni 5.425263057979457 2.977830561584887 6.401409847868752 -0.7032561070947179 -0.3586141265020469 -1.405126903806135
Ni 0.828375641557867 2.228871100330921 12.810089652482919 0.3916180922318933 0.13307670008373212 1.7428315338490243
Ni 4.8899075602766775 4.203732801451952 2.9229154291668564 -1.1203227213067029 2.546045446986318 0.20164313629922045
Ni 4.986327261961889 7.708467618646948 12.987350442217043 1.1827449922976663 0.16917216025470866 0.9085283555060933
Ni 5.809893721846239 3.0244209844734224 8.602900812365137 0.7103731777554734 1.2462065031864216 1.9840452333520153
Ni 8.661890482171982 5.158487089708905 3.0795278042819354 2.2449643817037335 -1.4472194621008108 1.7664309184355191
Ni 8.158555277135402 9.300313362490966 12.652440465768091 1.5964486035746894 0.8706966293703005 0.3547165912198536
Ni 5.271308810963915 8.052409564997173 1.5953980983415206 -1.1748090252800412 -0.6712214472566762 -0.13101596089996145
Ni 5.3482859344716855 8.00083338141039 10.661351435556274 -1.1216818064377587 0.4915213908874503 -1.1665701823100167
Ni 8.062031705435643 1.4070893161510567 3.607964614743038 -2.208429005781861 1.0850006489666408 1.4788406885505176
Ni 1.911652075905008 3.318495881112591 10.685882700173648 2.746895655070598 -0.6334041192985865 1.123866215683587
Ni 4.153450271682708 4.54403929729304 9.702644421109385 0.014666086652606998 0.9472149734430139 0.3177477273049883
P 6.318828464939752 9.268198642538817 -0.2031621942706557 -0.8714553619131961 -1.095725748693629 0.6734133127016725
P 0.11484057662865604 4.118125024008203 11.487741271290577 -0.8708442106917583 -0.05034682788366813 -0.17737886443521708
P 1.63087254112783 7.91518783305226 5.794335882212849 -0.8089706131154132 -0.551720943195482 -1.1155718368852787
P 7.296122546353359 2.2028469403226514 11.531496987054844 0.48518619269804186 -0.3235964727762814 0.563583756071339
P 8.53394150970752 0.8338193745929787 6.33464409106379 -1.3685581035431655 -0.3837682571701713 -0.14066916771900936
P 4.950152168713819 9.678513528184444 5.772389092411971 -0.7030591605925635 -0.16388828614795 -0.06418759042150236
P 1.3795165486531802 2.569866915359455 1.7122631959809798 0.7163864738290888 0.08747638574611385 -2.7311237369483226
P 8.019105061242032 3.667244176317754 8.505716249663719 0.03789111861881861 1.0603028891096449 -0.6350627379479321
Ni 0.4915289614740477 0.5907248253662373 4.721914808658707 0.8824640543188738 -0.8661738017992824 -1.3537544628714298
Ni 1.3296589416707183 7.3132327705677955 7.768799100187164 -1.1593065587690679 0.3562263429961607 -0.8185286891174935
Ni 8.74455212829404 1.5566149234554663 1.272819381164993 0.9519807702627734 -0.0750921531491481 -0.754828836965687
Ni 0.8580673573524983 8.337693281314243 0.604629243222615 0.8318048374011094 1.705626642663953 0.09069694956594057
Ni 9.592962407112267 1.7499736768986234 10.710441348703949 -1.0715540365434322 -0.9924499340214133 -1.2825739860718621
Ni 9.228869677939961 6.898612000682773 12.932925387413102 0.30247563163726615 -1.5520307395809465 1.3588061663627242
Ni 2.3054705146948855 0.8925248182691085 2.3261236506782264 -1.7221007290595762 -1.5878976286808846 2.8278704922527687
Ni 0.16920614224244876 6.984238663583714 4.080234186974391 0.4783360025454278 1.4232917476406197 0.8318277202192448
Ni 0.4941285446562961 7.874244161863633 11.188474762469786 0.20273842624592825 0.9237590564129187 -2.2605699494514746
Ni 1.1607379698318436 5.692851100909192 9.945372592466633 0.5938225003512224 0.7922214186815324 1.2522259699076241
Ni 6.600250105261401 1.881718626258341 -0.16531762660696053 0.9268742050031328 1.2658209349832394 0.3249290755447759
Ni 7.276330587217897 3.444424109657687 1.9493106218153786 -0.6885424550336271 -2.436977708222674 0.5352669114045169
Ni 6.954239114836881 6.372113782402258 2.581579675908896 -2.286675645399591 1.7798538767096443 0.37765314541136896
Ni 2.8826667428028325 1.562554399741824 5.7281357448507375 1.9474635775732396 0.07907376350471543 0.8540186544939873
Ni 6.302171491697884 4.997998474505511 11.01501467099522 -0.12264856277187265 0.718626161792885 0.267858555784029
Ni 9.6584949435627 2.915395240113668 3.324826286362788 0.19651404260277125 0.8343348029118147 0.9536946676300866
Ni 1.966958137286879 4.808785078915631 2.6512197992982243 0.5572871244293499 0.20751784991244263 1.6473214791651565
Ni 2.1863032798239255 8.533913181521735 9.460663169584013 0.7160766558981538 0.36017684300347647 1.0032709358963172
Ni 0.37731821484268896 3.421497164628631 6.459358928984409 0.4400903288006679 -0.48836947552202986 -0.41645289188738605
Ni 8.92361459064412 5.68438097335933 7.179773965968056 -0.4775379321241647 -0.6725496791497966 0.5002975944181836
Ni 4.586899842386486 0.435400438431538 3.416593555669163 2.1020745521843214 -0.19874036083012872 -0.006203300597234478
Ni 0.7899796185442144 3.547727560488773 8.888458367811468 -1.6943433564406498 0.22717959000742813 -1.8976505107058543
Ni 8.018557382983511 8.009397936246204 0.960279228757983 -1.0177346767301312 -0.07844075790640684 0.4384720764709545
Ni 7.115426491956316 8.541221853454392 3.8554320915821996 0.6283742701841629 -0.4892133115795639 1.0700733382328473
P 4.946894427348488 6.029947069027923 1.840281100364186 -1.4842376911963728 -0.3680868418791725 -0.6556343914516967
P 7.927406723854401 5.15467222735646 1.1339130664387038 -0.19621836573922338 2.3469644149873194 -2.910189759277975
P 1.8992443305309639 3.5585678129160208 4.550542504476528 -0.42455160973512046 2.231668950146408 2.6565782003312632
P 7.457640418973627 6.217696841685554 4.915082818984242 1.1780766402877194 1.479816936420858 -1.2772245488344907
P 3.168092100048831 6.87177576601532 10.280654612422234 0.7613329566327921 -1.5027401208759346 0.3451268906488895
P 1.7731744610569395 1.142598488200535 9.002974114576451 -0.876348171229123 0.9068548244584124 0.398125811443424
P 4.463691119676795 4.6798635054058675 7.327998365272052 -1.3235856525975334 0.012786867352023142 1.2664508552577542
P 7.872874966217334 7.223432421627793 8.458919975291808 0.3949679825407327 0.39005974660583786 -0.0811985231572021
Ni 1.828848788854022 5.1188465150664095 12.331434907175518 0.13129492559296096 0.2753630916911903 0.8426307243720198
Ni 6.388430817414699 2.8818452254150535 4.263395737807632 -0.16725951661302807 0.34830760236971625 0.41429316523190585
Ni 3.9987217209223633 0.09626011957195336 8.222094453579397 -0.49795429099698757 1.2307624007172095 -1.344361194581988
Ni 3.602287646311626 1.302548867874005 10.456961686568246 -0.2082812104410284 0.0778800003069304 -0.19262499196101018
Ni 6.462735648730039 8.28436075020876 6.934116660200588 -2.1527221991378602 -0.9401935478198582 0.4013378906228185
Ni 2.8167753826657833 8.907467524746393 4.366952253765068 -0.26814189135240274 -0.12452443963834682 0.4718269977823164
Ni 3.2241346942611244 2.6357960464108854 8.541897952821804 0.19114300809884502 0.9278044301268861 -1.5098201676511676
Ni 5.29933482943436 3.0057338245835945 11.049206791238303 -0.22146557034178635 -1.4675985399777949 0.934546633946726
Ni 5.94475477164236 6.325948282300504 9.051539012014235 0.34209761690426244 -0.13326567616608662 -0.48224947866722107
Ni 9.354240785497945 9.01693707735012 8.927114065861488 0.538920191886388 -1.955192313676065 -0.3198537179043975
Ni 7.471719527309015 7.532832866776911 11.292375938020948 -0.504319313983067 0.12405367064951538 0.23390713853924877
Ni 4.007257947572391 4.57586129265874 5.091969676665997 -0.4808983639559653 -0.302329335867389 0.6080401866125013
Ni 4.099985542376894 5.843122683772619 12.050148297872779 0.3478589448680719 -0.8717798351321502 -0.7143640440824214
Ni 3.124428923024796 2.281089389462174 0.46431218484420866 0.5376554662413515 0.3897445293582642 -0.15503932039775237
Ni 8.461081415867241 5.790130090896563 10.46583407435626 -0.3686977359902941 -1.396167637730318 -0.8283834704243863
Ni 1.7053095706435015 5.548877818018738 5.890649825337794 0.09744686669526444 0.2396985484100452 -0.631479648582364
Ni 6.558324390298877 0.23873767425293313 1.9883119237319813 1.3819743769490715 3.7265047285736013 -0.6409965869338637
Ni 3.2594788273928206 2.31733058181041 3.742547104045602 2.251543063362516 1.1766625335490124 -1.7269788830874842
Ni 6.271822561993029 1.0621936542127202 7.520696127713548 0.7127501626280822 -0.6404661683516905 -0.9400169130326778
Ni 5.417784416932087 4.163365136707629 0.09059920377915302 0.5182595782132429 -0.28029498177516887 -0.09924895290100973
Ni 8.563459479296 1.5865294876449434 8.374712554498721 -0.045068867314180444 1.7692128520560306 -0.49400301965872345
Ni 2.8851973940663362 7.488895850623616 1.7274244410133737 0.27751381948560594 -1.6669580224491614 0.9375036596925208
Ni 7.185727606347307 5.947540376577934 13.048753673452811 -1.7706462420684472 0.6479866450984517 0.39088918448566873
Ni 0.47689745351584223 4.2638074407743805 1.0384045880629256 -0.7155295251454322 1.2161297384056993 -2.192919340182036
P 3.400439879861417 3.254341983037052 12.283215613604316 0.6776358354234523 0.04613896044990764 0.44953399071207095
P 5.514317431360441 0.6988761730580797 9.512517913664352 0.8424936845735232 0.3446964879796902 1.4195219961855425
P 8.95678689619893 9.27266505316433 2.7470096709861394 0.7768472502183073 -2.30356110830102 -1.3819242404374266
P 1.4516306669344416 -0.02526779744779726 12.258476608957848 -1.3670300969344136 1.5963046217976573 0.9809717581784847
P 3.0649491756038634 9.317442472162593 0.868174854040761 2.053605400939341 -0.32419348293033196 -3.8360625195997873
P 1.5857079702571641 6.270406152703755 0.4106217743249702 -1.083042753909322 -0.2408231489327917 0.11885284317486629
P 8.417427681571802 3.906334064347287 4.8417930809928835 -1.6096316779238664 -0.7927317826590476 0.8929510698931267
P 5.326690414174547 2.407329228050911 2.2164860175055052 0.29273783552421195 -3.4104035357331006 -0.8441286490737849
