# total energy = -381166.0412287793 ev
CRYSTAL
PRIMVEC
9.27156531062212 0.00000000000000 0.00000000000000

0.00000000000000 9.27156531062212 0.00000000000000

0.00000000000000 0.00000000000000 13.56987301628791

PRIMCOORD
 96 1
Ni 7.7008322272653835 8.061162335984337 9.204376917458347 -1.2059705384845103 0.00880577121708806 -0.6654706608158282
Ni 2.6954294258638987 4.486788532121342 6.50508495754514 1.015511443826567 0.8159568146252593 1.5072148688178366
Ni 1.1594926684408136 3.149708304437968 8.02115182365504 1.5095157490368711 1.012161810628044 0.7094264975714879
Ni 8.681671106469228 6.169568338687356 8.492189056271657 -0.3831483641979853 -0.659807806103096 0.18853102439729466
Ni 4.4979793112800435 4.667992001779721 10.179399743831825 2.0736060124309836 -0.2628582743559602 1.8070008694380815
Ni 1.7085918439958614 7.479770298946475 2.8090450397550017 0.01828774256559431 -1.0797316872582179 0.3534150987996107
Ni 2.7073619302361016 3.3991690368688086 1.139948209065053 0.5420032016870858 0.06366334248691617 -0.08052463701862905
Ni 4.814723792140625 2.105229401915707 10.903813090850052 -1.3477211121931563 0.17980907114326453 0.0734186221014671
Ni 3.0923080444781323 0.01774113995043537 6.244394505381889 -0.16066463700432976 -0.19220538792508832 0.5557858572934752
Ni 0.11560714608935385 6.9053690220458614 11.194059438458297 1.3377632296494961 1.480186918165767 -1.9763298669856288
Ni 4.541926530179999 6.4586186543888315 3.764527115378786 1.0283430483735967 -0.9861535594897404 -0.2783080332521271
Ni 8.028127749288021 7.926390864691142 0.4774522285568852 -1.1248512053046757 1.7024747272985326 -3.8116450099873713
Ni 4.015598318679442 7.215771752331007 10.583835615215122 -0.042846662851881046 0.02098277289925419 -1.3949342795438493
Ni 0.9517168930087484 0.290579196797805 3.305064504718859 -1.1247054237554308 0.8260905606251515 -0.39102365318100396
Ni 5.1583372688602935 8.294944851714794 5.467355754465742 2.1471940702307797 1.229955845655514 -0.3718457947009725
Ni 9.177004475610598 6.563405883926234 4.470377861772624 0.9893219299153929 -2.2317476259031435 0.11424979718521613
Ni 8.287054749756173 3.674061672557577 8.3951778884413 2.155313871124436 -0.2741919542012245 3.0463744088630698
Ni 2.011271360495424 2.3850545102742595 3.3094879684608776 -0.838610290358717 0.9560891360041921 0.5675257714382227
Ni 2.7972404829821276 1.5254969750430536 12.576245830687721 0.4276924693569473 0.42616163453471767 1.0412684981860132
Ni 8.722150759996063 4.736416152725221 6.487023021439866 -0.41969813829756103 1.3877012521305199 -0.42770635331401824
Ni 6.379430216282394 0.10319344748489193 7.358005906428543 -2.1719594501009176 0.5259800867859522 -0.3113001719074316
Ni 1.2932813538261192 4.993062348161856 2.5814104988879545 -0.4737267859081906 0.1370750226098478 1.7094107922967336
Ni 5.857793416757233 2.8447943407327325 4.311705222630866 1.7504779946506888 -0.5337052233443519 2.152047027447707
Ni 1.6201689269813322 6.853123752319862 0.6053627416251927 -1.6215525977311687 2.7319560030416308 0.5021084223746772
P 9.227070927521938 3.179720360889266 2.6427326309141788 1.7995004472959786 -0.2789924609136615 -0.07484044214965821
Ni 3.856767135773297 8.506373623823354 8.390292700753875 1.1406308367364355 -0.17521656667657567 0.14133636898936305
P 6.775798898812345 5.807977297105449 5.464167263204202 2.0555627817760276 -0.7434869295903066 -2.380410353350591
Ni 2.2592857287599375 5.465105545599282 10.47438107977176 0.0053962313149068354 0.4478414335009965 -0.06495763581830749
P 5.936277215910845 6.818160680068441 9.298823570363025 -1.0500084491621722 -0.3154288493638245 -0.32999312033124456
P 1.5201194672451688 3.2479498089662213 12.89273627066268 1.0172155710018675 1.1654283553960896 -2.3641815501965544
P 6.76388493757048 0.8309009816075813 5.241947316395716 0.17807563339192556 -0.1325136284914105 0.22184352250649536
Ni 6.633100239299854 5.021284992535582 3.371244936893517 0.5174908183680185 0.18758305866172856 1.2978591943657067
Ni 1.9261120344203007 7.404383202559232 9.102385991975845 -1.24114862904754 1.033132242232124 -0.02050686170410017
Ni 0.09616652824348353 2.2079305292901377 6.3593035026140345 -1.3876104921889263 -1.2298182916363851 -0.8977952853593054
Ni 2.6052449114673033 1.3094138772197734 8.435304295335204 0.03486750130114641 0.050640190754370845 -1.1367160750630618
Ni 1.7474118873574882 5.434898786279439 12.654842742936392 -1.0978440805882126 -2.0759703988981024 -2.161741886137967
Ni 8.833715503671836 7.129425665914281 2.107441597364975 0.9847116848368912 -2.1148768461553127 3.5516270332936837
Ni 0.15687024687295073 2.6947155153459033 10.32858664464942 0.43342422963440197 -0.3688887689551776 0.30568179727938966
Ni 4.356421054283311 8.966335971845877 12.04210910700203 -1.2326066530147997 0.23934219351189104 1.7727802576923146
Ni 0.24841026409721959 4.609989090083916 0.5664685257422157 -1.3584909491151507 -0.9109117681366055 1.1749779467577377
Ni 7.826053986434748 1.202058424130622 8.628322520488144 0.24722211048060003 1.658519404763505 0.02721358430031442
Ni 5.633718229758476 9.17699520404543 10.306522173860786 0.9390100690347183 0.10206071131819196 -2.181121061995528
Ni 8.37519024825047 5.9230188777195085 12.773362087645255 -1.125112172275546 0.36533884682039014 0.9226848495121335
Ni 3.8238994372500184 5.818463437311324 8.42383815069099 -0.3616372295990869 2.929693119418226 0.4086902172228316
Ni 3.6237541599518486 8.114585094486772 1.4572684541226155 0.9659212916032656 -1.3383723239884047 -0.570757905222275
Ni 2.5409095207612307 3.16796401625527 9.986598473303836 -0.14296979082772798 -0.8202287025277357 0.8812926597185919
Ni 2.3169085062838235 2.2327412376817577 5.8558612225760625 0.1973087705899247 0.40327290286200224 -0.40034107392718793
Ni 6.653924174668906 5.063350083706277 0.5083181961602269 0.3083503452504883 0.24245682788147277 -1.0873709489710306
Ni 6.314241841580794 4.439012156806687 8.307910208446797 -2.0868204542387283 2.0243717008852036 0.5945326390443696
Ni 5.418590103147579 2.7697132059960587 0.40201413856121376 -0.8166468987137484 0.23415859242842255 0.1770757313725015
Ni 4.056272675074822 3.724962565334107 8.205823785843057 -0.1375074821615761 -3.5148988246347144 -0.6066620753180519
Ni 3.37224441161871 8.297883937873294 4.052072656053371 -0.550926986539277 2.5842373846750077 -0.17380991613703614
Ni 3.8302133731299484 6.339488313535346 12.948739305751582 1.3731729766073577 -0.21813650596855333 0.5245166148665483
Ni 0.722650822479644 0.024387925019924324 12.594904855589865 -1.0795231707918376 0.7406952257777824 -0.20918212498874297
Ni 5.477316196926548 -0.03795686064441461 2.4050699651605933 0.2743073967331663 0.17119716110453745 0.4804340227250371
Ni 7.713144865809506 0.9969250447716556 0.8091146577740129 0.408013245760465 -0.8304997454364407 1.4784125998741635
P 5.498520266467518 4.326789132003932 12.174591428855056 2.785570703043293 -0.13677985996693218 0.4832478380247483
Ni 7.2692964980502985 7.516003575626016 4.152380792457742 -1.8764106274904717 1.4185578325000603 -0.1489108389025113
P 2.16092369388449 6.571889366055656 4.804345202090707 0.3551793897888851 -0.8788858500493122 0.05398622440846832
Ni 7.548426239021193 1.1604476396531964 3.0949216986992076 0.1334392256294734 -0.4412049020210853 2.022210688678143
P 4.745678446328818 0.6480675707925327 0.47427671748658257 -1.0731429782971065 -0.37737958003500816 0.3228421111087601
P 3.8504161136326918 1.270779265161522 4.489945500061307 -0.37643110007880975 -0.3630960735328005 0.47873169532194976
P 0.5415011278992434 9.05089264618503 1.1550543701945248 -0.10990823238706877 0.047617858988279284 0.9111809626375921
Ni 4.906141424704666 4.713802805278598 1.8214295735693047 -1.4251313719525198 0.12578839395243496 0.9287454538839166
Ni 7.09808777564385 2.894768076992386 6.810596937203761 -1.6811931922119367 -1.782227004927511 -2.6470702608408283
Ni 2.1982324721236077 7.718012437523108 11.947159935265207 0.22512630702282518 -0.18604373919906667 -0.5368057166465465
Ni 2.44031303868011 0.4776070636952036 10.595235004590121 0.13849324311361308 -0.5566970562538347 -0.574101110662895
Ni 6.035881640518907 6.326063087170972 11.399764873388177 1.0782558740436399 -0.21103717591961071 0.7761281126640955
Ni 1.242463905136108 4.374389347580381 4.9567892037520895 -0.45323277971989684 0.17526130387158204 -1.293552853680869
Ni 5.163659147267166 4.599011556924095 5.912122007176657 -0.5624211032218056 -0.3422122881052558 0.6380794132870687
Ni 8.393056554330684 3.5650002514773727 4.553750557239726 -1.4095911102250753 -0.7440710842285508 -0.7449138918448204
Ni 4.6205308596808035 2.1729952717342242 6.600847245547266 0.7183225145095371 -1.0853793724622987 -0.5751295519274094
Ni 3.5357948211957573 4.270214041344117 4.11015159458356 -0.17022297011672619 0.366088323391905 0.07120670205181284
Ni 7.000625082589773 2.8673427872231736 10.489118232607515 -0.2611232939427245 -0.23395573238899708 -1.4733259293798757
Ni 7.587607873424402 8.363674964310864 11.569442860385262 -0.24633199456616287 0.22692016569845436 0.9742784053187092
Ni 2.4490746677645947 0.8429438176052926 1.5068527846451805 0.3355186781351641 0.2607509982049703 -0.6548435201192851
Ni 4.373777424279242 2.5127517773436856 2.8412192252036563 -0.618934979148134 -1.33639951653275 -2.7213496882806942
Ni 7.279532305996617 3.1688262718159654 2.001841251562271 -1.1658813837731083 0.5668806816550559 -0.946029694885661
Ni 0.761206626233961 8.492929854328642 5.32662266676903 2.426431557275712 1.2565500512042747 -1.6156208056277657
Ni 6.424999959086883 1.0219304560318199 12.677422712748406 -1.5217955948454889 -0.502068056055045 -2.2893290238620376
Ni 3.773248876733045 6.760380285936686 6.437587963116518 -0.6881873856870535 0.186038339882428 -1.770421527652151
Ni 6.373839462485628 6.889115968305013 7.095958097124584 -0.21179565135219008 0.7342816089419548 2.040185785099325
Ni 5.8518132572233785 7.735285363432521 13.399516314161408 -0.3555984796041747 0.3696217904664602 0.34553055384521136
Ni 0.3016865318699877 2.2025252067967465 0.5031724774915614 -0.26407826280599034 -1.3695821739323057 1.358339511138951
Ni 7.4846656853555835 3.341648246561779 12.709285373607392 0.8226807636126542 -0.19380718519456944 0.48944471086407965
Ni 6.471098181105992 6.832457433558679 1.955160775250564 -0.8424546038054717 1.1739438490662686 0.14539536955008509
Ni -0.08564701040300066 0.15745806410465052 10.10036799517674 2.554075002159014 0.01679161763604205 0.8573613457139752
Ni 8.44174154303188 8.628322520488144 6.7088906487719395 -0.9338760902422626 0.0920102690607254 1.6748741919724446
P 2.978434681075338 5.604911476779118 1.5351190053751997 2.006788183475486 0.4561489249254273 -0.12316921116203304
Ni 3.5507683989433154 3.9146587886870767 12.15216073124226 -2.0926440028990414 -0.8277391519721681 0.8319922708215672
P 8.284032219511156 1.3717744245448993 11.678680441203673 0.5603554789420285 -0.05775237631911989 0.01948561952843741
Ni 8.444550827278016 4.865068391007029 10.774424690293843 -0.34923037129430173 -0.6647001011983906 -1.075079533198187
P 1.3245914294010448 5.280480868393628 8.584030399363911 0.4181680748062799 -0.6365339231768199 -0.9539605196969636
P 1.2599408054792336 8.996477830209537 7.529623504858934 0.02303117078785066 -0.3244045704998736 0.14968731205721963
P 5.348107664734614 1.743044980162999 8.820322727785552 0.5618127802138453 -0.21330386046660038 -0.45621474516635624
Ni 1.1426740492246703 6.704176057883622 6.738934228544811 0.2554640387744181 -0.8043680813463953 1.107634584316073
